data_image0
_chemical_formula_structural       FeS2FeS2FeSFeS3FeSH2SHFeSFeSHCS2H5CH4CHCH3CH5C6H6SH2C6H4CHCHC3HCH2CHNC11H25FeCHNCHC2HC3HCH4CH2CHCHC2HNH8C5H6SHC2HC4HCH2FeHCHCHC2HC2H6CH4NHC3HC2H3FeS2FeS2FeSFeS3FeSH2SHFeSFeSFeCS2H4CH4NH2C3HC2HCHNC6H7CHC6H4NCHC2HCH2C2H25NC5HC6H5CH2CHCH2CH2C2SC2H6C2HCH7C2HSHCH3C2HCH3C2HCH2C2H2CH12C3H2C3HCH2CH3CH2C2HCHCH7CH2CHCH4S2FeSFeSCSFeSH2C6H4C2SH2C2FeSFeS3H2CH3C4HC7H10CH10C2HCHCH3SH3CH4FeCH3FeCNC2HC2H2SH3CHCH4NC12H31C2HC3H3CHSH5SH3S2FeSFeSHSFeSH2C6H4CHSC4FeSFeS3H5C2H4C7H4SH2CH3CHSH4C3HC3H2CNC12H30C2HC2H3CH2C2NH3FeNCH2C4H3SH3CH3SC2HCH4CHCH2FeH6CH5CH2CH3CHNCHS2FeSFeSHCH2FeSFeS2FeS2FeSFeS3HNCHC7H5CHCHC2H4C6H5CHSCNC3HC2HC4H3CHCH8CHCH8CHC2H4CNC2HC3HC4H4C2FeSH5CH11SCH3CH2C3H17CHCHCHCHNC3H2CH3CH2CHNHCHSCH3C2H3CH5CH2C2SFeSFeSHSC2FeSFeS2FeS2FeSFeS3CHCH2C6H4C5HCH4C6H8CHCH4CH2C2H2CNHC4HC2H2C2H5CH5CH5C2HCH3CH2C2H7CHC2H3FeC2H3CH7CH3SCHNHCH6C2H3SFeHSCHCH2CHCH10SH5NC3H7CHC3HCHCH2NHC2H9CH4FeS2FeS2FeSFeS3C2H3SHSFeSC3SH3C3HCHCH4C6H4C6H3C5HC3H7CH2SHC2H3FeCSH2CHCH4CHCH3C2H2CH2SCFeHFeCHCSFeH2NC11H13SH8CHCH2NSC3HC2HFeH2C2H9CH4CH4CH7CH2CHCHNHCHCH3CH4CSNH5C2H5CHC3HC2HNCH18CFeS2FeS2FeSFeS3H6CSFeSHCHSNCH2CH2CHFeHCHSC6H4C6H4C2H2CNC5HC2HC3H5CH4CH10CHC3H3SH3NCHC7H19C3H7CH4CSC4FeCH2C2H6CHCH3CS2H2CHFeHCHC3SH2FeHCHCHCH4CH3CH7SCHCHCH2CH6SH2CH2FeCHCSC2HCH6CSHFeSCHS2FeSH2C6H10CH3C2HCSH2FeSHSHC6H2CH2CH8CH4SFeCH3CNH2SH2C2H2CHCHCH9CHCHC6H7CH3CSCHCH2NH3NC10HCHCH12CHCHCHCFeH4SH3SH4CHC3HCH2CHSHFeSH2SHFeSCHC7H5CH8CHCSHSFeC2SC7H3CH3C2FeCSHCH5CH8CH2CHCH2CH3NH4CN2CHFeCHC2H3CH5CH4CH3CHCH2SH3C3HCHCH4C2H3CHC4H3SH7CHNH2CH2CH5C2HCH3CHC2FeSFeS3CH4CFeS2FeS2FeSFeS3HC2H2C6H4CHC2H2C2HC2HCH3CHC7H6NC6H9SH4NCHC2HC2HC4HCH5CH14CH5CSC2HCH3CH5CH3CH3CH3CHNH3C2HSH6CH2CH3C3HCHCH6C3HFeH2FeH2C2H4C2HCH4CHCHCH3CH3C2H3CH4CH3NH2CHCFeH3NH3CH2CHNFeSFeS3H4C2FeS2FeS2FeSFeS3HC2H2C6H5FeHCH4SC4FeH4C7H4CHNH2CH2CHCHSCH5CHSHCH2C2H3C3H2C2H3CH3NH10SHCH5SNC9H2CH20FeH2C2H2CNHC9HC2H7CHC2H9CH3CHCHCHC2H2C2H2CHCH6SH5C2H2CHCH2SH4CHCH4CHC
_chemical_formula_sum              "Fe96 S192 H1536 C864 N48"
_cell_length_a       38.6265
_cell_length_b       51.1813
_cell_length_c       44.7322
_cell_angle_alpha    89.9724
_cell_angle_beta     90.0254
_cell_angle_gamma    90.0786

_space_group_name_H-M_alt    "P 1"
_space_group_IT_number       1

loop_
  _space_group_symop_operation_xyz
  'x, y, z'

loop_
  _atom_site_type_symbol
  _atom_site_label
  _atom_site_symmetry_multiplicity
  _atom_site_fract_x
  _atom_site_fract_y
  _atom_site_fract_z
  _atom_site_occupancy
  Fe  Fe1       1.0  0.19086  0.14909  0.13045  1.0000
  S   S1        1.0  0.19809  0.18965  0.11171  1.0000
  S   S2        1.0  0.24158  0.12562  0.13288  1.0000
  Fe  Fe2       1.0  0.11241  0.15847  0.13684  1.0000
  S   S3        1.0  0.11462  0.19956  0.11933  1.0000
  S   S4        1.0  0.06227  0.14090  0.15416  1.0000
  Fe  Fe3       1.0  0.15025  0.18323  0.08423  1.0000
  S   S5        1.0  0.14386  0.19048  0.03393  1.0000
  Fe  Fe4       1.0  0.16218  0.20268  0.14808  1.0000
  S   S6        1.0  0.17667  0.23921  0.17342  1.0000
  S   S7        1.0  0.14519  0.14145  0.10005  1.0000
  S   S8        1.0  0.15764  0.16284  0.16855  1.0000
  Fe  Fe5       1.0  0.35136  0.01573  0.23283  1.0000
  S   S9        1.0  0.30400  0.04296  0.22695  1.0000
  H   H1        1.0  0.03011  0.16870  0.48020  1.0000
  H   H2        1.0  0.12890  0.14922  0.43483  1.0000
  S   S10       1.0  0.40808  0.02641  0.23812  1.0000
  H   H3        1.0  0.21442  0.19562  0.99998  1.0000
  Fe  Fe6       1.0  0.16250  0.27594  0.33959  1.0000
  S   S11       1.0  0.16104  0.23773  0.31429  1.0000
  Fe  Fe7       1.0  0.15910  0.29743  0.40328  1.0000
  S   S12       1.0  0.15963  0.29185  0.45412  1.0000
  H   H4        1.0  0.23338  0.22708  0.29862  1.0000
  C   C1        1.0  0.06525  0.18352  0.22813  1.0000
  S   S13       1.0  0.11891  0.28118  0.37224  1.0000
  S   S14       1.0  0.20338  0.28896  0.37211  1.0000
  H   H5        1.0  0.23495  0.11887  0.06351  1.0000
  H   H6        1.0  0.02140  0.26706  0.28179  1.0000
  H   H7        1.0  0.19320  0.11629  0.04591  1.0000
  H   H8        1.0  0.46593  0.02884  0.08674  1.0000
  H   H9        1.0  0.03983  0.29571  0.29762  1.0000
  C   C2        1.0  0.46149  0.00510  0.35162  1.0000
  H   H10       1.0  0.08573  0.24914  0.27956  1.0000
  H   H11       1.0  0.37292  0.19538  0.01980  1.0000
  H   H12       1.0  0.26124  0.21537  0.32790  1.0000
  H   H13       1.0  0.24728  0.26974  0.07767  1.0000
  C   C3        1.0  0.09083  0.15142  0.47047  1.0000
  H   H14       1.0  0.12389  0.29169  0.26230  1.0000
  C   C4        1.0  0.15271  0.21890  0.01248  1.0000
  H   H15       1.0  0.33083  0.01587  0.33856  1.0000
  H   H16       1.0  0.25869  0.24049  0.09783  1.0000
  H   H17       1.0  0.17197  0.19651  0.46849  1.0000
  C   C5        1.0  0.16595  0.23798  0.46155  1.0000
  H   H18       1.0  0.20831  0.16206  0.05404  1.0000
  H   H19       1.0  0.16685  0.24335  0.04954  1.0000
  H   H20       1.0  0.08551  0.23897  0.33306  1.0000
  H   H21       1.0  0.16762  0.23668  0.43746  1.0000
  H   H22       1.0  0.07084  0.14145  0.45668  1.0000
  C   C6        1.0  0.17090  0.23918  0.21244  1.0000
  C   C7        1.0  0.18494  0.25955  0.22954  1.0000
  C   C8        1.0  0.18152  0.25956  0.26082  1.0000
  C   C9        1.0  0.16398  0.23917  0.27509  1.0000
  C   C10       1.0  0.14947  0.21900  0.25794  1.0000
  C   C11       1.0  0.15269  0.21911  0.22666  1.0000
  H   H23       1.0  0.19891  0.27522  0.21862  1.0000
  H   H24       1.0  0.19296  0.27511  0.27391  1.0000
  H   H25       1.0  0.13587  0.20319  0.26891  1.0000
  H   H26       1.0  0.14134  0.20356  0.21360  1.0000
  H   H27       1.0  0.49294  0.01850  0.42192  1.0000
  H   H28       1.0  0.30486  0.26082  0.42770  1.0000
  S   S15       1.0  0.35040  0.99471  0.27730  1.0000
  H   H29       1.0  0.04483  0.17388  0.10320  1.0000
  H   H30       1.0  0.02547  0.15622  0.21669  1.0000
  C   C12       1.0  0.25774  0.10187  0.15875  1.0000
  C   C13       1.0  0.29096  0.09122  0.15415  1.0000
  C   C14       1.0  0.30529  0.07286  0.17431  1.0000
  C   C15       1.0  0.28669  0.06498  0.19963  1.0000
  C   C16       1.0  0.25338  0.07555  0.20414  1.0000
  C   C17       1.0  0.23894  0.09377  0.18386  1.0000
  H   H31       1.0  0.30580  0.09722  0.13483  1.0000
  H   H32       1.0  0.33088  0.06501  0.17044  1.0000
  H   H33       1.0  0.23863  0.06959  0.22353  1.0000
  H   H34       1.0  0.21330  0.10153  0.18768  1.0000
  C   C18       1.0  0.25536  0.23579  0.04940  1.0000
  H   H35       1.0  0.21559  0.24432  0.08277  1.0000
  C   C19       1.0  0.06326  0.24951  0.32299  1.0000
  H   H36       1.0  0.09624  0.27754  0.30174  1.0000
  C   C20       1.0  0.02966  0.17761  0.21467  1.0000
  C   C21       1.0  0.16442  0.24209  0.02552  1.0000
  C   C22       1.0  0.12625  0.14314  0.45856  1.0000
  H   H37       1.0  0.34937  0.12262  0.24508  1.0000
  C   C23       1.0  0.25919  0.21859  0.30340  1.0000
  H   H38       1.0  0.23289  0.23584  0.41965  1.0000
  H   H39       1.0  0.27946  0.23279  0.29654  1.0000
  C   C24       1.0  0.32496  0.17608  0.00630  1.0000
  H   H40       1.0  0.08427  0.26052  0.23381  1.0000
  N   N1        1.0  0.26248  0.17208  0.23385  1.0000
  C   C25       1.0  0.29824  0.16068  0.23749  1.0000
  C   C26       1.0  0.25983  0.19650  0.25263  1.0000
  C   C27       1.0  0.23634  0.15182  0.24348  1.0000
  C   C28       1.0  0.25539  0.17933  0.20167  1.0000
  C   C29       1.0  0.28360  0.19618  0.18610  1.0000
  C   C30       1.0  0.30643  0.13657  0.21769  1.0000
  C   C31       1.0  0.19854  0.16154  0.24662  1.0000
  C   C32       1.0  0.26369  0.19267  0.28691  1.0000
  C   C33       1.0  0.27324  0.20281  0.15405  1.0000
  C   C34       1.0  0.34404  0.12797  0.22144  1.0000
  C   C35       1.0  0.17362  0.13884  0.25215  1.0000
  H   H41       1.0  0.30226  0.15399  0.26089  1.0000
  H   H42       1.0  0.31842  0.17587  0.23371  1.0000
  H   H43       1.0  0.28021  0.21073  0.24611  1.0000
  H   H44       1.0  0.23487  0.20677  0.24826  1.0000
  H   H45       1.0  0.24398  0.14270  0.26510  1.0000
  H   H46       1.0  0.23585  0.13541  0.22716  1.0000
  H   H47       1.0  0.25106  0.16154  0.18779  1.0000
  H   H48       1.0  0.23079  0.19054  0.19987  1.0000
  H   H49       1.0  0.30867  0.18572  0.18498  1.0000
  H   H50       1.0  0.28761  0.21491  0.19803  1.0000
  H   H51       1.0  0.28991  0.11984  0.22434  1.0000
  H   H52       1.0  0.30209  0.14057  0.19363  1.0000
  H   H53       1.0  0.18999  0.17165  0.22612  1.0000
  H   H54       1.0  0.19600  0.17530  0.26563  1.0000
  H   H55       1.0  0.24420  0.17879  0.29580  1.0000
  H   H56       1.0  0.28982  0.18521  0.29260  1.0000
  H   H57       1.0  0.07080  0.28367  0.06966  1.0000
  H   H58       1.0  0.24903  0.21452  0.15391  1.0000
  H   H59       1.0  0.29400  0.21452  0.14329  1.0000
  H   H60       1.0  0.26938  0.18464  0.14086  1.0000
  H   H61       1.0  0.04298  0.23493  0.31737  1.0000
  H   H62       1.0  0.36200  0.14375  0.21434  1.0000
  H   H63       1.0  0.18069  0.12826  0.27295  1.0000
  H   H64       1.0  0.14686  0.14648  0.25454  1.0000
  H   H65       1.0  0.17404  0.12501  0.23300  1.0000
  Fe  Fe8       1.0  0.40773  0.00227  0.28069  1.0000
  C   C36       1.0  0.48714  0.98748  0.34263  1.0000
  H   H66       1.0  0.08824  0.17270  0.46693  1.0000
  N   N2        1.0  0.26287  0.19053  0.02335  1.0000
  C   C37       1.0  0.25855  0.16180  0.03043  1.0000
  H   H67       1.0  0.07188  0.20451  0.22551  1.0000
  C   C38       1.0  0.24885  0.20577  0.04963  1.0000
  C   C39       1.0  0.16145  0.26235  0.47511  1.0000
  H   H68       1.0  0.07197  0.25935  0.15231  1.0000
  C   C40       1.0  0.22095  0.15193  0.03514  1.0000
  C   C41       1.0  0.02288  0.14743  0.13543  1.0000
  C   C42       1.0  0.25836  0.28455  0.43661  1.0000
  H   H69       1.0  0.06590  0.17824  0.25221  1.0000
  C   C43       1.0  0.24253  0.19850  0.99606  1.0000
  H   H70       1.0  0.07057  0.29429  0.19065  1.0000
  H   H71       1.0  0.44158  0.01724  0.13653  1.0000
  H   H72       1.0  0.27352  0.15688  0.05102  1.0000
  H   H73       1.0  0.12927  0.12159  0.45991  1.0000
  C   C44       1.0  0.46382  0.01600  0.38050  1.0000
  H   H74       1.0  0.06009  0.23516  0.17977  1.0000
  H   H75       1.0  0.25975  0.19789  0.07091  1.0000
  C   C45       1.0  0.11453  0.30477  0.24445  1.0000
  H   H76       1.0  0.44424  0.02968  0.38777  1.0000
  C   C46       1.0  0.17301  0.26370  0.00741  1.0000
  H   H77       1.0  0.23177  0.11119  0.02402  1.0000
  C   C47       1.0  0.24347  0.24824  0.07872  1.0000
  C   C48       1.0  0.27773  0.25803  0.43515  1.0000
  H   H78       1.0  0.29077  0.01537  0.35912  1.0000
  N   N3        1.0  0.04961  0.29077  0.25018  1.0000
  H   H79       1.0  0.28314  0.24068  0.04664  1.0000
  H   H80       1.0  0.04776  0.25911  0.04865  1.0000
  H   H81       1.0  0.27407  0.22052  0.41265  1.0000
  H   H82       1.0  0.09463  0.25969  0.04858  1.0000
  H   H83       1.0  0.11811  0.29466  0.22275  1.0000
  H   H84       1.0  0.31259  0.20165  0.04213  1.0000
  H   H85       1.0  0.18210  0.28156  0.01774  1.0000
  H   H86       1.0  0.09331  0.30347  0.02372  1.0000
  C   C49       1.0  0.05826  0.26873  0.22905  1.0000
  C   C50       1.0  0.36076  0.18726  0.99928  1.0000
  C   C51       1.0  0.07093  0.27200  0.04874  1.0000
  C   C52       1.0  0.50736  0.00067  0.08835  1.0000
  C   C53       1.0  0.47954  0.98760  0.14563  1.0000
  H   H87       1.0  0.01751  0.31207  0.21869  1.0000
  H   H88       1.0  0.32657  0.29739  0.44674  1.0000
  H   H89       1.0  0.32855  0.15991  0.02263  1.0000
  H   H90       1.0  0.08524  0.17183  0.21629  1.0000
  H   H91       1.0  0.26066  0.24788  0.39007  1.0000
  H   H92       1.0  0.10133  0.25183  0.18228  1.0000
  S   S16       1.0  0.42617  0.01432  0.32792  1.0000
  H   H93       1.0  0.30381  0.21550  0.00644  1.0000
  C   C54       1.0  0.07356  0.25412  0.17637  1.0000
  C   C55       1.0  0.02142  0.16460  0.11116  1.0000
  H   H94       1.0  0.24077  0.24526  0.03101  1.0000
  C   C56       1.0  0.30086  0.19727  0.01988  1.0000
  C   C57       1.0  0.07519  0.26405  0.29493  1.0000
  C   C58       1.0  0.04486  0.27979  0.28128  1.0000
  C   C59       1.0  0.01511  0.30205  0.24070  1.0000
  H   H95       1.0  0.27798  0.24809  0.45717  1.0000
  C   C60       1.0  0.49150  0.00972  0.39997  1.0000
  H   H96       1.0  0.22026  0.20349  0.05116  1.0000
  H   H97       1.0  0.29549  0.99488  0.32667  1.0000
  Fe  Fe9       1.0  0.41834  0.98823  0.21382  1.0000
  H   H98       1.0  0.03068  0.18279  0.19061  1.0000
  C   C61       1.0  0.46410  0.00707  0.12815  1.0000
  H   H99       1.0  0.04011  0.25217  0.23261  1.0000
  C   C62       1.0  0.05698  0.27560  0.19528  1.0000
  H   H100      1.0  0.34896  0.11048  0.20736  1.0000
  C   C63       1.0  0.47804  0.01362  0.09985  1.0000
  C   C64       1.0  0.30928  0.00314  0.34633  1.0000
  H   H101      1.0  0.14729  0.15257  0.47166  1.0000
  C   C65       1.0  0.07054  0.29027  0.02169  1.0000
  C   C66       1.0  0.22038  0.12277  0.04254  1.0000
  H   H102      1.0  0.04885  0.30347  0.38628  1.0000
  H   H103      1.0  0.26953  0.14935  0.01255  1.0000
  H   H104      1.0  0.23067  0.28051  0.44170  1.0000
  H   H105      1.0  0.04679  0.30241  0.02256  1.0000
  H   H106      1.0  0.02967  0.27759  0.18780  1.0000
  H   H107      1.0  0.05288  0.26347  0.33976  1.0000
  C   C67       1.0  0.26020  0.23951  0.41300  1.0000
  H   H108      1.0  0.20517  0.15481  0.01468  1.0000
  H   H109      1.0  0.01666  0.24887  0.46450  1.0000
  H   H110      1.0  0.49524  0.03893  0.17577  1.0000
  H   H111      1.0  0.37772  0.17153  0.99046  1.0000
  N   N4        1.0  0.27296  0.30462  0.45784  1.0000
  H   H112      1.0  0.24539  0.21980  0.99179  1.0000
  C   C68       1.0  0.32311  0.98128  0.36626  1.0000
  C   C69       1.0  0.07282  0.27473  0.99201  1.0000
  C   C70       1.0  0.07622  0.31251  0.24980  1.0000
  H   H113      1.0  0.33565  0.99074  0.38577  1.0000
  C   C71       1.0  0.16840  0.21521  0.47924  1.0000
  C   C72       1.0  0.02470  0.31052  0.37714  1.0000
  H   H114      1.0  0.09981  0.26727  0.99052  1.0000
  H   H115      1.0  0.05676  0.25689  0.99431  1.0000
  H   H116      1.0  0.25843  0.29243  0.41347  1.0000
  Fe  Fe10      1.0  0.19631  0.14633  0.63333  1.0000
  S   S17       1.0  0.21402  0.18481  0.61362  1.0000
  S   S18       1.0  0.22554  0.10750  0.64011  1.0000
  Fe  Fe11      1.0  0.11927  0.16401  0.63316  1.0000
  S   S19       1.0  0.13131  0.20338  0.61381  1.0000
  S   S20       1.0  0.06588  0.14954  0.64721  1.0000
  Fe  Fe12      1.0  0.16777  0.18257  0.58279  1.0000
  S   S21       1.0  0.16829  0.18700  0.53177  1.0000
  Fe  Fe13      1.0  0.17611  0.20293  0.64611  1.0000
  S   S22       1.0  0.18584  0.24041  0.67165  1.0000
  S   S23       1.0  0.15265  0.14278  0.60011  1.0000
  S   S24       1.0  0.16152  0.16489  0.66777  1.0000
  Fe  Fe14      1.0  0.36472  0.02134  0.73248  1.0000
  S   S25       1.0  0.34722  0.06355  0.72374  1.0000
  H   H117      1.0  0.32506  0.27657  0.83104  1.0000
  H   H118      1.0  0.28665  0.26922  0.78780  1.0000
  S   S26       1.0  0.42182  0.01094  0.73259  1.0000
  H   H119      1.0  0.22817  0.14896  0.70894  1.0000
  Fe  Fe15      1.0  0.17520  0.27883  0.83921  1.0000
  S   S27       1.0  0.18266  0.24114  0.81341  1.0000
  Fe  Fe16      1.0  0.17519  0.29761  0.90422  1.0000
  S   S28       1.0  0.18072  0.29040  0.95454  1.0000
  Fe  Fe17      1.0  0.40996  0.98547  0.77281  1.0000
  C   C73       1.0  0.32911  0.09658  0.60248  1.0000
  S   S29       1.0  0.13355  0.28159  0.87435  1.0000
  S   S30       1.0  0.21746  0.29166  0.87047  1.0000
  H   H120      1.0  0.39286  0.07520  0.58703  1.0000
  H   H121      1.0  0.09355  0.22686  0.55006  1.0000
  H   H122      1.0  0.25537  0.18841  0.72901  1.0000
  H   H123      1.0  0.40160  0.03828  0.54803  1.0000
  C   C74       1.0  0.13281  0.09689  0.68657  1.0000
  H   H124      1.0  0.23151  0.25893  0.54310  1.0000
  H   H125      1.0  0.27138  0.08278  0.76784  1.0000
  H   H126      1.0  0.03350  0.22205  0.69798  1.0000
  H   H127      1.0  0.05668  0.18024  0.74297  1.0000
  N   N5        1.0  0.05521  0.15395  0.52037  1.0000
  H   H128      1.0  0.12885  0.15032  0.81116  1.0000
  H   H129      1.0  0.44283  0.01810  0.60261  1.0000
  C   C75       1.0  0.16638  0.21647  0.51065  1.0000
  C   C76       1.0  0.16193  0.24086  0.52419  1.0000
  C   C77       1.0  0.36293  0.98058  0.85842  1.0000
  H   H130      1.0  0.36874  0.98175  0.83416  1.0000
  C   C78       1.0  0.15791  0.23931  0.96305  1.0000
  C   C79       1.0  0.07347  0.22841  0.53235  1.0000
  H   H131      1.0  0.16025  0.24219  0.54828  1.0000
  C   C80       1.0  0.29685  0.28044  0.83280  1.0000
  H   H132      1.0  0.15562  0.23800  0.93899  1.0000
  N   N6        1.0  0.06376  0.28976  0.96404  1.0000
  C   C81       1.0  0.18160  0.24007  0.71093  1.0000
  C   C82       1.0  0.17663  0.26365  0.72629  1.0000
  C   C83       1.0  0.17620  0.26419  0.75774  1.0000
  C   C84       1.0  0.18094  0.24114  0.77399  1.0000
  C   C85       1.0  0.18520  0.21747  0.75860  1.0000
  C   C86       1.0  0.18535  0.21693  0.72717  1.0000
  H   H133      1.0  0.17342  0.28156  0.71377  1.0000
  H   H134      1.0  0.17244  0.28242  0.76939  1.0000
  H   H135      1.0  0.18876  0.19960  0.77110  1.0000
  H   H136      1.0  0.18933  0.19879  0.71542  1.0000
  H   H137      1.0  0.36600  0.00866  0.58522  1.0000
  H   H138      1.0  0.15658  0.12619  0.82805  1.0000
  H   H139      1.0  0.05097  0.20564  0.49730  1.0000
  C   C87       1.0  0.35212  0.07730  0.61939  1.0000
  H   H140      1.0  0.05198  0.19351  0.60756  1.0000
  C   C88       1.0  0.26017  0.09591  0.66294  1.0000
  C   C89       1.0  0.26534  0.06876  0.66557  1.0000
  C   C90       1.0  0.29188  0.05849  0.68386  1.0000
  C   C91       1.0  0.31400  0.07530  0.69951  1.0000
  C   C92       1.0  0.30935  0.10245  0.69633  1.0000
  C   C93       1.0  0.28255  0.11272  0.67829  1.0000
  H   H141      1.0  0.24837  0.05553  0.65365  1.0000
  H   H142      1.0  0.29504  0.03757  0.68599  1.0000
  H   H143      1.0  0.32641  0.11567  0.70815  1.0000
  H   H144      1.0  0.27933  0.13363  0.67616  1.0000
  N   N7        1.0  0.39421  0.03798  0.61047  1.0000
  C   C94       1.0  0.40516  0.04223  0.64254  1.0000
  H   H145      1.0  0.29389  0.31183  0.71248  1.0000
  C   C95       1.0  0.42667  0.03361  0.59222  1.0000
  C   C96       1.0  0.07125  0.20300  0.51451  1.0000
  H   H146      1.0  0.28460  0.16117  0.73269  1.0000
  C   C97       1.0  0.43275  0.06392  0.64734  1.0000
  H   H147      1.0  0.15597  0.28237  0.51724  1.0000
  H   H148      1.0  0.27276  0.03921  0.74293  1.0000
  C   C98       1.0  0.43392  0.07310  0.67981  1.0000
  C   C99       1.0  0.15940  0.26362  0.50650  1.0000
  H   H149      1.0  0.41610  0.02384  0.65205  1.0000
  H   H150      1.0  0.38267  0.04659  0.65712  1.0000
  H   H151      1.0  0.25314  0.28884  0.80507  1.0000
  H   H152      1.0  0.41289  0.00505  0.55748  1.0000
  H   H153      1.0  0.44302  0.05152  0.59209  1.0000
  H   H154      1.0  0.26122  0.17329  0.76502  1.0000
  H   H155      1.0  0.36871  0.08881  0.63479  1.0000
  H   H156      1.0  0.45882  0.05620  0.64162  1.0000
  H   H157      1.0  0.42769  0.08114  0.63293  1.0000
  H   H158      1.0  0.33447  0.01719  0.85195  1.0000
  H   H159      1.0  0.08067  0.14409  0.58137  1.0000
  H   H160      1.0  0.20559  0.16003  0.74147  1.0000
  H   H161      1.0  0.43990  0.05649  0.69489  1.0000
  H   H162      1.0  0.45438  0.08816  0.68252  1.0000
  H   H163      1.0  0.40871  0.08180  0.68640  1.0000
  H   H164      1.0  0.12099  0.11614  0.80419  1.0000
  H   H165      1.0  0.06933  0.28463  0.91632  1.0000
  H   H166      1.0  0.06879  0.18197  0.70389  1.0000
  H   H167      1.0  0.31465  0.10888  0.61864  1.0000
  H   H168      1.0  0.13623  0.08843  0.73339  1.0000
  H   H169      1.0  0.33514  0.06494  0.63331  1.0000
  H   H170      1.0  0.08677  0.17756  0.54996  1.0000
  H   H171      1.0  0.14953  0.09802  0.66638  1.0000
  H   H172      1.0  0.06914  0.24340  0.88565  1.0000
  H   H173      1.0  0.25562  0.24407  0.70417  1.0000
  N   N8        1.0  0.20576  0.10436  0.74718  1.0000
  C   C100      1.0  0.18423  0.10853  0.71937  1.0000
  C   C101      1.0  0.23562  0.12359  0.74808  1.0000
  C   C102      1.0  0.22059  0.07704  0.74557  1.0000
  C   C103      1.0  0.18422  0.10635  0.77521  1.0000
  C   C104      1.0  0.16525  0.13259  0.78036  1.0000
  H   H174      1.0  0.23766  0.07144  0.79237  1.0000
  C   C105      1.0  0.24832  0.06990  0.76945  1.0000
  C   C106      1.0  0.22978  0.15085  0.73366  1.0000
  C   C107      1.0  0.25967  0.16948  0.74061  1.0000
  C   C108      1.0  0.14151  0.13108  0.80764  1.0000
  C   C109      1.0  0.26252  0.28041  0.72846  1.0000
  C   C110      1.0  0.26097  0.04181  0.76536  1.0000
  H   H175      1.0  0.28105  0.03728  0.78237  1.0000
  H   H176      1.0  0.17279  0.12834  0.71883  1.0000
  H   H177      1.0  0.24469  0.12649  0.77151  1.0000
  H   H178      1.0  0.25835  0.11560  0.73596  1.0000
  H   H179      1.0  0.23262  0.07377  0.72322  1.0000
  C   C111      1.0  0.25508  0.26787  0.53317  1.0000
  H   H180      1.0  0.16488  0.09025  0.77616  1.0000
  H   H181      1.0  0.20071  0.10347  0.79529  1.0000
  C   C112      1.0  0.03305  0.30105  0.86646  1.0000
  H   H182      1.0  0.18435  0.14831  0.78488  1.0000
  C   C113      1.0  0.07284  0.23221  0.90670  1.0000
  H   H183      1.0  0.23928  0.02773  0.76800  1.0000
  H   H184      1.0  0.34494  0.10963  0.58809  1.0000
  C   C114      1.0  0.49085  0.00890  0.83364  1.0000
  H   H185      1.0  0.20122  0.10762  0.69936  1.0000
  H   H186      1.0  0.45067  0.02169  0.51783  1.0000
  C   C115      1.0  0.37467  0.06097  0.59751  1.0000
  C   C116      1.0  0.07502  0.12715  0.56671  1.0000
  S   S31       1.0  0.35438  0.99916  0.77516  1.0000
  C   C117      1.0  0.32157  0.98608  0.62548  1.0000
  C   C118      1.0  0.22654  0.19210  0.94165  1.0000
  H   H187      1.0  0.22559  0.21364  0.93847  1.0000
  H   H188      1.0  0.31945  0.02667  0.61433  1.0000
  H   H189      1.0  0.30995  0.08595  0.58848  1.0000
  H   H190      1.0  0.02081  0.22037  0.73680  1.0000
  H   H191      1.0  0.35767  0.05429  0.57888  1.0000
  H   H192      1.0  0.47543  0.01557  0.55118  1.0000
  C   C119      1.0  0.27826  0.29332  0.48865  1.0000
  C   C120      1.0  0.15408  0.08904  0.71401  1.0000
  H   H193      1.0  0.28424  0.26693  0.68617  1.0000
  C   C121      1.0  0.42131  0.02577  0.55900  1.0000
  H   H194      1.0  0.02441  0.14181  0.55874  1.0000
  H   H195      1.0  0.11223  0.08216  0.68242  1.0000
  H   H196      1.0  0.14893  0.13815  0.76101  1.0000
  H   H197      1.0  0.11078  0.14921  0.51576  1.0000
  H   H198      1.0  0.34095  0.01932  0.64916  1.0000
  H   H199      1.0  0.03984  0.10899  0.59883  1.0000
  H   H200      1.0  0.31568  0.29143  0.73814  1.0000
  C   C122      1.0  0.37292  0.01326  0.60874  1.0000
  C   C123      1.0  0.50205  0.98381  0.88874  1.0000
  H   H201      1.0  0.16416  0.06909  0.70973  1.0000
  S   S32       1.0  0.34875  0.98789  0.70345  1.0000
  H   H202      1.0  0.10338  0.27092  0.93773  1.0000
  C   C124      1.0  0.04580  0.13441  0.54445  1.0000
  H   H203      1.0  0.28405  0.26285  0.84231  1.0000
  H   H204      1.0  0.29854  0.24870  0.71874  1.0000
  H   H205      1.0  0.46426  0.04869  0.54088  1.0000
  C   C125      1.0  0.06055  0.19355  0.72365  1.0000
  C   C126      1.0  0.33794  0.01330  0.62558  1.0000
  H   H206      1.0  0.25298  0.27113  0.74919  1.0000
  C   C127      1.0  0.45501  0.02813  0.54124  1.0000
  H   H207      1.0  0.37656  0.04658  0.87559  1.0000
  H   H208      1.0  0.08169  0.20749  0.72925  1.0000
  H   H209      1.0  0.09923  0.12134  0.55523  1.0000
  C   C128      1.0  0.06359  0.17958  0.53532  1.0000
  C   C129      1.0  0.07478  0.27388  0.93728  1.0000
  H   H210      1.0  0.12019  0.11614  0.69014  1.0000
  C   C130      1.0  0.29058  0.30157  0.73428  1.0000
  H   H211      1.0  0.48134  0.00549  0.66669  1.0000
  H   H212      1.0  0.27809  0.19150  0.95894  1.0000
  C   C131      1.0  0.02814  0.18279  0.61088  1.0000
  C   C132      1.0  0.08653  0.14357  0.50381  1.0000
  H   H213      1.0  0.20018  0.18489  0.94723  1.0000
  H   H214      1.0  0.08069  0.24475  0.51720  1.0000
  C   C133      1.0  0.06419  0.10436  0.58675  1.0000
  H   H215      1.0  0.14010  0.19988  0.97087  1.0000
  H   H216      1.0  0.06040  0.08635  0.57331  1.0000
  H   H217      1.0  0.06044  0.23437  0.95318  1.0000
  H   H218      1.0  0.05987  0.21295  0.90422  1.0000
  H   H219      1.0  0.09663  0.20021  0.50346  1.0000
  H   H220      1.0  0.19971  0.06217  0.74773  1.0000
  H   H221      1.0  0.01806  0.29930  0.93812  1.0000
  H   H222      1.0  0.08474  0.10065  0.60361  1.0000
  H   H223      1.0  0.04229  0.18524  0.55048  1.0000
  H   H224      1.0  0.23470  0.18300  0.92025  1.0000
  H   H225      1.0  0.10095  0.22882  0.91025  1.0000
  H   H226      1.0  0.29258  0.29708  0.84834  1.0000
  C   C134      1.0  0.27625  0.25878  0.70813  1.0000
  C   C135      1.0  0.14914  0.21775  0.98118  1.0000
  C   C136      1.0  0.38456  0.02644  0.86950  1.0000
  H   H227      1.0  0.39755  0.02706  0.84732  1.0000
  H   H228      1.0  0.26507  0.28286  0.54893  1.0000
  C   C137      1.0  0.28145  0.28646  0.80207  1.0000
  C   C138      1.0  0.02780  0.16086  0.62948  1.0000
  C   C139      1.0  0.05723  0.24692  0.93319  1.0000
  H   H229      1.0  0.03615  0.11596  0.53409  1.0000
  C   C140      1.0  0.02735  0.20865  0.71674  1.0000
  H   H230      1.0  0.48696  0.01860  0.81241  1.0000
  H   H231      1.0  0.23992  0.28936  0.71710  1.0000
  C   C141      1.0  0.48556  0.99589  0.64547  1.0000
  H   H232      1.0  0.38853  0.99636  0.61692  1.0000
  H   H233      1.0  0.27473  0.25225  0.53027  1.0000
  H   H234      1.0  0.25188  0.16332  0.96864  1.0000
  C   C142      1.0  0.25213  0.18488  0.96640  1.0000
  H   H235      1.0  0.04814  0.23298  0.54286  1.0000
  H   H236      1.0  0.08641  0.12177  0.50367  1.0000
  C   C143      1.0  0.02436  0.15611  0.49974  1.0000
  C   C144      1.0  0.35282  0.00857  0.86836  1.0000
  H   H237      1.0  0.32633  0.30621  0.78608  1.0000
  C   C145      1.0  0.29845  0.31114  0.78844  1.0000
  H   H238      1.0  0.05606  0.28917  0.86515  1.0000
  C   C146      1.0  0.16995  0.26242  0.97609  1.0000
  H   H239      1.0  0.29672  0.98655  0.63796  1.0000
  H   H240      1.0  0.23528  0.26454  0.48872  1.0000
  H   H241      1.0  0.23040  0.30908  0.76688  1.0000
  H   H242      1.0  0.40339  0.01937  0.88646  1.0000
  H   H243      1.0  0.02931  0.24954  0.92823  1.0000
  H   H244      1.0  0.29983  0.27891  0.48857  1.0000
  H   H245      1.0  0.22536  0.29484  0.50708  1.0000
  C   C147      1.0  0.24603  0.28022  0.50305  1.0000
  H   H246      1.0  0.34022  0.00855  0.89064  1.0000
  H   H247      1.0  0.11285  0.31019  0.96774  1.0000
  C   C148      1.0  0.46996  0.98761  0.84138  1.0000
  H   H248      1.0  0.29360  0.98662  0.85983  1.0000
  C   C149      1.0  0.02581  0.29693  0.96200  1.0000
  H   H249      1.0  0.01826  0.13651  0.49017  1.0000
  H   H250      1.0  0.28657  0.30886  0.50448  1.0000
  H   H251      1.0  0.35884  0.20288  0.98210  1.0000
  H   H252      1.0  0.31441  0.16757  0.98549  1.0000
  S   S33       1.0  0.35922  0.48752  0.20925  1.0000
  S   S34       1.0  0.41022  0.45335  0.25138  1.0000
  Fe  Fe18      1.0  0.41682  0.48049  0.21185  1.0000
  S   S35       1.0  0.44606  0.46489  0.17039  1.0000
  Fe  Fe19      1.0  0.35342  0.46324  0.25120  1.0000
  S   S36       1.0  0.30530  0.43635  0.25255  1.0000
  C   C150      1.0  0.42638  0.51115  0.01172  1.0000
  S   S37       1.0  0.15245  0.33869  0.38622  1.0000
  Fe  Fe20      1.0  0.19497  0.32955  0.35321  1.0000
  S   S38       1.0  0.24270  0.35665  0.35030  1.0000
  H   H253      1.0  0.36244  0.61936  0.24400  1.0000
  H   H254      1.0  0.49214  0.49021  0.00455  1.0000
  C   C151      1.0  0.28855  0.41421  0.28009  1.0000
  C   C152      1.0  0.25866  0.39945  0.27342  1.0000
  C   C153      1.0  0.24410  0.38195  0.29450  1.0000
  C   C154      1.0  0.25939  0.37877  0.32268  1.0000
  C   C155      1.0  0.28933  0.39349  0.32932  1.0000
  C   C156      1.0  0.30377  0.41108  0.30829  1.0000
  H   H255      1.0  0.24673  0.40144  0.25167  1.0000
  H   H256      1.0  0.22122  0.37079  0.28887  1.0000
  H   H257      1.0  0.30151  0.39126  0.35093  1.0000
  H   H258      1.0  0.32673  0.42217  0.31388  1.0000
  C   C157      1.0  0.47836  0.47586  0.14460  1.0000
  C   C158      1.0  0.49140  0.45814  0.12326  1.0000
  S   S39       1.0  0.24122  0.61076  0.13415  1.0000
  H   H259      1.0  0.42573  0.51239  0.39357  1.0000
  H   H260      1.0  0.39412  0.50038  0.41976  1.0000
  C   C159      1.0  0.44557  0.50706  0.43853  1.0000
  C   C160      1.0  0.46363  0.45683  0.02167  1.0000
  Fe  Fe21      1.0  0.36861  0.52160  0.23962  1.0000
  S   S40       1.0  0.33796  0.56028  0.23604  1.0000
  Fe  Fe22      1.0  0.41785  0.48922  0.28031  1.0000
  S   S41       1.0  0.44940  0.48058  0.32331  1.0000
  S   S42       1.0  0.42712  0.51604  0.24063  1.0000
  S   S43       1.0  0.36040  0.49770  0.28166  1.0000
  H   H261      1.0  0.19933  0.62635  0.27868  1.0000
  H   H262      1.0  0.25264  0.63921  0.25210  1.0000
  C   C161      1.0  0.47891  0.49514  0.34924  1.0000
  H   H263      1.0  0.45409  0.48690  0.43315  1.0000
  H   H264      1.0  0.09550  0.60618  0.08987  1.0000
  H   H265      1.0  0.48456  0.45945  0.37436  1.0000
  C   C162      1.0  0.21712  0.36571  0.43645  1.0000
  C   C163      1.0  0.49350  0.54363  0.01900  1.0000
  C   C164      1.0  0.48799  0.43920  0.00396  1.0000
  C   C165      1.0  0.47891  0.48469  0.02563  1.0000
  H   H266      1.0  0.07469  0.57761  0.07478  1.0000
  C   C166      1.0  0.41128  0.51486  0.07959  1.0000
  C   C167      1.0  0.26711  0.59660  0.16316  1.0000
  C   C168      1.0  0.26508  0.60462  0.19303  1.0000
  C   C169      1.0  0.28625  0.59277  0.21502  1.0000
  C   C170      1.0  0.31017  0.57306  0.20754  1.0000
  C   C171      1.0  0.31201  0.56491  0.17772  1.0000
  C   C172      1.0  0.29053  0.57650  0.15580  1.0000
  H   H267      1.0  0.24701  0.61981  0.19915  1.0000
  H   H268      1.0  0.28417  0.59888  0.23804  1.0000
  H   H269      1.0  0.33050  0.55005  0.17140  1.0000
  H   H270      1.0  0.29245  0.57010  0.13281  1.0000
  H   H271      1.0  0.23023  0.33049  0.41343  1.0000
  H   H272      1.0  0.37155  0.48659  0.09256  1.0000
  H   H273      1.0  0.40584  0.49091  0.11972  1.0000
  H   H274      1.0  0.50120  0.57985  0.04399  1.0000
  H   H275      1.0  0.26635  0.35127  0.42217  1.0000
  H   H276      1.0  0.37024  0.36157  0.45949  1.0000
  C   C173      1.0  0.47290  0.52973  0.04401  1.0000
  H   H277      1.0  0.22177  0.31973  0.46682  1.0000
  H   H278      1.0  0.40372  0.49779  0.01406  1.0000
  H   H279      1.0  0.30739  0.35456  0.46179  1.0000
  H   H280      1.0  0.41916  0.47791  0.05779  1.0000
  H   H281      1.0  0.37315  0.51564  0.11530  1.0000
  H   H282      1.0  0.40747  0.53438  0.42069  1.0000
  H   H283      1.0  0.43828  0.45738  0.01002  1.0000
  H   H284      1.0  0.48942  0.47377  0.47056  1.0000
  H   H285      1.0  0.04941  0.60163  0.09444  1.0000
  H   H286      1.0  0.10755  0.64275  0.00561  1.0000
  C   C174      1.0  0.30747  0.31362  0.44581  1.0000
  C   C175      1.0  0.13787  0.32893  0.24352  1.0000
  H   H287      1.0  0.45477  0.48847  0.07983  1.0000
  C   C176      1.0  0.41630  0.51400  0.41698  1.0000
  H   H288      1.0  0.19169  0.35839  0.44457  1.0000
  C   C177      1.0  0.32437  0.33711  0.46221  1.0000
  H   H289      1.0  0.46736  0.52058  0.43392  1.0000
  H   H290      1.0  0.30812  0.63728  0.26342  1.0000
  H   H291      1.0  0.31426  0.64536  0.22433  1.0000
  S   S44       1.0  0.15739  0.31537  0.31822  1.0000
  H   H292      1.0  0.48195  0.43822  0.12322  1.0000
  H   H293      1.0  0.48098  0.51549  0.16032  1.0000
  H   H294      1.0  0.21284  0.37641  0.41514  1.0000
  C   C178      1.0  0.24189  0.34296  0.43100  1.0000
  H   H295      1.0  0.13207  0.34088  0.22341  1.0000
  H   H296      1.0  0.04128  0.60466  0.03985  1.0000
  H   H297      1.0  0.45500  0.54493  0.05260  1.0000
  H   H298      1.0  0.35399  0.35088  0.42377  1.0000
  Fe  Fe23      1.0  0.11554  0.32135  0.35266  1.0000
  C   C179      1.0  0.49083  0.50156  0.14426  1.0000
  H   H299      1.0  0.13417  0.34121  0.26373  1.0000
  H   H300      1.0  0.46820  0.55536  0.46800  1.0000
  H   H301      1.0  0.01782  0.33722  0.26936  1.0000
  Fe  Fe24      1.0  0.20078  0.64384  0.13024  1.0000
  C   C180      1.0  0.07161  0.59885  0.07898  1.0000
  N   N9        1.0  0.45333  0.50531  0.03535  1.0000
  C   C181      1.0  0.06284  0.64325  0.05397  1.0000
  C   C182      1.0  0.21555  0.64256  0.28748  1.0000
  H   H302      1.0  0.37707  0.32828  0.44775  1.0000
  C   C183      1.0  0.02498  0.32776  0.35289  1.0000
  C   C184      1.0  0.38913  0.50107  0.10316  1.0000
  H   H303      1.0  0.50699  0.51610  0.47079  1.0000
  H   H304      1.0  0.30540  0.31866  0.42162  1.0000
  S   S45       1.0  0.07026  0.63934  0.14364  1.0000
  H   H305      1.0  0.06996  0.32712  0.23213  1.0000
  H   H306      1.0  0.42155  0.52837  0.47530  1.0000
  H   H307      1.0  0.41564  0.53111  0.01515  1.0000
  C   C185      1.0  0.24773  0.32702  0.46008  1.0000
  H   H308      1.0  0.25537  0.34072  0.47824  1.0000
  C   C186      1.0  0.43535  0.49529  0.06317  1.0000
  H   H309      1.0  0.47896  0.53355  0.32978  1.0000
  H   H310      1.0  0.47603  0.41962  0.00111  1.0000
  H   H311      1.0  0.42694  0.52975  0.09161  1.0000
  H   H312      1.0  0.45968  0.44761  0.04393  1.0000
  N   N10       1.0  0.23425  0.50354  0.22012  1.0000
  C   C187      1.0  0.20533  0.48750  0.23363  1.0000
  C   C188      1.0  0.21996  0.52794  0.20542  1.0000
  C   C189      1.0  0.25110  0.48695  0.19620  1.0000
  C   C190      1.0  0.26165  0.51037  0.24290  1.0000
  C   C191      1.0  0.24947  0.52635  0.27030  1.0000
  C   C192      1.0  0.21627  0.46172  0.24929  1.0000
  C   C193      1.0  0.27643  0.50130  0.17474  1.0000
  C   C194      1.0  0.18819  0.54123  0.22029  1.0000
  C   C195      1.0  0.18122  0.56810  0.20660  1.0000
  C   C196      1.0  0.27718  0.52722  0.29464  1.0000
  C   C197      1.0  0.18489  0.44761  0.26251  1.0000
  C   C198      1.0  0.29278  0.48224  0.15256  1.0000
  H   H313      1.0  0.18606  0.48245  0.21597  1.0000
  H   H314      1.0  0.19056  0.49879  0.25043  1.0000
  H   H315      1.0  0.24084  0.54286  0.20284  1.0000
  H   H316      1.0  0.21093  0.52347  0.18230  1.0000
  H   H317      1.0  0.23099  0.47751  0.18192  1.0000
  H   H318      1.0  0.26613  0.47069  0.20651  1.0000
  H   H319      1.0  0.27509  0.49244  0.25093  1.0000
  H   H320      1.0  0.28257  0.52209  0.23244  1.0000
  H   H321      1.0  0.22594  0.51796  0.28066  1.0000
  H   H322      1.0  0.24438  0.54683  0.26340  1.0000
  H   H323      1.0  0.22870  0.44809  0.23330  1.0000
  H   H324      1.0  0.23453  0.46559  0.26793  1.0000
  H   H325      1.0  0.29752  0.51083  0.18737  1.0000
  H   H326      1.0  0.26312  0.51658  0.16143  1.0000
  H   H327      1.0  0.16472  0.52905  0.21663  1.0000
  H   H328      1.0  0.19143  0.54387  0.24465  1.0000
  H   H329      1.0  0.15692  0.57631  0.21593  1.0000
  H   H330      1.0  0.20270  0.58172  0.21195  1.0000
  H   H331      1.0  0.17844  0.56672  0.18191  1.0000
  H   H332      1.0  0.26772  0.53886  0.31390  1.0000
  H   H333      1.0  0.28329  0.50717  0.30262  1.0000
  H   H334      1.0  0.30113  0.53657  0.28608  1.0000
  H   H335      1.0  0.19345  0.42938  0.27377  1.0000
  H   H336      1.0  0.17183  0.46009  0.27939  1.0000
  H   H337      1.0  0.16618  0.44233  0.24464  1.0000
  H   H338      1.0  0.30669  0.46638  0.16454  1.0000
  H   H339      1.0  0.27262  0.47346  0.13797  1.0000
  H   H340      1.0  0.31170  0.49282  0.13828  1.0000
  H   H341      1.0  0.39369  0.52490  0.06370  1.0000
  H   H342      1.0  0.22813  0.37952  0.45307  1.0000
  H   H343      1.0  0.16542  0.32277  0.24251  1.0000
  C   C199      1.0  0.43342  0.50883  0.47156  1.0000
  C   C200      1.0  0.49240  0.47970  0.37262  1.0000
  H   H344      1.0  0.49104  0.52525  0.06270  1.0000
  C   C201      1.0  0.06508  0.61312  0.04953  1.0000
  C   C202      1.0  0.36079  0.64052  0.24948  1.0000
  C   C203      1.0  0.35851  0.34484  0.44733  1.0000
  H   H345      1.0  0.51021  0.52996  0.00651  1.0000
  H   H346      1.0  0.04161  0.62689  0.99740  1.0000
  H   H347      1.0  0.47537  0.55319  0.00316  1.0000
  C   C204      1.0  0.48911  0.52135  0.34748  1.0000
  H   H348      1.0  0.08670  0.60836  0.03414  1.0000
  S   S46       1.0  0.06431  0.33787  0.33611  1.0000
  H   H349      1.0  0.41168  0.49469  0.47385  1.0000
  H   H350      1.0  0.50032  0.48308  0.04219  1.0000
  H   H351      1.0  0.07533  0.32369  0.27118  1.0000
  H   H352      1.0  0.37102  0.64342  0.27246  1.0000
  H   H353      1.0  0.23319  0.63456  0.30483  1.0000
  S   S47       1.0  0.15607  0.63886  0.09818  1.0000
  H   H354      1.0  0.31611  0.59750  0.47493  1.0000
  H   H355      1.0  0.50893  0.58855  0.48535  1.0000
  H   H356      1.0  0.33005  0.33213  0.48584  1.0000
  S   S48       1.0  0.36133  0.48922  0.70386  1.0000
  S   S49       1.0  0.41849  0.45781  0.74365  1.0000
  Fe  Fe25      1.0  0.41870  0.48161  0.70105  1.0000
  S   S50       1.0  0.44684  0.46415  0.66036  1.0000
  Fe  Fe26      1.0  0.36206  0.46875  0.74868  1.0000
  S   S51       1.0  0.31185  0.44488  0.75525  1.0000
  H   H357      1.0  0.34930  0.38753  0.75050  1.0000
  S   S52       1.0  0.16723  0.33937  0.88970  1.0000
  Fe  Fe27      1.0  0.20663  0.33240  0.85343  1.0000
  S   S53       1.0  0.25573  0.35726  0.84597  1.0000
  H   H358      1.0  0.48467  0.42303  0.50735  1.0000
  H   H359      1.0  0.30215  0.59015  0.54214  1.0000
  C   C205      1.0  0.29631  0.42153  0.78179  1.0000
  C   C206      1.0  0.26180  0.41269  0.77959  1.0000
  C   C207      1.0  0.24855  0.39358  0.79940  1.0000
  C   C208      1.0  0.26982  0.38281  0.82158  1.0000
  C   C209      1.0  0.30424  0.39178  0.82385  1.0000
  C   C210      1.0  0.31739  0.41103  0.80422  1.0000
  H   H360      1.0  0.24519  0.42061  0.76237  1.0000
  H   H361      1.0  0.22203  0.38700  0.79734  1.0000
  H   H362      1.0  0.32096  0.38366  0.84089  1.0000
  H   H363      1.0  0.34393  0.41755  0.80627  1.0000
  C   C211      1.0  0.47597  0.47829  0.63392  1.0000
  H   H364      1.0  0.46162  0.48767  0.90377  1.0000
  S   S54       1.0  0.23095  0.60617  0.63293  1.0000
  C   C212      1.0  0.35765  0.37012  0.73757  1.0000
  C   C213      1.0  0.30802  0.62321  0.58766  1.0000
  C   C214      1.0  0.21017  0.61441  0.53021  1.0000
  C   C215      1.0  0.18939  0.34383  0.74134  1.0000
  Fe  Fe28      1.0  0.37494  0.52540  0.72948  1.0000
  S   S55       1.0  0.34710  0.56489  0.72420  1.0000
  Fe  Fe29      1.0  0.43097  0.49592  0.76698  1.0000
  S   S56       1.0  0.48137  0.50000  0.79483  1.0000
  S   S57       1.0  0.43245  0.51921  0.72390  1.0000
  S   S58       1.0  0.37441  0.50548  0.77467  1.0000
  H   H365      1.0  0.40595  0.54070  0.96157  1.0000
  H   H366      1.0  0.42946  0.48502  0.58101  1.0000
  H   H367      1.0  0.18241  0.35317  0.76294  1.0000
  H   H368      1.0  0.23805  0.36336  0.73801  1.0000
  H   H369      1.0  0.27068  0.58787  0.51313  1.0000
  C   C216      1.0  0.01448  0.58474  0.60808  1.0000
  C   C217      1.0  0.48008  0.50533  0.63091  1.0000
  H   H370      1.0  0.48866  0.47582  0.72265  1.0000
  H   H371      1.0  0.46528  0.51829  0.64504  1.0000
  H   H372      1.0  0.46769  0.55782  0.50809  1.0000
  H   H373      1.0  0.29504  0.36168  0.76802  1.0000
  C   C218      1.0  0.29473  0.59808  0.52007  1.0000
  C   C219      1.0  0.26252  0.59488  0.65912  1.0000
  C   C220      1.0  0.28035  0.57147  0.65307  1.0000
  C   C221      1.0  0.30615  0.56196  0.67266  1.0000
  C   C222      1.0  0.31447  0.57572  0.69874  1.0000
  C   C223      1.0  0.29665  0.59914  0.70476  1.0000
  C   C224      1.0  0.27084  0.60866  0.68517  1.0000
  H   H374      1.0  0.27439  0.56070  0.63291  1.0000
  H   H375      1.0  0.31999  0.54422  0.66740  1.0000
  H   H376      1.0  0.30293  0.61006  0.72475  1.0000
  H   H377      1.0  0.25756  0.62674  0.69015  1.0000
  S   S59       1.0  0.07561  0.34322  0.85326  1.0000
  H   H378      1.0  0.13908  0.46424  0.76349  1.0000
  H   H379      1.0  0.20809  0.57211  0.53592  1.0000
  C   C225      1.0  0.40706  0.49193  0.56757  1.0000
  H   H380      1.0  0.17791  0.35551  0.72292  1.0000
  H   H381      1.0  0.17858  0.59010  0.55960  1.0000
  H   H382      1.0  0.29148  0.60610  0.59268  1.0000
  C   C226      1.0  0.28895  0.62814  0.52066  1.0000
  H   H383      1.0  0.43565  0.52800  0.52754  1.0000
  S   S60       1.0  0.15031  0.63539  0.59722  1.0000
  H   H384      1.0  0.44224  0.48809  0.97235  1.0000
  H   H385      1.0  0.08303  0.36965  0.95664  1.0000
  H   H386      1.0  0.39136  0.49554  0.52169  1.0000
  H   H387      1.0  0.41901  0.51722  0.93382  1.0000
  C   C227      1.0  0.09817  0.35859  0.93978  1.0000
  C   C228      1.0  0.24591  0.32706  0.76335  1.0000
  C   C229      1.0  0.23787  0.62027  0.55449  1.0000
  H   H388      1.0  0.16947  0.58646  0.52028  1.0000
  C   C230      1.0  0.41028  0.51957  0.95734  1.0000
  C   C231      1.0  0.50063  0.56357  0.69503  1.0000
  C   C232      1.0  0.03530  0.32784  0.86073  1.0000
  H   H389      1.0  0.38552  0.50879  0.96020  1.0000
  H   H390      1.0  0.47883  0.46280  0.53798  1.0000
  C   C233      1.0  0.47305  0.47553  0.49097  1.0000
  N   N11       1.0  0.23835  0.50882  0.72517  1.0000
  C   C234      1.0  0.25227  0.50948  0.75673  1.0000
  C   C235      1.0  0.20940  0.48891  0.72266  1.0000
  C   C236      1.0  0.26749  0.50009  0.70496  1.0000
  C   C237      1.0  0.22664  0.53540  0.71462  1.0000
  C   C238      1.0  0.19912  0.54937  0.73389  1.0000
  C   C239      1.0  0.28268  0.52855  0.76263  1.0000
  C   C240      1.0  0.25779  0.49570  0.67157  1.0000
  C   C241      1.0  0.18585  0.48483  0.75044  1.0000
  C   C242      1.0  0.15492  0.46733  0.74305  1.0000
  C   C243      1.0  0.19362  0.57743  0.72309  1.0000
  C   C244      1.0  0.29175  0.52948  0.79588  1.0000
  C   C245      1.0  0.28814  0.48423  0.65407  1.0000
  H   H391      1.0  0.26116  0.48955  0.76336  1.0000
  H   H392      1.0  0.23179  0.51462  0.77301  1.0000
  H   H393      1.0  0.19245  0.49356  0.70322  1.0000
  H   H394      1.0  0.22023  0.46909  0.71805  1.0000
  H   H395      1.0  0.27902  0.48160  0.71362  1.0000
  H   H396      1.0  0.28886  0.51466  0.70491  1.0000
  H   H397      1.0  0.24921  0.54873  0.71204  1.0000
  H   H398      1.0  0.21528  0.53410  0.69182  1.0000
  H   H399      1.0  0.20681  0.55042  0.75772  1.0000
  H   H400      1.0  0.17393  0.53911  0.73187  1.0000
  H   H401      1.0  0.30616  0.52203  0.75058  1.0000
  H   H402      1.0  0.27629  0.54874  0.75557  1.0000
  H   H403      1.0  0.25083  0.51448  0.66072  1.0000
  H   H404      1.0  0.23572  0.48201  0.66912  1.0000
  H   H405      1.0  0.20074  0.47501  0.76853  1.0000
  H   H406      1.0  0.17580  0.50349  0.75935  1.0000
  H   H407      1.0  0.35173  0.32832  0.73777  1.0000
  H   H408      1.0  0.16383  0.44795  0.73493  1.0000
  H   H409      1.0  0.21761  0.58911  0.72626  1.0000
  H   H410      1.0  0.18635  0.57781  0.69903  1.0000
  H   H411      1.0  0.17254  0.58673  0.73615  1.0000
  H   H412      1.0  0.29902  0.50972  0.80406  1.0000
  H   H413      1.0  0.31411  0.54284  0.79932  1.0000
  H   H414      1.0  0.26953  0.53691  0.80912  1.0000
  H   H415      1.0  0.31032  0.49804  0.65392  1.0000
  H   H416      1.0  0.29651  0.46537  0.66404  1.0000
  H   H417      1.0  0.28019  0.48066  0.63056  1.0000
  H   H418      1.0  0.46628  0.50638  0.54284  1.0000
  H   H419      1.0  0.24845  0.60143  0.56256  1.0000
  H   H420      1.0  0.42021  0.46891  0.52927  1.0000
  C   C246      1.0  0.08264  0.33144  0.93502  1.0000
  C   C247      1.0  0.22869  0.34282  0.73772  1.0000
  H   H421      1.0  0.40117  0.51246  0.57378  1.0000
  C   C248      1.0  0.32299  0.59065  0.49775  1.0000
  C   C249      1.0  0.41500  0.48974  0.53418  1.0000
  H   H422      1.0  0.48434  0.42847  0.71449  1.0000
  H   H423      1.0  0.32966  0.61704  0.57296  1.0000
  H   H424      1.0  0.23486  0.33425  0.71559  1.0000
  C   C250      1.0  0.09464  0.62899  0.96150  1.0000
  H   H425      1.0  0.29398  0.35357  0.72947  1.0000
  H   H426      1.0  0.50730  0.52263  0.73334  1.0000
  C   C251      1.0  0.48032  0.49220  0.88653  1.0000
  C   C252      1.0  0.50720  0.43659  0.72639  1.0000
  N   N12       1.0  0.26634  0.63884  0.54535  1.0000
  H   H427      1.0  0.22364  0.62830  0.57408  1.0000
  H   H428      1.0  0.49201  0.44082  0.61688  1.0000
  H   H429      1.0  0.09755  0.36958  0.91834  1.0000
  Fe  Fe30      1.0  0.12776  0.32276  0.85777  1.0000
  N   N13       1.0  0.46086  0.50337  0.49471  1.0000
  C   C253      1.0  0.49312  0.49899  0.83361  1.0000
  H   H430      1.0  0.02102  0.31647  0.97218  1.0000
  H   H431      1.0  0.38432  0.47957  0.57323  1.0000
  C   C254      1.0  0.50702  0.43647  0.51020  1.0000
  C   C255      1.0  0.43792  0.50885  0.97847  1.0000
  C   C256      1.0  0.44571  0.50778  0.52540  1.0000
  C   C257      1.0  0.19044  0.58919  0.53699  1.0000
  H   H432      1.0  0.48511  0.55317  0.67785  1.0000
  H   H433      1.0  0.13832  0.47658  0.72575  1.0000
  H   H434      1.0  0.17812  0.32390  0.74055  1.0000
  S   S61       1.0  0.06275  0.63907  0.64675  1.0000
  H   H435      1.0  0.46230  0.51942  0.97384  1.0000
  H   H436      1.0  0.04126  0.59159  0.60346  1.0000
  H   H437      1.0  0.19100  0.63055  0.52955  1.0000
  C   C258      1.0  0.46939  0.49323  0.85633  1.0000
  H   H438      1.0  0.05546  0.33393  0.92752  1.0000
  H   H439      1.0  0.34929  0.37245  0.71396  1.0000
  H   H440      1.0  0.38637  0.36920  0.73814  1.0000
  S   S62       1.0  0.16659  0.31896  0.82007  1.0000
  C   C259      1.0  0.32404  0.63215  0.61721  1.0000
  C   C260      1.0  0.30229  0.34621  0.75175  1.0000
  H   H441      1.0  0.33795  0.61558  0.62785  1.0000
  C   C261      1.0  0.49502  0.46177  0.61486  1.0000
  H   H442      1.0  0.44261  0.48951  0.85066  1.0000
  H   H443      1.0  0.22175  0.61278  0.50762  1.0000
  H   H444      1.0  0.30359  0.63881  0.63291  1.0000
  H   H445      1.0  0.31480  0.63783  0.52124  1.0000
  C   C262      1.0  0.49444  0.46410  0.51725  1.0000
  H   H446      1.0  0.27800  0.63319  0.49831  1.0000
  C   C263      1.0  0.28753  0.64567  0.57267  1.0000
  H   H447      1.0  0.48470  0.56611  0.71551  1.0000
  H   H448      1.0  0.32588  0.56907  0.49717  1.0000
  Fe  Fe31      1.0  0.19370  0.64127  0.63048  1.0000
  H   H449      1.0  0.12177  0.63066  0.95347  1.0000
  H   H450      1.0  0.50231  0.43540  0.75084  1.0000
  H   H451      1.0  0.50588  0.53656  0.60716  1.0000
  H   H452      1.0  0.12553  0.35705  0.94726  1.0000
  H   H453      1.0  0.35280  0.34354  0.77421  1.0000
  H   H454      1.0  0.09748  0.32208  0.91670  1.0000
  C   C264      1.0  0.50300  0.51561  0.60925  1.0000
  H   H455      1.0  0.34820  0.59935  0.50445  1.0000
  H   H456      1.0  0.24210  0.33851  0.78426  1.0000
  H   H457      1.0  0.09011  0.60852  0.96880  1.0000
  H   H458      1.0  0.50736  0.58322  0.68622  1.0000
  H   H459      1.0  0.01487  0.56315  0.61051  1.0000
  C   C265      1.0  0.34243  0.34517  0.75110  1.0000
  H   H460      1.0  0.49308  0.44759  0.98145  1.0000
  H   H461      1.0  0.07694  0.63377  0.94270  1.0000
  C   C266      1.0  0.49155  0.52141  0.49093  1.0000
  H   H462      1.0  0.07702  0.32757  0.98264  1.0000
  H   H463      1.0  0.50970  0.51113  0.69618  1.0000
  H   H464      1.0  0.50986  0.51899  0.50991  1.0000
  C   C267      1.0  0.08495  0.31463  0.96388  1.0000
  H   H465      1.0  0.29718  0.32697  0.80553  1.0000
  N   N14       1.0  0.28386  0.32092  0.75917  1.0000
  C   C268      1.0  0.48299  0.55104  0.48868  1.0000
  H   H466      1.0  0.45079  0.46214  0.48693  1.0000
  S   S63       1.0  0.21369  0.68338  0.11054  1.0000
  S   S64       1.0  0.13045  0.69813  0.11492  1.0000
  Fe  Fe32      1.0  0.16629  0.67972  0.08143  1.0000
  S   S65       1.0  0.16172  0.68522  0.03049  1.0000
  Fe  Fe33      1.0  0.17688  0.69888  0.14552  1.0000
  S   S66       1.0  0.19052  0.73600  0.17063  1.0000
  H   H467      1.0  0.32126  0.68882  0.19541  1.0000
  C   C269      1.0  0.21625  0.88845  0.23433  1.0000
  H   H468      1.0  0.32741  0.68019  0.27941  1.0000
  H   H469      1.0  0.41447  0.95708  0.44820  1.0000
  Fe  Fe34      1.0  0.36364  0.95831  0.25233  1.0000
  S   S67       1.0  0.34417  0.91715  0.26538  1.0000
  Fe  Fe35      1.0  0.18441  0.77390  0.33852  1.0000
  S   S68       1.0  0.16134  0.80923  0.31691  1.0000
  S   S69       1.0  0.19969  0.73819  0.31177  1.0000
  Fe  Fe36      1.0  0.17147  0.79372  0.40195  1.0000
  S   S70       1.0  0.14736  0.83100  0.38443  1.0000
  S   S71       1.0  0.17312  0.78747  0.45277  1.0000
  Fe  Fe37      1.0  0.11943  0.80530  0.35163  1.0000
  S   S72       1.0  0.06344  0.80254  0.33591  1.0000
  Fe  Fe38      1.0  0.19163  0.83222  0.35115  1.0000
  S   S73       1.0  0.21522  0.87272  0.34054  1.0000
  S   S74       1.0  0.14085  0.76829  0.37105  1.0000
  S   S75       1.0  0.21769  0.79668  0.37096  1.0000
  H   H470      1.0  0.03213  0.71790  0.42331  1.0000
  N   N15       1.0  0.02058  0.75639  0.44059  1.0000
  C   C270      1.0  0.32311  0.64939  0.24744  1.0000
  H   H471      1.0  0.05001  0.84351  0.38044  1.0000
  C   C271      1.0  0.08318  0.81636  0.44494  1.0000
  C   C272      1.0  0.30905  0.90564  0.28785  1.0000
  C   C273      1.0  0.30719  0.87884  0.29488  1.0000
  C   C274      1.0  0.27908  0.86845  0.31131  1.0000
  C   C275      1.0  0.25218  0.88474  0.32078  1.0000
  C   C276      1.0  0.25449  0.91167  0.31444  1.0000
  C   C277      1.0  0.28266  0.92208  0.29811  1.0000
  H   H472      1.0  0.32747  0.86591  0.28722  1.0000
  H   H473      1.0  0.27808  0.84780  0.31639  1.0000
  H   H474      1.0  0.23402  0.92455  0.32183  1.0000
  H   H475      1.0  0.28357  0.94272  0.29291  1.0000
  H   H476      1.0  0.06910  0.74027  0.07618  1.0000
  C   C278      1.0  0.15859  0.71465  0.00934  1.0000
  H   H477      1.0  0.05695  0.73318  0.34286  1.0000
  C   C279      1.0  0.25819  0.67831  0.27300  1.0000
  H   H478      1.0  0.33671  0.95706  0.32810  1.0000
  C   C280      1.0  0.16350  0.73377  0.46038  1.0000
  C   C281      1.0  0.16355  0.73929  0.02216  1.0000
  H   H479      1.0  0.23145  0.71472  0.03401  1.0000
  H   H480      1.0  0.44878  0.90306  0.32695  1.0000
  H   H481      1.0  0.16321  0.73233  0.43625  1.0000
  H   H482      1.0  0.16867  0.74089  0.04588  1.0000
  C   C282      1.0  0.18827  0.73711  0.21002  1.0000
  C   C283      1.0  0.19706  0.76039  0.22476  1.0000
  C   C284      1.0  0.19821  0.76146  0.25618  1.0000
  C   C285      1.0  0.19122  0.73903  0.27301  1.0000
  C   C286      1.0  0.18118  0.71603  0.25829  1.0000
  C   C287      1.0  0.17949  0.71509  0.22692  1.0000
  H   H483      1.0  0.20373  0.77742  0.21169  1.0000
  H   H484      1.0  0.20596  0.77926  0.26735  1.0000
  H   H485      1.0  0.17520  0.69873  0.27120  1.0000
  H   H486      1.0  0.17222  0.69717  0.21584  1.0000
  H   H487      1.0  0.13876  0.84476  0.15501  1.0000
  C   C288      1.0  0.03331  0.78433  0.43988  1.0000
  H   H488      1.0  0.24567  0.69698  0.21682  1.0000
  S   S76       1.0  0.46426  0.97909  0.18220  1.0000
  C   C289      1.0  0.28023  0.69324  0.16372  1.0000
  N   N16       1.0  0.19596  0.86329  0.23219  1.0000
  C   C290      1.0  0.17645  0.85936  0.26104  1.0000
  C   C291      1.0  0.02270  0.74528  0.47186  1.0000
  C   C292      1.0  0.05932  0.74269  0.48581  1.0000
  H   H489      1.0  0.25480  0.68443  0.03618  1.0000
  C   C293      1.0  0.14379  0.84319  0.20359  1.0000
  C   C294      1.0  0.14919  0.88060  0.26872  1.0000
  H   H490      1.0  0.06322  0.69202  0.07732  1.0000
  C   C295      1.0  0.24923  0.83677  0.25026  1.0000
  C   C296      1.0  0.27321  0.81432  0.24147  1.0000
  C   C297      1.0  0.21945  0.84013  0.22735  1.0000
  C   C298      1.0  0.12727  0.87260  0.29567  1.0000
  H   H491      1.0  0.11270  0.85432  0.29093  1.0000
  H   H492      1.0  0.19466  0.85897  0.28026  1.0000
  H   H493      1.0  0.16366  0.83987  0.26132  1.0000
  C   C299      1.0  0.16251  0.76197  0.00418  1.0000
  H   H494      1.0  0.02018  0.79555  0.42180  1.0000
  C   C300      1.0  0.25500  0.70433  0.02623  1.0000
  H   H495      1.0  0.07883  0.81873  0.46933  1.0000
  H   H496      1.0  0.06830  0.73897  0.42411  1.0000
  H   H497      1.0  0.29402  0.81236  0.25846  1.0000
  H   H498      1.0  0.12570  0.84383  0.22284  1.0000
  H   H499      1.0  0.30049  0.96987  0.37423  1.0000
  H   H500      1.0  0.16233  0.89926  0.27444  1.0000
  H   H501      1.0  0.13119  0.88423  0.24990  1.0000
  H   H502      1.0  0.22822  0.89414  0.18649  1.0000
  C   C301      1.0  0.04009  0.73859  0.41957  1.0000
  H   H503      1.0  0.26542  0.85456  0.25158  1.0000
  C   C302      1.0  0.25944  0.92048  0.21205  1.0000
  H   H504      1.0  0.04104  0.76500  0.38094  1.0000
  H   H505      1.0  0.33913  0.68995  0.24298  1.0000
  H   H506      1.0  0.08930  0.77487  0.44686  1.0000
  H   H507      1.0  0.04507  0.74629  0.25720  1.0000
  H   H508      1.0  0.28545  0.81828  0.21945  1.0000
  H   H509      1.0  0.15795  0.88427  0.20562  1.0000
  H   H510      1.0  0.25494  0.70334  0.16151  1.0000
  H   H511      1.0  0.18637  0.86463  0.18457  1.0000
  C   C303      1.0  0.16755  0.75823  0.47391  1.0000
  H   H512      1.0  0.27796  0.92380  0.19343  1.0000
  C   C304      1.0  0.05426  0.70284  0.05737  1.0000
  C   C305      1.0  0.07455  0.72846  0.05591  1.0000
  H   H513      1.0  0.05177  0.70634  0.36874  1.0000
  H   H514      1.0  0.23867  0.69301  0.28008  1.0000
  H   H515      1.0  0.25874  0.79561  0.24032  1.0000
  H   H516      1.0  0.23094  0.84064  0.20453  1.0000
  C   C306      1.0  0.05997  0.68618  0.02894  1.0000
  N   N17       1.0  0.36330  0.94057  0.36631  1.0000
  C   C307      1.0  0.38560  0.92499  0.34510  1.0000
  C   C308      1.0  0.33251  0.92448  0.37660  1.0000
  H   H517      1.0  0.04993  0.64710  0.07575  1.0000
  C   C309      1.0  0.38375  0.95090  0.39252  1.0000
  C   C310      1.0  0.40449  0.93060  0.41086  1.0000
  C   C311      1.0  0.41883  0.93873  0.33362  1.0000
  H   H518      1.0  0.27270  0.74229  0.98860  1.0000
  C   C312      1.0  0.33771  0.89460  0.38035  1.0000
  C   C313      1.0  0.30613  0.88188  0.39498  1.0000
  C   C314      1.0  0.44009  0.92034  0.31396  1.0000
  C   C315      1.0  0.03536  0.74427  0.38576  1.0000
  H   H519      1.0  0.37004  0.91902  0.32528  1.0000
  H   H520      1.0  0.39430  0.90642  0.35531  1.0000
  H   H521      1.0  0.32214  0.93231  0.39803  1.0000
  H   H522      1.0  0.31078  0.92614  0.36024  1.0000
  C   C316      1.0  0.17155  0.86510  0.20589  1.0000
  C   C317      1.0  0.02593  0.83367  0.37529  1.0000
  Fe  Fe39      1.0  0.12271  0.65772  0.13321  1.0000
  S   S77       1.0  0.42108  0.96512  0.25693  1.0000
  H   H523      1.0  0.42055  0.91782  0.39652  1.0000
  H   H524      1.0  0.38646  0.91836  0.42416  1.0000
  H   H525      1.0  0.41230  0.95611  0.32005  1.0000
  H   H526      1.0  0.43568  0.94499  0.35237  1.0000
  H   H527      1.0  0.08654  0.72956  0.37362  1.0000
  C   C318      1.0  0.02570  0.81301  0.35486  1.0000
  H   H528      1.0  0.34102  0.88536  0.35803  1.0000
  H   H529      1.0  0.36069  0.88997  0.39412  1.0000
  H   H530      1.0  0.30241  0.88943  0.41802  1.0000
  H   H531      1.0  0.28238  0.88577  0.38166  1.0000
  H   H532      1.0  0.30984  0.86038  0.39616  1.0000
  H   H533      1.0  0.42449  0.91368  0.29449  1.0000
  H   H534      1.0  0.46330  0.93080  0.30545  1.0000
  H   H535      1.0  0.26252  0.87893  0.20738  1.0000
  H   H536      1.0  0.36635  0.96071  0.40880  1.0000
  H   H537      1.0  0.26675  0.66659  0.21354  1.0000
  H   H538      1.0  0.27414  0.92122  0.23333  1.0000
  S   S78       1.0  0.16654  0.65971  0.16666  1.0000
  C   C319      1.0  0.31935  0.67861  0.25561  1.0000
  H   H539      1.0  0.23875  0.83234  0.27280  1.0000
  H   H540      1.0  0.06827  0.83143  0.43259  1.0000
  H   H541      1.0  0.48592  0.97900  0.32050  1.0000
  C   C320      1.0  0.25546  0.70232  0.99212  1.0000
  H   H542      1.0  0.14385  0.86958  0.31566  1.0000
  H   H543      1.0  0.20431  0.82168  0.22829  1.0000
  C   C321      1.0  0.28613  0.71922  0.25775  1.0000
  C   C322      1.0  0.29500  0.72691  0.29051  1.0000
  C   C323      1.0  0.29374  0.75655  0.29462  1.0000
  H   H544      1.0  0.26118  0.72888  0.25182  1.0000
  H   H545      1.0  0.30624  0.72869  0.24367  1.0000
  H   H546      1.0  0.29877  0.71974  0.19680  1.0000
  H   H547      1.0  0.15819  0.69219  0.46737  1.0000
  H   H548      1.0  0.10242  0.83040  0.17419  1.0000
  H   H549      1.0  0.29992  0.76155  0.31819  1.0000
  H   H550      1.0  0.31283  0.76633  0.27981  1.0000
  H   H551      1.0  0.26741  0.76408  0.28959  1.0000
  H   H552      1.0  0.15590  0.82357  0.20290  1.0000
  H   H553      1.0  0.19830  0.90543  0.23521  1.0000
  H   H554      1.0  0.10834  0.88825  0.30089  1.0000
  H   H555      1.0  0.23092  0.88941  0.25575  1.0000
  H   H556      1.0  0.24005  0.93649  0.21186  1.0000
  H   H557      1.0  0.27142  0.67250  0.29411  1.0000
  H   H558      1.0  0.04934  0.69738  0.00963  1.0000
  H   H559      1.0  0.06712  0.73995  0.03584  1.0000
  H   H560      1.0  0.27827  0.71489  0.03445  1.0000
  C   C324      1.0  0.29548  0.69830  0.19468  1.0000
  H   H561      1.0  0.05185  0.69321  0.12996  1.0000
  C   C325      1.0  0.02875  0.68134  0.12827  1.0000
  H   H562      1.0  0.10277  0.72447  0.05524  1.0000
  C   C326      1.0  0.24184  0.89392  0.20830  1.0000
  H   H563      1.0  0.29794  0.70095  0.14626  1.0000
  C   C327      1.0  0.08905  0.64782  0.98754  1.0000
  H   H564      1.0  0.44310  0.92933  0.44619  1.0000
  N   N18       1.0  0.28387  0.69027  0.25125  1.0000
  C   C328      1.0  0.27134  0.68734  0.21940  1.0000
  C   C329      1.0  0.05915  0.72724  0.36669  1.0000
  C   C330      1.0  0.50893  0.97471  0.13415  1.0000
  H   H565      1.0  0.10849  0.86533  0.17513  1.0000
  H   H566      1.0  0.02823  0.72426  0.28506  1.0000
  C   C331      1.0  0.12212  0.84623  0.17520  1.0000
  H   H567      1.0  0.16682  0.78089  0.01433  1.0000
  H   H568      1.0  0.32149  0.72042  0.29650  1.0000
  H   H569      1.0  0.27655  0.71822  0.30672  1.0000
  C   C332      1.0  0.42907  0.94418  0.43273  1.0000
  H   H570      1.0  0.11113  0.81950  0.44059  1.0000
  H   H571      1.0  0.08845  0.68558  0.02563  1.0000
  C   C333      1.0  0.16066  0.71102  0.47812  1.0000
  H   H572      1.0  0.07894  0.78717  0.41072  1.0000
  N   N19       1.0  0.04528  0.65875  0.02947  1.0000
  H   H573      1.0  0.03475  0.79664  0.00060  1.0000
  C   C334      1.0  0.07267  0.78894  0.43485  1.0000
  H   H574      1.0  0.27653  0.67195  0.15986  1.0000
  S   S79       1.0  0.36156  0.97829  0.20714  1.0000
  C   C335      1.0  0.23635  0.65471  0.26195  1.0000
  H   H575      1.0  0.09001  0.65005  0.05740  1.0000
  H   H576      1.0  0.37711  0.65144  0.23329  1.0000
  H   H577      1.0  0.02816  0.75921  0.29161  1.0000
  C   C336      1.0  0.05098  0.64729  0.99876  1.0000
  C   C337      1.0  0.34939  0.96377  0.34917  1.0000
  H   H578      1.0  0.37073  0.97700  0.34214  1.0000
  H   H579      1.0  0.21756  0.66125  0.24465  1.0000
  H   H580      1.0  0.44854  0.95608  0.42041  1.0000
  C   C338      1.0  0.03040  0.65470  0.13487  1.0000
  H   H581      1.0  0.02056  0.76384  0.99266  1.0000
  H   H582      1.0  0.07750  0.73200  0.47109  1.0000
  H   H583      1.0  0.51165  0.91324  0.36883  1.0000
  H   H584      1.0  0.40190  0.96657  0.38500  1.0000
  H   H585      1.0  0.02565  0.79448  0.46087  1.0000
  C   C339      1.0  0.02467  0.74371  0.27445  1.0000
  H   H586      1.0  0.02656  0.70806  0.06002  1.0000
  H   H587      1.0  0.19823  0.65734  0.29781  1.0000
  C   C340      1.0  0.01616  0.78478  0.98733  1.0000
  C   C341      1.0  0.15198  0.71309  0.97842  1.0000
  S   S80       1.0  0.12242  0.69359  0.61328  1.0000
  Fe  Fe40      1.0  0.16089  0.67652  0.58141  1.0000
  S   S81       1.0  0.16027  0.68285  0.53066  1.0000
  Fe  Fe41      1.0  0.16666  0.69588  0.64580  1.0000
  S   S82       1.0  0.16765  0.73421  0.67122  1.0000
  H   H588      1.0  0.27951  0.83549  0.69711  1.0000
  S   S83       1.0  0.39688  0.95008  0.74460  1.0000
  C   C342      1.0  0.26634  0.80433  0.76394  1.0000
  C   C343      1.0  0.08565  0.67714  0.71947  1.0000
  Fe  Fe42      1.0  0.34200  0.96460  0.74604  1.0000
  S   S84       1.0  0.29112  0.94232  0.75476  1.0000
  Fe  Fe43      1.0  0.15639  0.77381  0.83727  1.0000
  S   S85       1.0  0.15298  0.81303  0.81534  1.0000
  S   S86       1.0  0.16102  0.73527  0.81289  1.0000
  Fe  Fe44      1.0  0.15512  0.79614  0.90067  1.0000
  S   S87       1.0  0.15189  0.83767  0.88323  1.0000
  S   S88       1.0  0.15774  0.78955  0.95141  1.0000
  Fe  Fe45      1.0  0.11284  0.82121  0.85072  1.0000
  S   S89       1.0  0.06299  0.84001  0.83460  1.0000
  Fe  Fe46      1.0  0.19232  0.82641  0.84907  1.0000
  S   S90       1.0  0.24444  0.84606  0.83764  1.0000
  S   S91       1.0  0.11345  0.78076  0.87022  1.0000
  S   S92       1.0  0.19829  0.78612  0.86908  1.0000
  C   C344      1.0  0.02521  0.82275  0.88310  1.0000
  H   H589      1.0  0.35184  0.70361  0.90803  1.0000
  C   C345      1.0  0.24460  0.79371  0.71251  1.0000
  H   H590      1.0  0.04961  0.81637  0.89248  1.0000
  H   H591      1.0  0.03960  0.72339  0.63175  1.0000
  C   C346      1.0  0.27888  0.91552  0.77805  1.0000
  C   C347      1.0  0.24346  0.90954  0.78140  1.0000
  C   C348      1.0  0.23236  0.88857  0.79962  1.0000
  C   C349      1.0  0.25661  0.87310  0.81466  1.0000
  C   C350      1.0  0.29205  0.87896  0.81116  1.0000
  C   C351      1.0  0.30315  0.89993  0.79292  1.0000
  H   H592      1.0  0.22441  0.92136  0.76995  1.0000
  H   H593      1.0  0.20504  0.88443  0.80208  1.0000
  H   H594      1.0  0.31108  0.86704  0.82248  1.0000
  H   H595      1.0  0.33046  0.90383  0.79005  1.0000
  C   C352      1.0  0.25711  0.74976  0.68834  1.0000
  C   C353      1.0  0.16166  0.71239  0.50956  1.0000
  C   C354      1.0  0.16482  0.73691  0.52311  1.0000
  C   C355      1.0  0.15093  0.73577  0.96043  1.0000
  C   C356      1.0  0.49722  0.97128  0.59019  1.0000
  H   H596      1.0  0.05596  0.76645  0.58831  1.0000
  C   C357      1.0  0.27252  0.77276  0.70558  1.0000
  H   H597      1.0  0.16562  0.73835  0.54722  1.0000
  H   H598      1.0  0.14612  0.73421  0.93667  1.0000
  H   H599      1.0  0.05237  0.82724  0.70097  1.0000
  H   H600      1.0  0.21776  0.79599  0.78718  1.0000
  C   C358      1.0  0.16370  0.73369  0.71047  1.0000
  C   C359      1.0  0.17098  0.71117  0.72697  1.0000
  C   C360      1.0  0.16955  0.71178  0.75837  1.0000
  C   C361      1.0  0.16087  0.73489  0.77345  1.0000
  C   C362      1.0  0.15262  0.75720  0.75689  1.0000
  C   C363      1.0  0.15429  0.75666  0.72550  1.0000
  H   H601      1.0  0.17858  0.69344  0.71563  1.0000
  H   H602      1.0  0.17579  0.69440  0.77104  1.0000
  H   H603      1.0  0.14506  0.77486  0.76828  1.0000
  H   H604      1.0  0.14849  0.77411  0.71284  1.0000
  H   H605      1.0  0.23816  0.73910  0.70250  1.0000
  H   H606      1.0  0.33695  0.88461  0.73354  1.0000
  H   H607      1.0  0.23094  0.67122  0.55170  1.0000
  H   H608      1.0  0.30747  0.66056  0.56723  1.0000
  C   C364      1.0  0.05802  0.72783  0.51547  1.0000
  H   H609      1.0  0.30687  0.97223  0.82542  1.0000
  C   C365      1.0  0.24693  0.75805  0.93383  1.0000
  H   H610      1.0  0.23867  0.75954  0.81801  1.0000
  H   H611      1.0  0.45409  0.94659  0.60257  1.0000
  H   H612      1.0  0.18740  0.69829  0.86377  1.0000
  H   H613      1.0  0.27080  0.82054  0.78011  1.0000
  C   C366      1.0  0.29924  0.85334  0.73774  1.0000
  H   H614      1.0  0.11242  0.67817  0.71069  1.0000
  H   H615      1.0  0.22132  0.78315  0.72059  1.0000
  C   C367      1.0  0.24097  0.78527  0.77957  1.0000
  C   C368      1.0  0.47567  0.97523  0.86913  1.0000
  H   H616      1.0  0.17734  0.68717  0.90100  1.0000
  H   H617      1.0  0.37910  0.91320  0.88030  1.0000
  C   C369      1.0  0.15655  0.76038  0.97317  1.0000
  N   N20       1.0  0.04555  0.73704  0.67727  1.0000
  H   H618      1.0  0.07099  0.66188  0.70715  1.0000
  C   C370      1.0  0.06183  0.75950  0.69396  1.0000
  C   C371      1.0  0.04521  0.74192  0.64393  1.0000
  C   C372      1.0  0.06659  0.71274  0.68329  1.0000
  C   C373      1.0  0.06798  0.70364  0.71645  1.0000
  H   H619      1.0  0.37340  0.88562  0.83462  1.0000
  C   C374      1.0  0.07893  0.75342  0.63034  1.0000
  C   C375      1.0  0.04387  0.78637  0.69010  1.0000
  H   H620      1.0  0.08445  0.72682  0.52525  1.0000
  H   H621      1.0  0.27679  0.93026  0.84066  1.0000
  C   C376      1.0  0.22635  0.83485  0.73764  1.0000
  C   C377      1.0  0.19874  0.69313  0.88584  1.0000
  H   H622      1.0  0.21911  0.76140  0.93891  1.0000
  H   H623      1.0  0.08477  0.78599  0.80098  1.0000
  H   H624      1.0  0.24368  0.96461  0.81412  1.0000
  H   H625      1.0  0.08977  0.76131  0.68806  1.0000
  H   H626      1.0  0.03900  0.79110  0.66629  1.0000
  C   C378      1.0  0.24925  0.66371  0.53453  1.0000
  H   H627      1.0  0.05730  0.69612  0.66932  1.0000
  H   H628      1.0  0.09391  0.71568  0.67619  1.0000
  H   H629      1.0  0.02374  0.75532  0.63755  1.0000
  H   H630      1.0  0.08318  0.71764  0.73015  1.0000
  H   H631      1.0  0.29340  0.78121  0.69152  1.0000
  C   C379      1.0  0.02459  0.83525  0.85535  1.0000
  H   H632      1.0  0.10186  0.74206  0.63729  1.0000
  H   H633      1.0  0.08309  0.77385  0.63778  1.0000
  H   H634      1.0  0.05247  0.66963  0.59272  1.0000
  H   H635      1.0  0.40384  0.93676  0.85904  1.0000
  H   H636      1.0  0.04078  0.73790  0.53165  1.0000
  C   C380      1.0  0.27175  0.94885  0.85239  1.0000
  C   C381      1.0  0.02536  0.65178  0.62947  1.0000
  H   H637      1.0  0.26282  0.80725  0.90937  1.0000
  C   C382      1.0  0.28589  0.82909  0.72031  1.0000
  H   H638      1.0  0.31967  0.93434  0.90005  1.0000
  H   H639      1.0  0.22802  0.85027  0.72005  1.0000
  H   H640      1.0  0.08697  0.67146  0.74340  1.0000
  C   C383      1.0  0.46425  0.97494  0.63713  1.0000
  H   H641      1.0  0.37624  0.95080  0.96440  1.0000
  H   H642      1.0  0.14826  0.69415  0.96819  1.0000
  C   C384      1.0  0.18859  0.82470  0.73569  1.0000
  C   C385      1.0  0.16269  0.84618  0.74364  1.0000
  H   H643      1.0  0.22915  0.84542  0.75928  1.0000
  H   H644      1.0  0.18266  0.81819  0.71255  1.0000
  H   H645      1.0  0.18420  0.80811  0.75093  1.0000
  H   H646      1.0  0.16486  0.86276  0.72771  1.0000
  H   H647      1.0  0.13593  0.83825  0.74255  1.0000
  H   H648      1.0  0.16736  0.85350  0.76667  1.0000
  H   H649      1.0  0.26465  0.78845  0.82372  1.0000
  C   C386      1.0  0.23917  0.96038  0.83819  1.0000
  H   H650      1.0  0.35864  0.73852  0.91176  1.0000
  C   C387      1.0  0.38240  0.92247  0.85804  1.0000
  C   C388      1.0  0.47032  0.96278  0.60934  1.0000
  H   H651      1.0  0.34962  0.93894  0.82349  1.0000
  H   H652      1.0  0.33897  0.97173  0.63653  1.0000
  H   H653      1.0  0.31791  0.87467  0.69867  1.0000
  Fe  Fe47      1.0  0.40523  0.97660  0.70459  1.0000
  C   C389      1.0  0.36186  0.95775  0.91817  1.0000
  C   C390      1.0  0.30502  0.72715  0.90331  1.0000
  H   H654      1.0  0.10215  0.76134  0.58705  1.0000
  H   H655      1.0  0.04178  0.70168  0.72626  1.0000
  H   H656      1.0  0.07068  0.80476  0.72765  1.0000
  C   C391      1.0  0.06597  0.80825  0.70347  1.0000
  H   H657      1.0  0.03517  0.65803  0.98191  1.0000
  H   H658      1.0  0.29191  0.79448  0.76209  1.0000
  H   H659      1.0  0.23303  0.76890  0.76488  1.0000
  H   H660      1.0  0.28633  0.69495  0.54614  1.0000
  H   H661      1.0  0.23656  0.80246  0.69075  1.0000
  H   H662      1.0  0.19887  0.73293  0.90022  1.0000
  H   H663      1.0  0.38514  0.94740  0.91012  1.0000
  C   C392      1.0  0.16783  0.75964  0.50536  1.0000
  H   H664      1.0  0.35020  0.85427  0.71659  1.0000
  H   H665      1.0  0.28088  0.76170  0.80115  1.0000
  H   H666      1.0  0.26592  0.94440  0.87615  1.0000
  S   S93       1.0  0.15752  0.65625  0.66602  1.0000
  C   C393      1.0  0.34400  0.72315  0.89956  1.0000
  H   H667      1.0  0.30852  0.81578  0.71830  1.0000
  N   N21       1.0  0.25525  0.81506  0.73396  1.0000
  H   H668      1.0  0.17089  0.77845  0.51607  1.0000
  C   C394      1.0  0.25748  0.77306  0.80731  1.0000
  H   H669      1.0  0.32844  0.91914  0.85073  1.0000
  H   H670      1.0  0.27830  0.86769  0.74173  1.0000
  H   H671      1.0  0.02565  0.80106  0.79313  1.0000
  H   H672      1.0  0.07100  0.75252  0.80367  1.0000
  H   H673      1.0  0.24606  0.69126  0.92925  1.0000
  H   H674      1.0  0.31018  0.84736  0.75964  1.0000
  C   C395      1.0  0.06502  0.77173  0.79330  1.0000
  C   C396      1.0  0.39358  0.90105  0.83629  1.0000
  H   H675      1.0  0.28414  0.76480  0.72633  1.0000
  H   H676      1.0  0.36884  0.97870  0.92036  1.0000
  H   H677      1.0  0.24399  0.75657  0.66764  1.0000
  S   S94       1.0  0.20640  0.68157  0.61251  1.0000
  Fe  Fe48      1.0  0.11537  0.65335  0.63146  1.0000
  H   H678      1.0  0.27794  0.73590  0.68198  1.0000
  S   S95       1.0  0.42906  0.96366  0.65976  1.0000
  C   C397      1.0  0.32784  0.86746  0.72047  1.0000
  H   H679      1.0  0.38809  0.97582  0.86899  1.0000
  C   C398      1.0  0.34782  0.93497  0.84799  1.0000
  H   H680      1.0  0.27050  0.65463  0.58998  1.0000
  H   H681      1.0  0.39839  0.90946  0.81374  1.0000
  C   C399      1.0  0.02750  0.66596  0.60283  1.0000
  H   H682      1.0  0.45980  0.95871  0.87541  1.0000
  C   C400      1.0  0.21795  0.71676  0.89856  1.0000
  H   H683      1.0  0.41798  0.89197  0.84429  1.0000
  H   H684      1.0  0.07337  0.73366  0.58727  1.0000
  H   H685      1.0  0.02152  0.78816  0.96325  1.0000
  H   H686      1.0  0.06165  0.75565  0.71836  1.0000
  H   H687      1.0  0.24898  0.76022  0.90928  1.0000
  H   H688      1.0  0.23799  0.72266  0.88224  1.0000
  H   H689      1.0  0.30090  0.70468  0.94335  1.0000
  H   H690      1.0  0.29425  0.67999  0.51023  1.0000
  H   H691      1.0  0.23461  0.71703  0.52689  1.0000
  H   H692      1.0  0.09127  0.80959  0.69172  1.0000
  S   S96       1.0  0.43752  0.97480  0.81696  1.0000
  H   H693      1.0  0.35089  0.72436  0.87549  1.0000
  H   H694      1.0  0.21760  0.94606  0.83988  1.0000
  H   H695      1.0  0.01857  0.78639  0.70192  1.0000
  H   H696      1.0  0.27208  0.72474  0.50469  1.0000
  H   H697      1.0  0.29197  0.71170  0.89007  1.0000
  N   N22       1.0  0.25707  0.73093  0.94381  1.0000
  C   C401      1.0  0.02908  0.78121  0.80262  1.0000
  C   C402      1.0  0.27385  0.68656  0.52596  1.0000
  C   C403      1.0  0.07737  0.75370  0.59617  1.0000
  H   H698      1.0  0.23138  0.97862  0.84981  1.0000
  H   H699      1.0  0.29877  0.74658  0.89383  1.0000
  H   H700      1.0  0.34791  0.92632  0.94888  1.0000
  H   H701      1.0  0.33104  0.95813  0.95906  1.0000
  H   H702      1.0  0.24040  0.70198  0.49063  1.0000
  H   H703      1.0  0.06696  0.77007  0.76866  1.0000
  H   H704      1.0  0.02921  0.78258  0.82736  1.0000
  C   C404      1.0  0.25691  0.80710  0.93368  1.0000
  H   H705      1.0  0.04864  0.70753  0.51196  1.0000
  C   C405      1.0  0.25394  0.70885  0.51110  1.0000
  C   C406      1.0  0.29438  0.72496  0.93657  1.0000
  C   C407      1.0  0.35360  0.94759  0.94950  1.0000
  H   H706      1.0  0.21674  0.67646  0.88267  1.0000
  C   C408      1.0  0.23320  0.71072  0.92999  1.0000
  H   H707      1.0  0.07003  0.76236  0.49075  1.0000
  C   C409      1.0  0.33033  0.95440  0.89687  1.0000
  H   H708      1.0  0.20997  0.70782  0.94423  1.0000
  H   H709      1.0  0.34271  0.64834  0.61344  1.0000
  N   N23       1.0  0.33641  0.95947  0.86401  1.0000
  H   H710      1.0  0.09564  0.66776  0.97949  1.0000
  C   C410      1.0  0.26744  0.78108  0.94783  1.0000
  C   C411      1.0  0.30279  0.96807  0.84968  1.0000
  H   H711      1.0  0.50618  0.97400  0.90986  1.0000
  H   H712      1.0  0.31003  0.96780  0.90570  1.0000
  H   H713      1.0  0.22878  0.81068  0.93687  1.0000
  H   H714      1.0  0.50144  0.96164  0.56899  1.0000
  H   H715      1.0  0.23314  0.65979  0.51438  1.0000
  H   H716      1.0  0.27139  0.82333  0.94443  1.0000
  H   H717      1.0  0.29568  0.77872  0.94440  1.0000
  H   H718      1.0  0.31204  0.73752  0.95000  1.0000
  H   H719      1.0  0.31630  0.97956  0.60224  1.0000
  C   C412      1.0  0.25291  0.72983  0.97744  1.0000
  H   H720      1.0  0.26206  0.78258  0.97214  1.0000
  H   H721      1.0  0.27963  0.69214  0.98579  1.0000
  H   H722      1.0  0.22734  0.73808  0.98404  1.0000
  H   H723      1.0  0.23322  0.68983  0.98550  1.0000
  Fe  Fe49      1.0  0.80841  0.20502  0.09436  1.0000
  S   S97       1.0  0.82163  0.16646  0.07354  1.0000
  S   S98       1.0  0.80062  0.24240  0.06810  1.0000
  Fe  Fe50      1.0  0.82332  0.18631  0.15824  1.0000
  S   S99       1.0  0.83782  0.14603  0.14173  1.0000
  S   S100      1.0  0.83321  0.19487  0.20786  1.0000
  Fe  Fe51      1.0  0.86696  0.16669  0.10533  1.0000
  S   S101      1.0  0.92066  0.16151  0.08564  1.0000
  Fe  Fe52      1.0  0.79096  0.14882  0.11138  1.0000
  S   S102      1.0  0.75396  0.11346  0.10909  1.0000
  S   S103      1.0  0.85553  0.20637  0.12354  1.0000
  S   S104      1.0  0.77448  0.18789  0.13059  1.0000
  C   C413      1.0  0.85915  0.21701  0.43170  1.0000
  C   C414      1.0  0.85654  0.12900  0.01076  1.0000
  H   H724      1.0  0.77527  0.00327  0.02298  1.0000
  H   H725      1.0  0.00141  0.27962  0.00181  1.0000
  H   H726      1.0  0.93132  0.27081  0.26445  1.0000
  S   S105      1.0  0.57820  0.03436  0.98780  1.0000
  H   H727      1.0  0.87668  0.19989  0.43324  1.0000
  S   S106      1.0  0.79739  0.29627  0.28536  1.0000
  Fe  Fe53      1.0  0.79855  0.28532  0.39806  1.0000
  S   S107      1.0  0.77428  0.25164  0.42333  1.0000
  C   C415      1.0  0.94166  0.22702  0.14034  1.0000
  C   C416      1.0  0.95429  0.17786  0.01444  1.0000
  C   C417      1.0  0.96346  0.23448  0.46691  1.0000
  S   S108      1.0  0.83851  0.27559  0.36355  1.0000
  H   H728      1.0  0.53581  0.02804  0.19093  1.0000
  H   H729      1.0  0.89755  0.16930  0.21438  1.0000
  H   H730      1.0  0.85098  0.98867  0.04450  1.0000
  C   C418      1.0  0.64830  0.99255  0.37311  1.0000
  C   C419      1.0  0.80001  0.24078  0.02878  1.0000
  C   C420      1.0  0.82843  0.98854  0.05992  1.0000
  H   H731      1.0  0.91656  0.16395  0.17793  1.0000
  C   C421      1.0  0.78155  0.24984  0.46219  1.0000
  H   H732      1.0  0.88602  0.17289  0.02939  1.0000
  C   C422      1.0  0.75148  0.30751  0.09183  1.0000
  H   H733      1.0  0.77908  0.20185  0.02642  1.0000
  H   H734      1.0  0.86671  0.21407  0.04827  1.0000
  H   H735      1.0  0.76101  0.21078  0.46598  1.0000
  H   H736      1.0  0.98901  0.18220  0.07756  1.0000
  C   C423      1.0  0.82370  0.22368  0.22844  1.0000
  C   C424      1.0  0.80284  0.24362  0.21701  1.0000
  C   C425      1.0  0.79514  0.26570  0.23471  1.0000
  C   C426      1.0  0.80832  0.26819  0.26391  1.0000
  C   C427      1.0  0.82959  0.24838  0.27518  1.0000
  C   C428      1.0  0.83703  0.22621  0.25757  1.0000
  H   H737      1.0  0.79233  0.24194  0.19466  1.0000
  H   H738      1.0  0.77878  0.28094  0.22571  1.0000
  H   H739      1.0  0.84039  0.25025  0.29736  1.0000
  H   H740      1.0  0.85336  0.21093  0.26642  1.0000
  C   C429      1.0  0.69641  0.07354  0.03037  1.0000
  C   C430      1.0  0.69423  0.06355  0.05943  1.0000
  C   C431      1.0  0.71196  0.07601  0.08317  1.0000
  C   C432      1.0  0.73230  0.09851  0.07819  1.0000
  C   C433      1.0  0.73471  0.10833  0.04906  1.0000
  C   C434      1.0  0.71692  0.09590  0.02538  1.0000
  H   H741      1.0  0.67923  0.04608  0.06344  1.0000
  H   H742      1.0  0.71015  0.06808  0.10553  1.0000
  H   H743      1.0  0.75019  0.12556  0.04479  1.0000
  C   C435      1.0  0.78763  0.21870  0.01379  1.0000
  C   C436      1.0  0.98971  0.16928  0.09664  1.0000
  C   C437      1.0  0.95910  0.15720  0.10652  1.0000
  C   C438      1.0  0.96044  0.14035  0.13108  1.0000
  C   C439      1.0  0.51735  0.99231  0.39086  1.0000
  H   H744      1.0  0.93720  0.13034  0.13822  1.0000
  C   C440      1.0  0.94046  0.20706  0.23639  1.0000
  C   C441      1.0  0.95209  0.23501  0.24552  1.0000
  C   C442      1.0  0.92191  0.25124  0.25738  1.0000
  H   H745      1.0  0.93612  0.19593  0.25751  1.0000
  H   H746      1.0  0.91432  0.20846  0.22613  1.0000
  H   H747      1.0  0.70937  0.28087  0.34587  1.0000
  H   H748      1.0  0.65233  0.12660  0.16574  1.0000
  H   H749      1.0  0.93026  0.23655  0.18572  1.0000
  H   H750      1.0  0.97177  0.23382  0.26361  1.0000
  H   H751      1.0  0.96385  0.24555  0.22638  1.0000
  C   C443      1.0  0.70828  0.27193  0.32330  1.0000
  H   H752      1.0  0.91955  0.23912  0.13265  1.0000
  H   H753      1.0  0.90991  0.24152  0.27703  1.0000
  S   S109      1.0  0.62427  0.99331  0.02791  1.0000
  H   H754      1.0  0.90196  0.25399  0.23974  1.0000
  C   C444      1.0  0.52270  0.04455  0.17946  1.0000
  C   C445      1.0  0.99091  0.16886  0.00654  1.0000
  H   H755      1.0  0.71405  0.17211  0.42624  1.0000
  H   H756      1.0  0.96570  0.23880  0.13823  1.0000
  H   H757      1.0  0.67461  0.98983  0.38266  1.0000
  Fe  Fe54      1.0  0.56745  0.00054  0.01901  1.0000
  C   C446      1.0  0.59854  0.07260  0.06911  1.0000
  S   S110      1.0  0.76793  0.31152  0.36761  1.0000
  H   H758      1.0  0.91742  0.23537  0.00091  1.0000
  H   H759      1.0  0.94355  0.26866  0.44417  1.0000
  C   C447      1.0  0.71475  0.31340  0.45912  1.0000
  H   H760      1.0  0.98946  0.21896  0.18455  1.0000
  C   C448      1.0  0.87656  0.17614  0.00628  1.0000
  H   H761      1.0  0.80337  0.28831  0.46596  1.0000
  H   H762      1.0  0.55326  0.06615  0.04088  1.0000
  H   H763      1.0  0.69082  0.19977  0.38507  1.0000
  H   H764      1.0  0.94066  0.16076  0.02405  1.0000
  C   C449      1.0  0.87841  0.24202  0.44014  1.0000
  H   H765      1.0  0.95707  0.19334  0.03148  1.0000
  C   C450      1.0  0.94619  0.26177  0.46764  1.0000
  H   H766      1.0  0.56373  0.08747  0.10319  1.0000
  H   H767      1.0  0.99657  0.24286  0.42856  1.0000
  H   H768      1.0  0.97572  0.18905  0.16882  1.0000
  C   C451      1.0  0.54007  0.05025  0.14944  1.0000
  C   C452      1.0  0.00057  0.19296  0.23097  1.0000
  H   H769      1.0  0.87024  0.12682  0.03249  1.0000
  H   H770      1.0  0.64036  0.98580  0.13013  1.0000
  C   C453      1.0  0.89596  0.28963  0.47732  1.0000
  H   H771      1.0  0.56162  0.10007  0.04975  1.0000
  H   H772      1.0  0.57409  0.08008  0.16456  1.0000
  S   S111      1.0  0.92269  0.30173  0.39633  1.0000
  C   C454      1.0  0.99899  0.23569  0.45193  1.0000
  Fe  Fe55      1.0  0.86754  0.31024  0.38151  1.0000
  H   H773      1.0  0.97220  0.15289  0.20043  1.0000
  Fe  Fe56      1.0  0.63457  0.02576  0.99526  1.0000
  C   C455      1.0  0.78590  0.98373  0.01715  1.0000
  H   H774      1.0  0.76763  0.18110  0.24347  1.0000
  C   C456      1.0  0.99229  0.13531  0.14530  1.0000
  S   S112      1.0  0.67488  0.05864  0.99942  1.0000
  Fe  Fe57      1.0  0.57914  0.99276  0.45982  1.0000
  H   H775      1.0  0.89253  0.29217  0.45284  1.0000
  H   H776      1.0  0.87694  0.26246  0.04580  1.0000
  N   N24       1.0  0.75210  0.20553  0.34560  1.0000
  C   C457      1.0  0.78934  0.21437  0.34685  1.0000
  C   C458      1.0  0.72878  0.22921  0.34583  1.0000
  C   C459      1.0  0.74487  0.19036  0.37396  1.0000
  C   C460      1.0  0.74442  0.18826  0.31888  1.0000
  C   C461      1.0  0.76615  0.19288  0.29003  1.0000
  C   C462      1.0  0.81623  0.19239  0.35265  1.0000
  C   C463      1.0  0.70660  0.18236  0.37929  1.0000
  C   C464      1.0  0.73413  0.24946  0.32058  1.0000
  C   C465      1.0  0.75106  0.17796  0.26346  1.0000
  C   C466      1.0  0.85278  0.20071  0.34364  1.0000
  C   C467      1.0  0.89533  0.22249  0.00697  1.0000
  H   H777      1.0  0.79275  0.22905  0.36499  1.0000
  H   H778      1.0  0.79680  0.22490  0.32619  1.0000
  H   H779      1.0  0.70115  0.22323  0.34425  1.0000
  H   H780      1.0  0.73160  0.23983  0.36750  1.0000
  H   H781      1.0  0.75342  0.20177  0.39393  1.0000
  H   H782      1.0  0.76020  0.17196  0.37439  1.0000
  H   H783      1.0  0.74830  0.16727  0.32460  1.0000
  H   H784      1.0  0.71653  0.18971  0.31273  1.0000
  H   H785      1.0  0.79309  0.18593  0.29321  1.0000
  H   H786      1.0  0.76772  0.21368  0.28363  1.0000
  H   H787      1.0  0.81666  0.18756  0.37688  1.0000
  H   H788      1.0  0.80959  0.17426  0.34034  1.0000
  H   H789      1.0  0.69539  0.17294  0.35914  1.0000
  S   S113      1.0  0.52429  0.01057  0.05282  1.0000
  H   H790      1.0  0.76051  0.25794  0.32155  1.0000
  H   H791      1.0  0.72955  0.24055  0.29841  1.0000
  H   H792      1.0  0.99898  0.18538  0.25432  1.0000
  H   H793      1.0  0.75011  0.15667  0.26822  1.0000
  H   H794      1.0  0.72462  0.18511  0.25816  1.0000
  H   H795      1.0  0.85426  0.20364  0.31912  1.0000
  H   H796      1.0  0.86030  0.21913  0.35501  1.0000
  H   H797      1.0  0.87152  0.18524  0.34999  1.0000
  C   C468      1.0  0.96812  0.20430  0.18536  1.0000
  H   H798      1.0  0.71895  0.10377  0.00300  1.0000
  C   C469      1.0  0.89658  0.24890  0.05513  1.0000
  H   H799      1.0  0.92290  0.25673  0.05070  1.0000
  H   H800      1.0  0.89267  0.24780  0.07969  1.0000
  N   N25       1.0  0.60037  0.06295  0.12630  1.0000
  S   S114      1.0  0.63779  0.99490  0.45847  1.0000
  C   C470      1.0  0.57761  0.06059  0.15382  1.0000
  C   C471      1.0  0.62508  0.08554  0.13115  1.0000
  C   C472      1.0  0.62171  0.03862  0.12194  1.0000
  H   H801      1.0  0.74101  0.28616  0.00834  1.0000
  C   C473      1.0  0.99311  0.30276  0.39003  1.0000
  C   C474      1.0  0.64766  0.08437  0.15989  1.0000
  H   H802      1.0  0.86221  0.24412  0.48571  1.0000
  Fe  Fe58      1.0  0.81084  0.30424  0.33431  1.0000
  H   H803      1.0  0.58852  0.08340  0.02306  1.0000
  H   H804      1.0  0.80876  0.98793  0.00281  1.0000
  C   C475      1.0  0.66930  0.10923  0.16325  1.0000
  C   C476      1.0  0.68833  0.28726  0.41639  1.0000
  H   H805      1.0  0.96532  0.27538  0.47786  1.0000
  H   H806      1.0  0.59043  0.04819  0.17106  1.0000
  H   H807      1.0  0.94739  0.22051  0.45396  1.0000
  H   H808      1.0  0.61052  0.10435  0.13140  1.0000
  H   H809      1.0  0.64394  0.08709  0.11247  1.0000
  H   H810      1.0  0.64170  0.04194  0.10448  1.0000
  H   H811      1.0  0.63637  0.03396  0.14265  1.0000
  H   H812      1.0  0.67579  0.15838  0.40930  1.0000
  H   H813      1.0  0.71760  0.14485  0.40061  1.0000
  C   C477      1.0  0.57874  0.06923  0.09908  1.0000
  H   H814      1.0  0.61075  0.05390  0.06227  1.0000
  H   H815      1.0  0.66604  0.06775  0.15882  1.0000
  H   H816      1.0  0.63169  0.08226  0.18034  1.0000
  H   H817      1.0  0.75616  0.28741  0.08341  1.0000
  C   C478      1.0  0.96145  0.31194  0.37871  1.0000
  H   H818      1.0  0.71423  0.28496  0.40601  1.0000
  H   H819      1.0  0.58660  0.01595  0.09299  1.0000
  H   H820      1.0  0.82938  0.13512  0.01497  1.0000
  H   H821      1.0  0.99574  0.28617  0.23740  1.0000
  C   C479      1.0  0.60175  0.01343  0.11383  1.0000
  H   H822      1.0  0.84949  0.21873  0.40846  1.0000
  H   H823      1.0  0.58434  0.00767  0.13236  1.0000
  H   H824      1.0  0.99327  0.28974  0.40906  1.0000
  H   H825      1.0  0.99339  0.12155  0.16364  1.0000
  H   H826      1.0  0.68602  0.10771  0.18339  1.0000
  H   H827      1.0  0.68633  0.11203  0.14347  1.0000
  H   H828      1.0  0.94350  0.20965  0.12559  1.0000
  C   C480      1.0  0.93578  0.21859  0.17274  1.0000
  H   H829      1.0  0.91226  0.20626  0.17354  1.0000
  H   H830      1.0  0.68152  0.26487  0.31905  1.0000
  C   C481      1.0  0.91773  0.15861  0.20192  1.0000
  H   H831      1.0  0.88290  0.12599  0.19442  1.0000
  C   C482      1.0  0.81085  0.26257  0.01221  1.0000
  H   H832      1.0  0.82108  0.27949  0.02366  1.0000
  N   N26       1.0  0.96525  0.19247  0.21632  1.0000
  H   H833      1.0  0.71462  0.28723  0.30651  1.0000
  C   C483      1.0  0.90889  0.12955  0.20426  1.0000
  H   H834      1.0  0.90830  0.12326  0.22802  1.0000
  C   C484      1.0  0.89253  0.22167  0.04159  1.0000
  H   H835      1.0  0.65011  0.00616  0.35384  1.0000
  H   H836      1.0  0.53914  0.03217  0.13603  1.0000
  H   H837      1.0  0.91222  0.20903  0.05191  1.0000
  C   C485      1.0  0.95419  0.16421  0.21470  1.0000
  H   H838      1.0  0.95562  0.15513  0.23734  1.0000
  H   H839      1.0  0.67954  0.28378  0.99180  1.0000
  H   H840      1.0  0.90174  0.24335  0.42582  1.0000
  H   H841      1.0  0.92809  0.11758  0.19189  1.0000
  C   C486      1.0  0.70347  0.16326  0.40546  1.0000
  S   S115      1.0  0.55328  0.98362  0.41421  1.0000
  N   N27       1.0  0.89790  0.19668  0.99055  1.0000
  H   H842      1.0  0.86124  0.25876  0.43466  1.0000
  H   H843      1.0  0.67258  0.26978  0.41075  1.0000
  H   H844      1.0  0.55901  0.05386  0.09482  1.0000
  H   H845      1.0  0.89719  0.22265  0.48060  1.0000
  H   H846      1.0  0.64613  0.99561  0.09159  1.0000
  C   C487      1.0  0.77206  0.22720  0.47789  1.0000
  C   C488      1.0  0.69169  0.28968  0.45032  1.0000
  H   H847      1.0  0.83655  0.21383  0.44660  1.0000
  H   H848      1.0  0.84940  0.18315  0.00892  1.0000
  H   H849      1.0  0.61883  0.08785  0.07036  1.0000
  H   H850      1.0  0.63122  0.00157  0.39022  1.0000
  H   H851      1.0  0.66530  0.29095  0.45973  1.0000
  C   C489      1.0  0.87501  0.14898  0.99095  1.0000
  H   H852      1.0  0.87168  0.23324  0.99978  1.0000
  C   C490      1.0  0.62671  0.99066  0.10899  1.0000
  C   C491      1.0  0.88740  0.24227  0.47394  1.0000
  C   C492      1.0  0.79594  0.27085  0.47777  1.0000
  H   H853      1.0  0.81978  0.00897  0.06384  1.0000
  C   C493      1.0  0.52258  0.98101  0.10568  1.0000
  C   C494      1.0  0.73270  0.29804  0.98889  1.0000
  H   H854      1.0  0.01065  0.21588  0.45139  1.0000
  N   N28       1.0  0.91203  0.26342  0.48392  1.0000
  C   C495      1.0  0.57385  0.08104  0.04425  1.0000
  H   H855      1.0  0.85610  0.10969  0.99947  1.0000
  H   H856      1.0  0.72108  0.98467  0.03019  1.0000
  H   H857      1.0  0.73207  0.30634  0.11010  1.0000
  H   H858      1.0  0.96790  0.17676  0.47028  1.0000
  H   H859      1.0  0.74135  0.30765  0.45193  1.0000
  H   H860      1.0  0.99008  0.15290  0.98973  1.0000
  H   H861      1.0  0.98910  0.31204  0.28291  1.0000
  H   H862      1.0  0.70362  0.27131  0.45870  1.0000
  H   H863      1.0  0.67552  0.30482  0.40687  1.0000
  H   H864      1.0  0.52318  0.06207  0.19410  1.0000
  H   H865      1.0  0.77653  0.30890  0.03696  1.0000
  H   H866      1.0  0.52416  0.06518  0.13773  1.0000
  H   H867      1.0  0.00391  0.16125  0.02693  1.0000
  H   H868      1.0  0.86923  0.29075  0.48645  1.0000
  H   H869      1.0  0.00651  0.18539  0.99769  1.0000
  H   H870      1.0  0.01014  0.21331  0.23275  1.0000
  H   H871      1.0  0.95378  0.14600  0.48604  1.0000
  H   H872      1.0  0.77534  0.98337  0.48669  1.0000
  C   C496      1.0  0.51477  0.98115  0.36210  1.0000
  Fe  Fe59      1.0  0.80798  0.21020  0.58714  1.0000
  S   S116      1.0  0.83069  0.17628  0.56230  1.0000
  S   S117      1.0  0.79154  0.24747  0.56402  1.0000
  Fe  Fe60      1.0  0.82691  0.18870  0.64903  1.0000
  S   S118      1.0  0.85085  0.15276  0.62819  1.0000
  S   S119      1.0  0.83529  0.19384  0.69959  1.0000
  Fe  Fe61      1.0  0.87499  0.18006  0.59485  1.0000
  S   S120      1.0  0.93026  0.18553  0.57823  1.0000
  Fe  Fe62      1.0  0.80404  0.15165  0.59737  1.0000
  S   S121      1.0  0.77842  0.11142  0.58897  1.0000
  S   S122      1.0  0.85376  0.21564  0.61726  1.0000
  S   S123      1.0  0.77843  0.18582  0.62076  1.0000
  H   H873      1.0  0.68796  0.21384  0.87601  1.0000
  H   H874      1.0  0.95822  0.28206  0.94422  1.0000
  H   H875      1.0  0.70284  0.99327  0.61401  1.0000
  H   H876      1.0  0.67297  0.25294  0.90543  1.0000
  H   H877      1.0  0.75321  0.29767  0.97156  1.0000
  H   H878      1.0  0.99451  0.18796  0.52060  1.0000
  C   C497      1.0  0.75237  0.98213  0.97105  1.0000
  S   S124      1.0  0.79474  0.28741  0.78752  1.0000
  Fe  Fe63      1.0  0.80815  0.27592  0.90009  1.0000
  S   S125      1.0  0.78912  0.24118  0.92683  1.0000
  H   H879      1.0  0.74198  0.30628  0.55116  1.0000
  C   C498      1.0  0.96606  0.22107  0.67743  1.0000
  H   H880      1.0  0.94619  0.23775  0.61990  1.0000
  S   S126      1.0  0.84371  0.26717  0.86193  1.0000
  N   N29       1.0  0.96229  0.20214  0.70315  1.0000
  C   C499      1.0  0.93221  0.23459  0.66689  1.0000
  H   H881      1.0  0.91884  0.27666  0.57642  1.0000
  H   H882      1.0  0.99957  0.26887  0.87819  1.0000
  C   C500      1.0  0.78981  0.24717  0.52472  1.0000
  H   H883      1.0  0.71291  0.23844  0.91779  1.0000
  H   H884      1.0  0.91321  0.23082  0.78101  1.0000
  C   C501      1.0  0.79483  0.24096  0.96593  1.0000
  H   H885      1.0  0.96637  0.23478  0.73383  1.0000
  Fe  Fe64      1.0  0.57876  0.00505  0.95036  1.0000
  H   H886      1.0  0.80987  0.28626  0.52106  1.0000
  C   C502      1.0  0.78475  0.21890  0.98244  1.0000
  H   H887      1.0  0.81694  0.27945  0.96840  1.0000
  S   S127      1.0  0.63640  0.99903  0.95509  1.0000
  C   C503      1.0  0.82666  0.22161  0.72241  1.0000
  C   C504      1.0  0.84100  0.22272  0.75135  1.0000
  C   C505      1.0  0.83314  0.24351  0.77096  1.0000
  C   C506      1.0  0.80997  0.26310  0.76219  1.0000
  C   C507      1.0  0.79631  0.26229  0.73301  1.0000
  C   C508      1.0  0.80474  0.24180  0.71316  1.0000
  H   H888      1.0  0.85801  0.20725  0.75874  1.0000
  H   H889      1.0  0.84434  0.24407  0.79309  1.0000
  H   H890      1.0  0.77847  0.27734  0.72589  1.0000
  H   H891      1.0  0.79348  0.24125  0.69102  1.0000
  C   C509      1.0  0.69633  0.07671  0.52403  1.0000
  C   C510      1.0  0.71614  0.06063  0.54270  1.0000
  C   C511      1.0  0.74138  0.07159  0.56194  1.0000
  C   C512      1.0  0.74738  0.09877  0.56290  1.0000
  C   C513      1.0  0.72777  0.11484  0.54405  1.0000
  C   C514      1.0  0.70256  0.10387  0.52476  1.0000
  H   H892      1.0  0.71217  0.03972  0.54220  1.0000
  H   H893      1.0  0.75640  0.05889  0.57627  1.0000
  H   H894      1.0  0.73190  0.13575  0.54442  1.0000
  H   H895      1.0  0.68641  0.24321  0.85326  1.0000
  C   C515      1.0  0.96596  0.15537  0.61939  1.0000
  C   C516      1.0  0.96660  0.17683  0.60005  1.0000
  H   H896      1.0  0.99620  0.17485  0.72622  1.0000
  H   H897      1.0  0.94223  0.14441  0.62233  1.0000
  C   C517      1.0  0.89694  0.22393  0.94149  1.0000
  N   N30       1.0  0.63324  0.06963  0.60323  1.0000
  C   C518      1.0  0.66382  0.08553  0.61397  1.0000
  C   C519      1.0  0.64513  0.04294  0.59277  1.0000
  C   C520      1.0  0.61787  0.08390  0.57676  1.0000
  C   C521      1.0  0.60537  0.06715  0.62669  1.0000
  C   C522      1.0  0.61611  0.05483  0.65685  1.0000
  H   H898      1.0  0.56633  0.06508  0.57409  1.0000
  C   C523      1.0  0.58874  0.06943  0.55947  1.0000
  C   C524      1.0  0.67604  0.03030  0.60979  1.0000
  H   H899      1.0  0.69050  0.00137  0.57643  1.0000
  C   C525      1.0  0.58705  0.05724  0.67989  1.0000
  C   C526      1.0  0.65613  0.11381  0.62445  1.0000
  C   C527      1.0  0.68205  0.00206  0.60013  1.0000
  H   H900      1.0  0.68344  0.08687  0.59578  1.0000
  H   H901      1.0  0.67734  0.07583  0.63278  1.0000
  H   H902      1.0  0.62306  0.02886  0.59289  1.0000
  H   H903      1.0  0.65370  0.04386  0.56900  1.0000
  H   H904      1.0  0.92554  0.22505  0.94218  1.0000
  C   C528      1.0  0.97045  0.30459  0.87409  1.0000
  H   H905      1.0  0.59336  0.08651  0.63116  1.0000
  H   H906      1.0  0.58386  0.05464  0.61834  1.0000
  H   H907      1.0  0.63939  0.06432  0.66642  1.0000
  H   H908      1.0  0.62096  0.03364  0.65378  1.0000
  C   C529      1.0  0.93858  0.25070  0.63872  1.0000
  H   H909      1.0  0.94087  0.27231  0.52435  1.0000
  H   H910      1.0  0.59615  0.08982  0.51709  1.0000
  H   H911      1.0  0.98198  0.15604  0.53346  1.0000
  H   H912      1.0  0.70027  0.04124  0.60501  1.0000
  H   H913      1.0  0.67225  0.03038  0.63425  1.0000
  H   H914      1.0  0.77697  0.98588  0.95881  1.0000
  H   H915      1.0  0.88650  0.24263  0.95032  1.0000
  H   H916      1.0  0.62890  0.01170  0.86670  1.0000
  H   H917      1.0  0.98402  0.23726  0.68329  1.0000
  H   H918      1.0  0.71374  0.03949  0.94451  1.0000
  C   C530      1.0  0.93776  0.22022  0.78557  1.0000
  H   H919      1.0  0.85791  0.22157  0.90642  1.0000
  C   C531      1.0  0.99647  0.14745  0.63407  1.0000
  C   C532      1.0  0.73376  0.00895  0.97340  1.0000
  C   C533      1.0  0.96079  0.16656  0.49129  1.0000
  H   H920      1.0  0.91438  0.26108  0.63262  1.0000
  H   H921      1.0  0.88651  0.18263  0.94589  1.0000
  H   H922      1.0  0.52848  0.02073  0.63290  1.0000
  S   S128      1.0  0.63665  0.99424  0.53177  1.0000
  H   H923      1.0  0.85394  0.20308  0.96120  1.0000
  H   H924      1.0  0.71358  0.26798  0.89556  1.0000
  H   H925      1.0  0.91152  0.22025  0.66178  1.0000
  N   N31       1.0  0.74391  0.21284  0.83138  1.0000
  C   C534      1.0  0.72856  0.22890  0.80637  1.0000
  H   H926      1.0  0.69320  0.13916  0.82292  1.0000
  C   C535      1.0  0.78250  0.21124  0.82590  1.0000
  C   C536      1.0  0.72927  0.18545  0.83292  1.0000
  C   C537      1.0  0.69068  0.18176  0.82383  1.0000
  C   C538      1.0  0.73634  0.21898  0.77424  1.0000
  C   C539      1.0  0.80434  0.19789  0.85071  1.0000
  C   C540      1.0  0.71417  0.23306  0.75101  1.0000
  C   C541      1.0  0.84134  0.19275  0.84008  1.0000
  H   H927      1.0  0.73833  0.24942  0.80765  1.0000
  H   H928      1.0  0.70010  0.23056  0.80859  1.0000
  H   H929      1.0  0.75266  0.02424  0.93084  1.0000
  H   H930      1.0  0.79338  0.23123  0.82254  1.0000
  H   H931      1.0  0.78791  0.20028  0.80495  1.0000
  H   H932      1.0  0.74424  0.17199  0.81821  1.0000
  H   H933      1.0  0.73265  0.17743  0.85591  1.0000
  H   H934      1.0  0.68768  0.18321  0.79923  1.0000
  H   H935      1.0  0.67344  0.19661  0.83371  1.0000
  H   H936      1.0  0.76368  0.22280  0.76841  1.0000
  H   H937      1.0  0.73214  0.19766  0.77203  1.0000
  H   H938      1.0  0.79282  0.17895  0.85755  1.0000
  H   H939      1.0  0.80620  0.21071  0.87066  1.0000
  H   H940      1.0  0.71858  0.25451  0.75226  1.0000
  H   H941      1.0  0.72154  0.22636  0.72826  1.0000
  H   H942      1.0  0.68629  0.22879  0.75460  1.0000
  H   H943      1.0  0.85443  0.21140  0.83419  1.0000
  H   H944      1.0  0.85631  0.18319  0.85822  1.0000
  H   H945      1.0  0.84137  0.17967  0.82026  1.0000
  C   C542      1.0  0.79963  0.26965  0.50898  1.0000
  C   C543      1.0  0.91870  0.25998  0.51695  1.0000
  C   C544      1.0  0.90933  0.13643  0.69909  1.0000
  H   H946      1.0  0.91314  0.11653  0.70842  1.0000
  H   H947      1.0  0.88509  0.14467  0.70855  1.0000
  H   H948      1.0  0.90658  0.13477  0.67444  1.0000
  H   H949      1.0  0.87513  0.26670  0.58498  1.0000
  H   H950      1.0  0.95880  0.23472  0.78918  1.0000
  H   H951      1.0  0.86037  0.15009  0.96963  1.0000
  H   H952      1.0  0.95920  0.26547  0.64256  1.0000
  C   C545      1.0  0.94675  0.20194  0.75966  1.0000
  H   H953      1.0  0.93774  0.17626  0.50115  1.0000
  H   H954      1.0  0.70871  0.12825  0.61740  1.0000
  H   H955      1.0  0.00363  0.25754  0.97094  1.0000
  H   H956      1.0  0.71733  0.26085  0.55561  1.0000
  C   C546      1.0  0.99765  0.19070  0.59620  1.0000
  S   S129      1.0  0.55866  0.01554  0.90342  1.0000
  C   C547      1.0  0.89792  0.26267  0.57056  1.0000
  C   C548      1.0  0.68916  0.12716  0.63560  1.0000
  C   C549      1.0  0.52335  0.00483  0.88074  1.0000
  C   C550      1.0  0.70024  0.24899  0.89904  1.0000
  Fe  Fe65      1.0  0.87480  0.30159  0.87816  1.0000
  C   C551      1.0  0.72765  0.02059  0.94236  1.0000
  H   H957      1.0  0.68322  0.14738  0.64297  1.0000
  H   H958      1.0  0.72913  0.28271  0.50527  1.0000
  C   C552      1.0  0.51745  0.01731  0.85311  1.0000
  C   C553      1.0  0.88653  0.22184  0.90867  1.0000
  H   H959      1.0  0.70043  0.11632  0.65479  1.0000
  H   H960      1.0  0.97125  0.19193  0.76551  1.0000
  H   H961      1.0  0.92684  0.23955  0.52182  1.0000
  H   H962      1.0  0.99599  0.13045  0.64845  1.0000
  H   H963      1.0  0.63711  0.11387  0.64302  1.0000
  H   H964      1.0  0.87769  0.28579  0.53508  1.0000
  C   C554      1.0  0.77660  0.22572  0.50906  1.0000
  H   H965      1.0  0.56313  0.04748  0.67171  1.0000
  C   C555      1.0  0.70099  0.28470  0.97530  1.0000
  H   H966      1.0  0.70889  0.28135  0.58745  1.0000
  H   H967      1.0  0.77413  0.20207  0.97102  1.0000
  H   H968      1.0  0.59834  0.05081  0.54996  1.0000
  C   C556      1.0  0.00091  0.28957  0.87352  1.0000
  S   S130      1.0  0.57611  0.02538  0.49375  1.0000
  S   S131      1.0  0.55235  0.00447  0.57495  1.0000
  H   H969      1.0  0.60646  0.10283  0.58384  1.0000
  H   H970      1.0  0.56536  0.10520  0.54202  1.0000
  C   C557      1.0  0.94980  0.21728  0.73000  1.0000
  H   H971      1.0  0.89747  0.20390  0.89845  1.0000
  Fe  Fe66      1.0  0.81268  0.29563  0.83546  1.0000
  H   H972      1.0  0.96373  0.14434  0.69731  1.0000
  C   C558      1.0  0.57526  0.08620  0.53366  1.0000
  H   H973      1.0  0.86615  0.25166  0.53369  1.0000
  C   C559      1.0  0.70118  0.23248  0.87057  1.0000
  C   C560      1.0  0.73889  0.22705  0.86066  1.0000
  C   C561      1.0  0.96234  0.28540  0.96848  1.0000
  S   S132      1.0  0.93113  0.28911  0.88449  1.0000
  H   H974      1.0  0.58139  0.07811  0.68463  1.0000
  H   H975      1.0  0.92241  0.24816  0.68428  1.0000
  Fe  Fe67      1.0  0.57821  0.99429  0.52967  1.0000
  H   H976      1.0  0.59502  0.04766  0.70109  1.0000
  C   C562      1.0  0.94033  0.15369  0.70700  1.0000
  H   H977      1.0  0.94313  0.15378  0.73160  1.0000
  C   C563      1.0  0.80867  0.26254  0.98088  1.0000
  H   H978      1.0  0.95692  0.30622  0.97367  1.0000
  C   C564      1.0  0.67730  0.15485  0.83319  1.0000
  H   H979      1.0  0.90683  0.24241  0.57500  1.0000
  H   H980      1.0  0.90926  0.18837  0.69952  1.0000
  H   H981      1.0  0.75039  0.21572  0.87939  1.0000
  H   H982      1.0  0.63853  0.08879  0.56027  1.0000
  C   C565      1.0  0.71006  0.29805  0.51157  1.0000
  H   H983      1.0  0.97773  0.21094  0.65777  1.0000
  H   H984      1.0  0.93584  0.17888  0.66935  1.0000
  H   H985      1.0  0.93740  0.17331  0.96886  1.0000
  C   C566      1.0  0.93592  0.18163  0.69407  1.0000
  H   H986      1.0  0.75301  0.24607  0.86012  1.0000
  H   H987      1.0  0.93445  0.20872  0.80643  1.0000
  H   H988      1.0  0.92343  0.22525  0.72580  1.0000
  H   H989      1.0  0.69221  0.29534  0.95502  1.0000
  H   H990      1.0  0.67798  0.15278  0.85792  1.0000
  H   H991      1.0  0.65008  0.15240  0.82564  1.0000
  H   H992      1.0  0.76879  0.20833  0.52110  1.0000
  S   S133      1.0  0.77359  0.30182  0.87245  1.0000
  C   C567      1.0  0.88257  0.20043  0.95974  1.0000
  H   H993      1.0  0.89687  0.23890  0.89626  1.0000
  C   C568      1.0  0.88756  0.26562  0.53788  1.0000
  H   H994      1.0  0.64611  0.12593  0.60582  1.0000
  C   C569      1.0  0.65287  0.99969  0.86668  1.0000
  H   H995      1.0  0.67183  0.00887  0.85125  1.0000
  H   H996      1.0  0.92551  0.18741  0.75797  1.0000
  C   C570      1.0  0.99733  0.18981  0.70833  1.0000
  H   H997      1.0  0.53374  0.03356  0.84663  1.0000
  H   H998      1.0  0.00551  0.17902  0.68789  1.0000
  H   H999      1.0  0.94371  0.27310  0.98101  1.0000
  H   H1000     1.0  0.68443  0.28881  0.50812  1.0000
  H   H1001     1.0  0.68761  0.11657  0.51039  1.0000
  H   H1002     1.0  0.99821  0.20748  0.58150  1.0000
  S   S134      1.0  0.84055  0.30857  0.91816  1.0000
  H   H1003     1.0  0.95116  0.20512  0.97845  1.0000
  H   H1004     1.0  0.71156  0.00723  0.92857  1.0000
  C   C571      1.0  0.99941  0.27821  0.97712  1.0000
  H   H1005     1.0  0.70818  0.00703  0.98441  1.0000
  H   H1006     1.0  0.55371  0.07588  0.52223  1.0000
  Fe  Fe68      1.0  0.63467  0.02465  0.49587  1.0000
  C   C572      1.0  0.99065  0.16732  0.51371  1.0000
  H   H1007     1.0  0.65812  0.99023  0.60295  1.0000
  C   C573      1.0  0.71434  0.30257  0.54565  1.0000
  S   S135      1.0  0.66339  0.06417  0.49964  1.0000
  C   C574      1.0  0.70309  0.27844  0.56335  1.0000
  C   C575      1.0  0.51233  0.00449  0.62621  1.0000
  H   H1008     1.0  0.96714  0.22673  0.48983  1.0000
  C   C576      1.0  0.51849  0.99223  0.59847  1.0000
  H   H1009     1.0  0.67486  0.27502  0.56076  1.0000
  H   H1010     1.0  0.70789  0.26441  0.96876  1.0000
  H   H1011     1.0  0.66407  0.99962  0.88954  1.0000
  H   H1012     1.0  0.74938  0.02326  0.98624  1.0000
  H   H1013     1.0  0.92320  0.31266  0.51209  1.0000
  H   H1014     1.0  0.90134  0.14142  0.98628  1.0000
  C   C577      1.0  0.93525  0.18848  0.98659  1.0000
  S   S136      1.0  0.64627  0.48766  0.02629  1.0000
  H   H1015     1.0  0.93268  0.62162  0.03892  1.0000
  Fe  Fe69      1.0  0.58813  0.49111  0.03182  1.0000
  S   S137      1.0  0.56148  0.50255  0.07611  1.0000
  C   C578      1.0  0.72445  0.32653  0.99834  1.0000
  H   H1016     1.0  0.58995  0.56181  0.13666  1.0000
  S   S138      1.0  0.84246  0.33888  0.34998  1.0000
  S   S139      1.0  0.58380  0.52501  0.00019  1.0000
  Fe  Fe70      1.0  0.80116  0.34398  0.38565  1.0000
  S   S140      1.0  0.78332  0.38456  0.40147  1.0000
  H   H1017     1.0  0.71372  0.31583  0.05832  1.0000
  H   H1018     1.0  0.52528  0.52920  0.12310  1.0000
  C   C579      1.0  0.68512  0.41685  0.44807  1.0000
  C   C580      1.0  0.68407  0.39253  0.43332  1.0000
  C   C581      1.0  0.71360  0.38246  0.41864  1.0000
  C   C582      1.0  0.74473  0.39653  0.41867  1.0000
  C   C583      1.0  0.74555  0.42102  0.43299  1.0000
  C   C584      1.0  0.71606  0.43109  0.44765  1.0000
  H   H1019     1.0  0.71388  0.40522  0.06053  1.0000
  H   H1020     1.0  0.71233  0.36391  0.40715  1.0000
  H   H1021     1.0  0.76937  0.43218  0.43306  1.0000
  H   H1022     1.0  0.71742  0.44979  0.45888  1.0000
  H   H1023     1.0  0.58115  0.57385  0.08935  1.0000
  H   H1024     1.0  0.53604  0.55638  0.04758  1.0000
  H   H1025     1.0  0.99002  0.62325  0.01567  1.0000
  H   H1026     1.0  0.70885  0.41674  0.02248  1.0000
  H   H1027     1.0  0.68737  0.37192  0.00796  1.0000
  H   H1028     1.0  0.73482  0.63225  0.04624  1.0000
  C   C585      1.0  0.99873  0.32212  0.26254  1.0000
  H   H1029     1.0  0.78664  0.33959  0.05227  1.0000
  H   H1030     1.0  0.56524  0.51010  0.17135  1.0000
  H   H1031     1.0  0.94162  0.31528  0.47518  1.0000
  C   C586      1.0  0.70439  0.37445  0.02777  1.0000
  C   C587      1.0  0.68994  0.52071  0.09857  1.0000
  H   H1032     1.0  0.59280  0.52875  0.12494  1.0000
  C   C588      1.0  0.74268  0.36943  0.01881  1.0000
  S   S141      1.0  0.78485  0.60735  0.08759  1.0000
  H   H1033     1.0  0.60228  0.57149  0.03617  1.0000
  H   H1034     1.0  0.99330  0.35065  0.32309  1.0000
  Fe  Fe71      1.0  0.58944  0.51440  0.45621  1.0000
  S   S142      1.0  0.55747  0.53019  0.41670  1.0000
  H   H1035     1.0  0.58187  0.49174  0.36631  1.0000
  S   S143      1.0  0.64619  0.50466  0.45321  1.0000
  H   H1036     1.0  0.00083  0.61911  0.13889  1.0000
  C   C589      1.0  0.70230  0.57310  0.02269  1.0000
  C   C590      1.0  0.72356  0.55688  0.03991  1.0000
  C   C591      1.0  0.74873  0.56777  0.05928  1.0000
  C   C592      1.0  0.75308  0.59502  0.06196  1.0000
  C   C593      1.0  0.73186  0.61128  0.04467  1.0000
  C   C594      1.0  0.70690  0.60037  0.02508  1.0000
  H   H1037     1.0  0.72107  0.53592  0.03790  1.0000
  H   H1038     1.0  0.76514  0.55493  0.07225  1.0000
  C   C595      1.0  0.57461  0.52803  0.18280  1.0000
  H   H1039     1.0  0.52062  0.55199  0.36667  1.0000
  H   H1040     1.0  0.60007  0.39403  0.29157  1.0000
  C   C596      1.0  0.66284  0.52543  0.12348  1.0000
  H   H1041     1.0  0.73188  0.34423  0.07685  1.0000
  H   H1042     1.0  0.58881  0.60370  0.04748  1.0000
  H   H1043     1.0  0.66775  0.56642  0.15965  1.0000
  H   H1044     1.0  0.73268  0.47495  0.40259  1.0000
  H   H1045     1.0  0.73080  0.49369  0.08662  1.0000
  H   H1046     1.0  0.63422  0.59613  0.04496  1.0000
  H   H1047     1.0  0.95605  0.34948  0.26498  1.0000
  H   H1048     1.0  0.93740  0.33640  0.34552  1.0000
  C   C597      1.0  0.81416  0.36061  0.99990  1.0000
  H   H1049     1.0  0.67691  0.51736  0.07680  1.0000
  H   H1050     1.0  0.76089  0.35047  0.45416  1.0000
  H   H1051     1.0  0.94491  0.54987  0.48100  1.0000
  H   H1052     1.0  0.67673  0.52465  0.14528  1.0000
  S   S144      1.0  0.57581  0.47892  0.48293  1.0000
  Fe  Fe72      1.0  0.64134  0.52118  0.99397  1.0000
  C   C598      1.0  0.76521  0.32838  0.04180  1.0000
  H   H1053     1.0  0.72344  0.61931  0.12652  1.0000
  H   H1054     1.0  0.94762  0.32147  0.24169  1.0000
  H   H1055     1.0  0.64594  0.50770  0.12290  1.0000
  C   C599      1.0  0.52648  0.51624  0.39166  1.0000
  N   N32       1.0  0.75349  0.34143  0.01325  1.0000
  H   H1056     1.0  0.58091  0.51393  0.28409  1.0000
  H   H1057     1.0  0.70108  0.32570  0.01265  1.0000
  S   S145      1.0  0.67054  0.56042  0.99726  1.0000
  H   H1058     1.0  0.66025  0.38140  0.43325  1.0000
  H   H1059     1.0  0.72675  0.49924  0.12624  1.0000
  C   C600      1.0  0.99986  0.63973  0.13360  1.0000
  C   C601      1.0  0.69954  0.40233  0.03926  1.0000
  H   H1060     1.0  0.64384  0.40579  0.29569  1.0000
  H   H1061     1.0  0.55674  0.48545  0.29545  1.0000
  C   C602      1.0  0.96161  0.32902  0.35427  1.0000
  H   H1062     1.0  0.72173  0.48707  0.36600  1.0000
  C   C603      1.0  0.89695  0.33900  0.48272  1.0000
  H   H1063     1.0  0.88977  0.34102  0.45875  1.0000
  C   C604      1.0  0.73783  0.32496  0.06672  1.0000
  H   H1064     1.0  0.62764  0.51937  0.17349  1.0000
  H   H1065     1.0  0.94500  0.63931  0.12334  1.0000
  H   H1066     1.0  0.67161  0.40606  0.04337  1.0000
  H   H1067     1.0  0.61949  0.55273  0.18414  1.0000
  H   H1068     1.0  0.53112  0.57483  0.01357  1.0000
  H   H1069     1.0  0.82425  0.35694  0.02269  1.0000
  H   H1070     1.0  0.74633  0.38133  0.99810  1.0000
  H   H1071     1.0  0.56878  0.46548  0.34360  1.0000
  H   H1072     1.0  0.69489  0.36094  0.04518  1.0000
  C   C605      1.0  0.71201  0.49662  0.10511  1.0000
  H   H1073     1.0  0.53229  0.56198  0.46851  1.0000
  C   C606      1.0  0.78393  0.34173  0.99191  1.0000
  H   H1074     1.0  0.58288  0.41344  0.43549  1.0000
  C   C607      1.0  0.63291  0.55616  0.08911  1.0000
  C   C608      1.0  0.65828  0.57263  0.13725  1.0000
  C   C609      1.0  0.68957  0.58572  0.12149  1.0000
  C   C610      1.0  0.60815  0.57957  0.08377  1.0000
  C   C611      1.0  0.70077  0.61049  0.13803  1.0000
  C   C612      1.0  0.60842  0.58818  0.05108  1.0000
  H   H1075     1.0  0.65688  0.55990  0.07611  1.0000
  H   H1076     1.0  0.63899  0.58823  0.14201  1.0000
  H   H1077     1.0  0.75978  0.37847  0.03602  1.0000
  H   H1078     1.0  0.68354  0.59163  0.09823  1.0000
  H   H1079     1.0  0.71218  0.57247  0.12155  1.0000
  H   H1080     1.0  0.69098  0.61321  0.01166  1.0000
  H   H1081     1.0  0.61548  0.59673  0.09746  1.0000
  C   C613      1.0  0.99331  0.33702  0.34156  1.0000
  H   H1082     1.0  0.70752  0.53747  0.09622  1.0000
  H   H1083     1.0  0.53977  0.40992  0.42063  1.0000
  H   H1084     1.0  0.70755  0.33019  0.44460  1.0000
  C   C614      1.0  0.94705  0.64042  0.03821  1.0000
  S   S146      1.0  0.64751  0.42812  0.46736  1.0000
  C   C615      1.0  0.57196  0.50243  0.30368  1.0000
  H   H1085     1.0  0.55529  0.54388  0.17980  1.0000
  C   C616      1.0  0.60714  0.54441  0.13704  1.0000
  H   H1086     1.0  0.55294  0.43939  0.37917  1.0000
  H   H1087     1.0  0.62098  0.53879  0.07813  1.0000
  N   N33       1.0  0.64106  0.54999  0.12139  1.0000
  H   H1088     1.0  0.62388  0.38675  0.32521  1.0000
  H   H1089     1.0  0.69547  0.47890  0.10682  1.0000
  H   H1090     1.0  0.67958  0.62512  0.13817  1.0000
  N   N34       1.0  0.61956  0.46077  0.36401  1.0000
  C   C617      1.0  0.59174  0.47732  0.34979  1.0000
  C   C618      1.0  0.60608  0.45008  0.39330  1.0000
  C   C619      1.0  0.64968  0.47863  0.37112  1.0000
  C   C620      1.0  0.63209  0.43896  0.34394  1.0000
  C   C621      1.0  0.60530  0.42688  0.32192  1.0000
  C   C622      1.0  0.60313  0.49335  0.32199  1.0000
  C   C623      1.0  0.68007  0.46619  0.38880  1.0000
  C   C624      1.0  0.57511  0.43091  0.39149  1.0000
  C   C625      1.0  0.56216  0.42344  0.42264  1.0000
  C   C626      1.0  0.61926  0.40184  0.30779  1.0000
  H   H1091     1.0  0.70846  0.60586  0.16137  1.0000
  C   C627      1.0  0.71181  0.48406  0.38905  1.0000
  H   H1092     1.0  0.97585  0.34743  0.22860  1.0000
  C   C628      1.0  0.96768  0.33590  0.24843  1.0000
  H   H1093     1.0  0.62659  0.43894  0.40513  1.0000
  H   H1094     1.0  0.59883  0.46651  0.40847  1.0000
  H   H1095     1.0  0.64062  0.49595  0.38412  1.0000
  H   H1096     1.0  0.66109  0.48657  0.35016  1.0000
  H   H1097     1.0  0.65408  0.44569  0.32974  1.0000
  H   H1098     1.0  0.64312  0.42284  0.35775  1.0000
  H   H1099     1.0  0.59955  0.44070  0.30347  1.0000
  H   H1100     1.0  0.58036  0.42215  0.33276  1.0000
  H   H1101     1.0  0.61743  0.51110  0.32932  1.0000
  H   H1102     1.0  0.62052  0.48197  0.30721  1.0000
  H   H1103     1.0  0.68789  0.44710  0.37921  1.0000
  H   H1104     1.0  0.67243  0.46318  0.41241  1.0000
  C   C629      1.0  0.51670  0.46581  0.10213  1.0000
  H   H1105     1.0  0.58333  0.41250  0.38053  1.0000
  C   C630      1.0  0.60990  0.53617  0.17040  1.0000
  H   H1106     1.0  0.70532  0.50327  0.39916  1.0000
  C   C631      1.0  0.52934  0.49145  0.10198  1.0000
  H   H1107     1.0  0.99316  0.62360  0.05612  1.0000
  C   C632      1.0  0.51681  0.56499  0.03194  1.0000
  Fe  Fe73      1.0  0.63333  0.46995  0.48184  1.0000
  H   H1108     1.0  0.69180  0.35930  0.48244  1.0000
  H   H1109     1.0  0.52596  0.47802  0.41144  1.0000
  H   H1110     1.0  0.55493  0.51505  0.31748  1.0000
  H   H1111     1.0  0.57687  0.52368  0.20705  1.0000
  S   S147      1.0  0.82913  0.31796  0.41831  1.0000
  H   H1112     1.0  0.55367  0.44102  0.43512  1.0000
  H   H1113     1.0  0.64481  0.33029  0.46837  1.0000
  H   H1114     1.0  0.82416  0.64136  0.47486  1.0000
  S   S148      1.0  0.57776  0.46249  0.99471  1.0000
  H   H1115     1.0  0.80572  0.38130  0.99854  1.0000
  H   H1116     1.0  0.80628  0.38092  0.47024  1.0000
  H   H1117     1.0  0.52656  0.45181  0.08616  1.0000
  H   H1118     1.0  0.79550  0.32190  0.99006  1.0000
  C   C633      1.0  0.51592  0.49014  0.39370  1.0000
  H   H1119     1.0  0.81655  0.34782  0.48044  1.0000
  C   C634      1.0  0.79875  0.36434  0.48494  1.0000
  C   C635      1.0  0.98591  0.63513  0.03603  1.0000
  C   C636      1.0  0.76157  0.35624  0.47802  1.0000
  H   H1120     1.0  0.74507  0.37376  0.48110  1.0000
  C   C637      1.0  0.51605  0.50925  0.12309  1.0000
  H   H1121     1.0  0.91085  0.52589  0.48350  1.0000
  H   H1122     1.0  0.51284  0.43680  0.01615  1.0000
  C   C638      1.0  0.51271  0.53177  0.36854  1.0000
  H   H1123     1.0  0.77598  0.31546  0.10119  1.0000
  S   S149      1.0  0.64360  0.49096  0.52570  1.0000
  H   H1124     1.0  0.70720  0.63576  0.49727  1.0000
  Fe  Fe74      1.0  0.58707  0.50289  0.52424  1.0000
  S   S150      1.0  0.55066  0.51344  0.56342  1.0000
  H   H1125     1.0  0.58978  0.39458  0.89097  1.0000
  H   H1126     1.0  0.89868  0.53822  0.53548  1.0000
  S   S151      1.0  0.84551  0.33020  0.84917  1.0000
  H   H1127     1.0  0.63829  0.50620  0.80234  1.0000
  Fe  Fe75      1.0  0.80813  0.33447  0.88825  1.0000
  S   S152      1.0  0.78904  0.37485  0.90445  1.0000
  C   C639      1.0  0.63841  0.41192  0.85573  1.0000
  H   H1128     1.0  0.54878  0.43192  0.90411  1.0000
  C   C640      1.0  0.69285  0.40907  0.95282  1.0000
  C   C641      1.0  0.69406  0.38238  0.94510  1.0000
  C   C642      1.0  0.72295  0.37162  0.93009  1.0000
  C   C643      1.0  0.75136  0.38738  0.92278  1.0000
  C   C644      1.0  0.75002  0.41411  0.93028  1.0000
  C   C645      1.0  0.72101  0.42492  0.94509  1.0000
  C   C646      1.0  0.90191  0.64630  0.51381  1.0000
  H   H1129     1.0  0.72328  0.35114  0.92415  1.0000
  H   H1130     1.0  0.77173  0.42658  0.92469  1.0000
  H   H1131     1.0  0.72068  0.44546  0.95082  1.0000
  H   H1132     1.0  0.65770  0.50445  0.88897  1.0000
  H   H1133     1.0  0.64242  0.31670  0.50578  1.0000
  C   C647      1.0  0.63598  0.45167  0.88790  1.0000
  H   H1134     1.0  0.94928  0.34311  0.86810  1.0000
  H   H1135     1.0  0.64560  0.47459  0.84682  1.0000
  H   H1136     1.0  0.81884  0.64090  0.51486  1.0000
  H   H1137     1.0  0.55315  0.52333  0.76621  1.0000
  H   H1138     1.0  0.61624  0.62334  0.52152  1.0000
  H   H1139     1.0  0.99386  0.61415  0.57891  1.0000
  H   H1140     1.0  0.62114  0.49394  0.75109  1.0000
  H   H1141     1.0  0.53824  0.41939  0.95601  1.0000
  C   C648      1.0  0.60028  0.41342  0.89947  1.0000
  H   H1142     1.0  0.69565  0.49976  0.86627  1.0000
  C   C649      1.0  0.68759  0.34226  0.49738  1.0000
  S   S153      1.0  0.76207  0.62257  0.60892  1.0000
  H   H1143     1.0  0.63324  0.53471  0.77914  1.0000
  S   S154      1.0  0.69986  0.55477  0.50060  1.0000
  Fe  Fe76      1.0  0.57625  0.49634  0.96265  1.0000
  C   C650      1.0  0.93083  0.53663  0.49650  1.0000
  C   C651      1.0  0.91703  0.31374  0.48793  1.0000
  S   S155      1.0  0.63362  0.49540  0.95295  1.0000
  C   C652      1.0  0.53226  0.43491  0.82490  1.0000
  C   C653      1.0  0.71713  0.57288  0.53136  1.0000
  C   C654      1.0  0.70095  0.57367  0.55934  1.0000
  C   C655      1.0  0.71511  0.58892  0.58269  1.0000
  C   C656      1.0  0.74559  0.60362  0.57853  1.0000
  C   C657      1.0  0.76211  0.60249  0.55072  1.0000
  C   C658      1.0  0.74787  0.58734  0.52730  1.0000
  H   H1144     1.0  0.67738  0.56266  0.56292  1.0000
  H   H1145     1.0  0.70222  0.58940  0.60415  1.0000
  H   H1146     1.0  0.78595  0.61311  0.54737  1.0000
  C   C659      1.0  0.51584  0.56761  0.48781  1.0000
  H   H1147     1.0  0.58726  0.48494  0.62263  1.0000
  H   H1148     1.0  0.99095  0.63591  0.66282  1.0000
  H   H1149     1.0  0.65260  0.61481  0.54474  1.0000
  C   C660      1.0  0.53881  0.50270  0.87191  1.0000
  C   C661      1.0  0.56955  0.49044  0.66826  1.0000
  Fe  Fe77      1.0  0.65355  0.52646  0.49691  1.0000
  C   C662      1.0  0.56220  0.42089  0.84046  1.0000
  S   S156      1.0  0.65588  0.42117  0.97252  1.0000
  H   H1150     1.0  0.54198  0.44913  0.80810  1.0000
  C   C663      1.0  0.94065  0.56688  0.54087  1.0000
  H   H1151     1.0  0.57248  0.45559  0.86711  1.0000
  H   H1152     1.0  0.62325  0.39512  0.84691  1.0000
  H   H1153     1.0  0.76297  0.63483  0.48782  1.0000
  H   H1154     1.0  0.54919  0.54737  0.68132  1.0000
  H   H1155     1.0  0.54514  0.49955  0.66072  1.0000
  C   C664      1.0  0.57304  0.51754  0.74933  1.0000
  H   H1156     1.0  0.64783  0.42249  0.83554  1.0000
  H   H1157     1.0  0.57562  0.40886  0.82340  1.0000
  H   H1158     1.0  0.58905  0.48463  0.77819  1.0000
  H   H1159     1.0  0.66066  0.38504  0.88876  1.0000
  H   H1160     1.0  0.68537  0.41456  0.88429  1.0000
  H   H1161     1.0  0.62786  0.36079  0.52569  1.0000
  H   H1162     1.0  0.62087  0.40766  0.91561  1.0000
  H   H1163     1.0  0.95284  0.61971  0.54355  1.0000
  C   C665      1.0  0.66981  0.39971  0.87227  1.0000
  H   H1164     1.0  0.61799  0.46630  0.89774  1.0000
  H   H1165     1.0  0.69019  0.35036  0.52033  1.0000
  C   C666      1.0  0.00482  0.34287  0.86118  1.0000
  H   H1166     1.0  0.67237  0.36992  0.95069  1.0000
  C   C667      1.0  0.91345  0.55227  0.52142  1.0000
  H   H1167     1.0  0.99988  0.58269  0.56207  1.0000
  H   H1168     1.0  0.65201  0.44483  0.90710  1.0000
  C   C668      1.0  0.60097  0.50149  0.76639  1.0000
  H   H1169     1.0  0.95941  0.57651  0.52544  1.0000
  H   H1170     1.0  0.91338  0.60648  0.50378  1.0000
  H   H1171     1.0  0.82199  0.58344  0.59021  1.0000
  N   N35       1.0  0.61564  0.42939  0.87439  1.0000
  H   H1172     1.0  0.54824  0.39082  0.93417  1.0000
  H   H1173     1.0  0.84406  0.56518  0.61921  1.0000
  H   H1174     1.0  0.58150  0.44534  0.92830  1.0000
  H   H1175     1.0  0.59428  0.52137  0.69376  1.0000
  C   C669      1.0  0.57162  0.42705  0.91808  1.0000
  N   N36       1.0  0.55592  0.50411  0.72303  1.0000
  N   N37       1.0  0.92731  0.58640  0.56362  1.0000
  C   C670      1.0  0.89220  0.57813  0.57523  1.0000
  H   H1176     1.0  0.87595  0.61125  0.52756  1.0000
  Fe  Fe78      1.0  0.63550  0.46199  0.98577  1.0000
  C   C671      1.0  0.92648  0.61354  0.55065  1.0000
  H   H1177     1.0  0.77517  0.34702  0.96891  1.0000
  C   C672      1.0  0.87505  0.59620  0.59883  1.0000
  C   C673      1.0  0.59623  0.49463  0.64346  1.0000
  H   H1178     1.0  0.80133  0.37061  0.50860  1.0000
  H   H1179     1.0  0.51723  0.47650  0.52205  1.0000
  H   H1180     1.0  0.56572  0.46904  0.67052  1.0000
  C   C674      1.0  0.84045  0.58485  0.60920  1.0000
  H   H1181     1.0  0.60026  0.52628  0.80618  1.0000
  H   H1182     1.0  0.89404  0.55817  0.58511  1.0000
  H   H1183     1.0  0.87302  0.57653  0.55686  1.0000
  H   H1184     1.0  0.00587  0.59356  0.62949  1.0000
  H   H1185     1.0  0.71580  0.37676  0.86297  1.0000
  C   C675      1.0  0.90292  0.61755  0.52307  1.0000
  H   H1186     1.0  0.60426  0.48934  0.70526  1.0000
  H   H1187     1.0  0.55074  0.40766  0.85740  1.0000
  H   H1188     1.0  0.70491  0.39974  0.83405  1.0000
  H   H1189     1.0  0.52292  0.43626  0.48953  1.0000
  C   C676      1.0  0.52528  0.52064  0.71397  1.0000
  H   H1190     1.0  0.89130  0.59846  0.61907  1.0000
  H   H1191     1.0  0.86975  0.61581  0.58928  1.0000
  H   H1192     1.0  0.58582  0.53597  0.74210  1.0000
  C   C677      1.0  0.64946  0.33415  0.49244  1.0000
  H   H1193     1.0  0.00625  0.36359  0.85656  1.0000
  C   C678      1.0  0.62488  0.35614  0.50156  1.0000
  H   H1194     1.0  0.70936  0.63745  0.53655  1.0000
  H   H1195     1.0  0.83607  0.36161  0.95498  1.0000
  S   S157      1.0  0.52694  0.49545  0.93336  1.0000
  H   H1196     1.0  0.85496  0.33721  0.97938  1.0000
  H   H1197     1.0  0.54652  0.50806  0.82444  1.0000
  H   H1198     1.0  0.91899  0.62783  0.56808  1.0000
  C   C679      1.0  0.54396  0.47739  0.73332  1.0000
  C   C680      1.0  0.84443  0.35737  0.97824  1.0000
  C   C681      1.0  0.74957  0.33361  0.49875  1.0000
  H   H1199     1.0  0.59942  0.45173  0.83572  1.0000
  C   C682      1.0  0.55896  0.40931  0.94330  1.0000
  H   H1200     1.0  0.62164  0.48612  0.64979  1.0000
  C   C683      1.0  0.97249  0.33130  0.86767  1.0000
  H   H1201     1.0  0.56552  0.50663  0.87765  1.0000
  H   H1202     1.0  0.65392  0.60850  0.50496  1.0000
  H   H1203     1.0  0.59768  0.35007  0.49747  1.0000
  H   H1204     1.0  0.94456  0.60150  0.60660  1.0000
  C   C684      1.0  0.69394  0.38570  0.85047  1.0000
  C   C685      1.0  0.66017  0.46682  0.86621  1.0000
  H   H1205     1.0  0.67993  0.36993  0.83842  1.0000
  H   H1206     1.0  0.69227  0.48325  0.90174  1.0000
  H   H1207     1.0  0.76083  0.58668  0.50589  1.0000
  C   C686      1.0  0.64494  0.62238  0.52242  1.0000
  H   H1208     1.0  0.89469  0.56577  0.51089  1.0000
  C   C687      1.0  0.67742  0.48995  0.88186  1.0000
  C   C688      1.0  0.61920  0.51825  0.78993  1.0000
  C   C689      1.0  0.58776  0.44077  0.85465  1.0000
  C   C690      1.0  0.58234  0.50196  0.69829  1.0000
  H   H1209     1.0  0.82894  0.59778  0.62646  1.0000
  H   H1210     1.0  0.56586  0.46327  0.73259  1.0000
  H   H1211     1.0  0.51549  0.42047  0.81333  1.0000
  S   S158      1.0  0.59802  0.53924  0.49716  1.0000
  H   H1212     1.0  0.95558  0.55102  0.55214  1.0000
  H   H1213     1.0  0.74996  0.34169  0.52185  1.0000
  H   H1214     1.0  0.68119  0.45406  0.85776  1.0000
  H   H1215     1.0  0.53276  0.45903  0.57912  1.0000
  H   H1216     1.0  0.58048  0.40478  0.95897  1.0000
  H   H1217     1.0  0.94926  0.52218  0.50599  1.0000
  H   H1218     1.0  0.59944  0.51580  0.63866  1.0000
  C   C691      1.0  0.53372  0.54846  0.70220  1.0000
  H   H1219     1.0  0.53068  0.56524  0.50892  1.0000
  N   N38       1.0  0.71471  0.32166  0.49167  1.0000
  H   H1220     1.0  0.87327  0.33924  0.49673  1.0000
  H   H1221     1.0  0.91328  0.35600  0.48901  1.0000
  C   C692      1.0  0.52217  0.49908  0.59027  1.0000
  H   H1222     1.0  0.63011  0.37404  0.48823  1.0000
  H   H1223     1.0  0.53015  0.42459  0.72056  1.0000
  C   C693      1.0  0.95209  0.58654  0.58982  1.0000
  H   H1224     1.0  0.95100  0.56736  0.60164  1.0000
  H   H1225     1.0  0.51547  0.46540  0.69235  1.0000
  H   H1226     1.0  0.71606  0.33712  0.97790  1.0000
  H   H1227     1.0  0.76990  0.31832  0.49816  1.0000
  H   H1228     1.0  0.69862  0.31929  0.55353  1.0000
  C   C694      1.0  0.99061  0.59279  0.58243  1.0000
  C   C695      1.0  0.52791  0.50361  0.84170  1.0000
  H   H1229     1.0  0.86544  0.37128  0.98416  1.0000
  C   C696      1.0  0.51506  0.49692  0.89463  1.0000
  H   H1230     1.0  0.53555  0.47820  0.75715  1.0000
  H   H1231     1.0  0.51618  0.44539  0.84162  1.0000
  H   H1232     1.0  0.54818  0.56009  0.71895  1.0000
  C   C697      1.0  0.51807  0.47204  0.59329  1.0000
  H   H1233     1.0  0.52324  0.42921  0.52897  1.0000
  C   C698      1.0  0.51262  0.46498  0.71689  1.0000
  C   C699      1.0  0.99273  0.64687  0.64218  1.0000
  Fe  Fe79      1.0  0.80437  0.70718  0.08964  1.0000
  S   S159      1.0  0.78219  0.74313  0.06683  1.0000
  Fe  Fe80      1.0  0.81322  0.68663  0.15359  1.0000
  S   S160      1.0  0.80056  0.69334  0.20315  1.0000
  S   S161      1.0  0.84287  0.71525  0.12608  1.0000
  S   S162      1.0  0.77195  0.68066  0.11841  1.0000
  C   C700      1.0  0.67362  0.87029  0.33233  1.0000
  H   H1234     1.0  0.64962  0.95902  0.34434  1.0000
  H   H1235     1.0  0.71655  0.92456  0.02590  1.0000
  H   H1236     1.0  0.97516  0.78904  0.01934  1.0000
  H   H1237     1.0  0.73376  0.74088  0.44139  1.0000
  C   C701      1.0  0.64415  0.90853  0.35819  1.0000
  Fe  Fe81      1.0  0.82330  0.80244  0.33434  1.0000
  S   S163      1.0  0.83534  0.84362  0.34933  1.0000
  S   S164      1.0  0.82504  0.79521  0.28356  1.0000
  Fe  Fe82      1.0  0.81886  0.78421  0.39919  1.0000
  S   S165      1.0  0.83027  0.82375  0.41853  1.0000
  S   S166      1.0  0.81786  0.74715  0.42671  1.0000
  Fe  Fe83      1.0  0.79298  0.83882  0.38379  1.0000
  S   S167      1.0  0.75636  0.87428  0.38834  1.0000
  Fe  Fe84      1.0  0.87138  0.82565  0.38293  1.0000
  S   S168      1.0  0.92389  0.84228  0.39632  1.0000
  S   S169      1.0  0.77848  0.79863  0.36647  1.0000
  S   S170      1.0  0.86246  0.78512  0.36582  1.0000
  H   H1238     1.0  0.76986  0.66519  0.46848  1.0000
  C   C702      1.0  0.96294  0.83028  0.38077  1.0000
  C   C703      1.0  0.96298  0.80911  0.36105  1.0000
  H   H1239     1.0  0.92273  0.78449  0.41687  1.0000
  H   H1240     1.0  0.93891  0.79952  0.35551  1.0000
  C   C704      1.0  0.69444  0.91311  0.46512  1.0000
  C   C705      1.0  0.70488  0.88682  0.46744  1.0000
  C   C706      1.0  0.72415  0.87466  0.44445  1.0000
  C   C707      1.0  0.73298  0.88860  0.41862  1.0000
  C   C708      1.0  0.72264  0.91492  0.41637  1.0000
  C   C709      1.0  0.70400  0.92719  0.43963  1.0000
  H   H1241     1.0  0.75604  0.80255  0.19003  1.0000
  H   H1242     1.0  0.73169  0.85439  0.44655  1.0000
  H   H1243     1.0  0.72957  0.92602  0.39667  1.0000
  H   H1244     1.0  0.69720  0.94763  0.43799  1.0000
  C   C710      1.0  0.70858  0.72898  0.17807  1.0000
  H   H1245     1.0  0.68789  0.68996  0.18456  1.0000
  C   C711      1.0  0.97909  0.79274  0.99515  1.0000
  C   C712      1.0  0.90503  0.80666  0.99056  1.0000
  H   H1246     1.0  0.93786  0.65181  0.01862  1.0000
  H   H1247     1.0  0.79057  0.70409  0.02019  1.0000
  C   C713      1.0  0.52630  0.90153  0.35216  1.0000
  C   C714      1.0  0.99728  0.69266  0.11918  1.0000
  H   H1248     1.0  0.96621  0.79044  0.45752  1.0000
  C   C715      1.0  0.78518  0.74543  0.02750  1.0000
  C   C716      1.0  0.78299  0.77003  0.01365  1.0000
  H   H1249     1.0  0.86411  0.93320  0.48249  1.0000
  C   C717      1.0  0.81154  0.74891  0.46571  1.0000
  H   H1250     1.0  0.92237  0.70813  0.25362  1.0000
  H   H1251     1.0  0.86940  0.88575  0.39809  1.0000
  H   H1252     1.0  0.77982  0.78735  0.02721  1.0000
  C   C718      1.0  0.95989  0.74101  0.28313  1.0000
  H   H1253     1.0  0.58368  0.93169  0.34642  1.0000
  C   C719      1.0  0.78856  0.76688  0.47837  1.0000
  C   C720      1.0  0.80845  0.72155  0.22541  1.0000
  C   C721      1.0  0.82387  0.74403  0.21366  1.0000
  C   C722      1.0  0.82812  0.76645  0.23164  1.0000
  C   C723      1.0  0.81822  0.76643  0.26193  1.0000
  C   C724      1.0  0.80373  0.74367  0.27397  1.0000
  C   C725      1.0  0.79859  0.72148  0.25571  1.0000
  H   H1254     1.0  0.83254  0.74410  0.19072  1.0000
  H   H1255     1.0  0.83959  0.78386  0.22211  1.0000
  H   H1256     1.0  0.79601  0.74327  0.29721  1.0000
  H   H1257     1.0  0.78684  0.70413  0.26513  1.0000
  H   H1258     1.0  0.63601  0.91412  0.33517  1.0000
  H   H1259     1.0  0.85596  0.76356  0.02091  1.0000
  N   N39       1.0  0.92330  0.74685  0.27339  1.0000
  C   C726      1.0  0.91922  0.77465  0.26259  1.0000
  C   C727      1.0  0.90017  0.74352  0.30045  1.0000
  C   C728      1.0  0.92898  0.79641  0.28518  1.0000
  C   C729      1.0  0.89494  0.71513  0.31197  1.0000
  C   C730      1.0  0.92383  0.82351  0.27159  1.0000
  C   C731      1.0  0.87156  0.71474  0.33956  1.0000
  H   H1260     1.0  0.89191  0.77805  0.25583  1.0000
  H   H1261     1.0  0.88261  0.72535  0.25066  1.0000
  H   H1262     1.0  0.87401  0.75161  0.29584  1.0000
  H   H1263     1.0  0.91031  0.75488  0.31978  1.0000
  H   H1264     1.0  0.96639  0.75230  0.30362  1.0000
  H   H1265     1.0  0.91242  0.79552  0.30538  1.0000
  H   H1266     1.0  0.95653  0.79475  0.29178  1.0000
  H   H1267     1.0  0.91995  0.70611  0.31835  1.0000
  H   H1268     1.0  0.88242  0.70265  0.29479  1.0000
  S   S171      1.0  0.84480  0.65223  0.13774  1.0000
  H   H1269     1.0  0.93091  0.83864  0.28833  1.0000
  H   H1270     1.0  0.84591  0.72345  0.33434  1.0000
  H   H1271     1.0  0.70327  0.96467  0.00173  1.0000
  H   H1272     1.0  0.00200  0.66993  0.05758  1.0000
  N   N40       1.0  0.73422  0.77326  0.16022  1.0000
  C   C732      1.0  0.69936  0.78373  0.15070  1.0000
  H   H1273     1.0  0.98724  0.76536  0.24958  1.0000
  C   C733      1.0  0.76070  0.78400  0.13851  1.0000
  C   C734      1.0  0.73565  0.74378  0.15891  1.0000
  H   H1274     1.0  0.96233  0.72020  0.28988  1.0000
  C   C735      1.0  0.68663  0.77533  0.11919  1.0000
  C   C736      1.0  0.79922  0.77907  0.14650  1.0000
  H   H1275     1.0  0.77581  0.78112  0.46430  1.0000
  C   C737      1.0  0.71937  0.72254  0.44622  1.0000
  C   C738      1.0  0.63125  0.94667  0.38907  1.0000
  C   C739      1.0  0.65058  0.78625  0.11270  1.0000
  C   C740      1.0  0.82348  0.79157  0.12357  1.0000
  H   H1276     1.0  0.69976  0.80551  0.15135  1.0000
  C   C741      1.0  0.95705  0.77041  0.45220  1.0000
  H   H1277     1.0  0.83041  0.93438  0.42014  1.0000
  H   H1278     1.0  0.62125  0.88656  0.46822  1.0000
  H   H1279     1.0  0.75737  0.80552  0.13589  1.0000
  H   H1280     1.0  0.75696  0.77543  0.11589  1.0000
  H   H1281     1.0  0.73388  0.73686  0.13535  1.0000
  C   C742      1.0  0.99420  0.80062  0.34815  1.0000
  H   H1282     1.0  0.66478  0.87297  0.37934  1.0000
  H   H1283     1.0  0.74599  0.80753  0.24625  1.0000
  H   H1284     1.0  0.70409  0.78272  0.10140  1.0000
  H   H1285     1.0  0.68500  0.75374  0.11738  1.0000
  H   H1286     1.0  0.80453  0.75790  0.14667  1.0000
  H   H1287     1.0  0.80611  0.78723  0.16867  1.0000
  H   H1288     1.0  0.58068  0.87542  0.45233  1.0000
  H   H1289     1.0  0.89626  0.82640  0.26526  1.0000
  H   H1290     1.0  0.67853  0.84894  0.33356  1.0000
  H   H1291     1.0  0.69803  0.80397  0.20799  1.0000
  H   H1292     1.0  0.52112  0.95960  0.14736  1.0000
  H   H1293     1.0  0.70607  0.79479  0.26131  1.0000
  H   H1294     1.0  0.58107  0.90101  0.48000  1.0000
  H   H1295     1.0  0.76128  0.73657  0.16670  1.0000
  C   C743      1.0  0.72772  0.79073  0.24566  1.0000
  H   H1296     1.0  0.64224  0.78014  0.08998  1.0000
  H   H1297     1.0  0.63147  0.77867  0.12913  1.0000
  H   H1298     1.0  0.82011  0.81311  0.12324  1.0000
  H   H1299     1.0  0.85076  0.78709  0.12955  1.0000
  H   H1300     1.0  0.81843  0.78365  0.10087  1.0000
  C   C744      1.0  0.72563  0.96629  0.01742  1.0000
  S   S172      1.0  0.92924  0.69241  0.10229  1.0000
  C   C745      1.0  0.72932  0.71249  0.47722  1.0000
  C   C746      1.0  0.82649  0.89792  0.44633  1.0000
  H   H1301     1.0  0.99652  0.71319  0.11347  1.0000
  C   C747      1.0  0.78914  0.72314  0.00979  1.0000
  H   H1302     1.0  0.88361  0.72579  0.35825  1.0000
  H   H1303     1.0  0.71569  0.73053  0.20206  1.0000
  H   H1304     1.0  0.83261  0.84493  0.00728  1.0000
  C   C748      1.0  0.74346  0.78294  0.19124  1.0000
  H   H1305     1.0  0.74141  0.77294  0.25356  1.0000
  H   H1306     1.0  0.86742  0.69427  0.34700  1.0000
  H   H1307     1.0  0.70041  0.69699  0.14657  1.0000
  H   H1308     1.0  0.61201  0.97317  0.10153  1.0000
  H   H1309     1.0  0.87430  0.73298  0.01052  1.0000
  C   C749      1.0  0.98288  0.75611  0.43124  1.0000
  H   H1310     1.0  0.69903  0.88050  0.33330  1.0000
  H   H1311     1.0  0.74424  0.93933  0.05313  1.0000
  H   H1312     1.0  0.92797  0.69575  0.20005  1.0000
  C   C750      1.0  0.61995  0.90322  0.40936  1.0000
  H   H1313     1.0  0.88690  0.88549  0.47477  1.0000
  H   H1314     1.0  0.94532  0.74145  0.21244  1.0000
  H   H1315     1.0  0.64705  0.90145  0.41750  1.0000
  C   C751      1.0  0.71359  0.78650  0.21408  1.0000
  H   H1316     1.0  0.76304  0.76981  0.20155  1.0000
  H   H1317     1.0  0.86391  0.80559  0.02431  1.0000
  H   H1318     1.0  0.61406  0.95571  0.40598  1.0000
  C   C752      1.0  0.72118  0.94268  0.03904  1.0000
  H   H1319     1.0  0.87871  0.75919  0.07221  1.0000
  N   N41       1.0  0.61914  0.91946  0.38117  1.0000
  H   H1320     1.0  0.77470  0.92800  0.45925  1.0000
  H   H1321     1.0  0.73296  0.69071  0.17485  1.0000
  H   H1322     1.0  0.66075  0.87471  0.31071  1.0000
  C   C753      1.0  0.70749  0.69992  0.17041  1.0000
  C   C754      1.0  0.96817  0.65114  0.12488  1.0000
  H   H1323     1.0  0.67043  0.91729  0.36112  1.0000
  S   S173      1.0  0.83579  0.67488  0.06910  1.0000
  H   H1324     1.0  0.57605  0.88391  0.34626  1.0000
  H   H1325     1.0  0.52710  0.91241  0.33066  1.0000
  H   H1326     1.0  0.53456  0.96784  0.35454  1.0000
  H   H1327     1.0  0.93306  0.74821  0.01752  1.0000
  H   H1328     1.0  0.72631  0.70800  0.42881  1.0000
  H   H1329     1.0  0.61162  0.88285  0.40491  1.0000
  C   C755      1.0  0.82756  0.73032  0.48412  1.0000
  H   H1330     1.0  0.62644  0.86725  0.35749  1.0000
  H   H1331     1.0  0.84165  0.87955  0.44684  1.0000
  C   C756      1.0  0.58305  0.92167  0.36849  1.0000
  H   H1332     1.0  0.57155  0.91886  0.42906  1.0000
  H   H1333     1.0  0.85438  0.73071  0.06153  1.0000
  H   H1334     1.0  0.99410  0.78443  0.33275  1.0000
  C   C757      1.0  0.99461  0.84226  0.38820  1.0000
  C   C758      1.0  0.84602  0.91669  0.42492  1.0000
  C   C759      1.0  0.00685  0.66095  0.03534  1.0000
  H   H1335     1.0  0.97348  0.73562  0.42862  1.0000
  C   C760      1.0  0.87843  0.75066  0.02443  1.0000
  H   H1336     1.0  0.98766  0.73055  0.24225  1.0000
  C   C761      1.0  0.77207  0.94093  0.99247  1.0000
  H   H1337     1.0  0.90077  0.72932  0.06177  1.0000
  H   H1338     1.0  0.56683  0.93444  0.38292  1.0000
  H   H1339     1.0  0.93459  0.77839  0.24213  1.0000
  H   H1340     1.0  0.68792  0.92924  0.07498  1.0000
  H   H1341     1.0  0.84542  0.71642  0.47447  1.0000
  H   H1342     1.0  0.82861  0.89790  0.38380  1.0000
  C   C762      1.0  0.91041  0.71244  0.19538  1.0000
  C   C763      1.0  0.59515  0.89274  0.46055  1.0000
  C   C764      1.0  0.91128  0.72790  0.24950  1.0000
  H   H1343     1.0  0.88313  0.70587  0.19796  1.0000
  Fe  Fe85      1.0  0.87242  0.68099  0.10798  1.0000
  H   H1344     1.0  0.61085  0.93077  0.44604  1.0000
  H   H1345     1.0  0.92014  0.77752  0.03505  1.0000
  Fe  Fe86      1.0  0.80543  0.64838  0.10004  1.0000
  H   H1346     1.0  0.90318  0.78271  0.45327  1.0000
  H   H1347     1.0  0.69595  0.76949  0.21483  1.0000
  C   C765      1.0  0.65080  0.87859  0.35857  1.0000
  C   C766      1.0  0.87822  0.74203  0.05703  1.0000
  H   H1348     1.0  0.90121  0.75179  0.20964  1.0000
  H   H1349     1.0  0.79529  0.85351  0.46677  1.0000
  H   H1350     1.0  0.87131  0.92265  0.43449  1.0000
  H   H1351     1.0  0.71251  0.67296  0.46621  1.0000
  C   C767      1.0  0.96690  0.67762  0.11722  1.0000
  C   C768      1.0  0.91827  0.73532  0.21634  1.0000
  H   H1352     1.0  0.68206  0.73657  0.17471  1.0000
  C   C769      1.0  0.85325  0.90349  0.39493  1.0000
  H   H1353     1.0  0.77800  0.92946  0.01283  1.0000
  H   H1354     1.0  0.65085  0.80795  0.11354  1.0000
  H   H1355     1.0  0.69120  0.72675  0.44507  1.0000
  H   H1356     1.0  0.56035  0.88458  0.38444  1.0000
  C   C770      1.0  0.59813  0.91341  0.43599  1.0000
  H   H1357     1.0  0.68144  0.69232  0.48479  1.0000
  C   C771      1.0  0.56296  0.89592  0.36344  1.0000
  H   H1358     1.0  0.67867  0.77803  0.16655  1.0000
  C   C772      1.0  0.91329  0.76403  0.01641  1.0000
  H   H1359     1.0  0.91435  0.71855  0.17178  1.0000
  H   H1360     1.0  0.81171  0.94835  0.46354  1.0000
  H   H1361     1.0  0.97981  0.76558  0.40897  1.0000
  C   C773      1.0  0.69025  0.94637  0.05987  1.0000
  H   H1362     1.0  0.99473  0.67422  0.01858  1.0000
  H   H1363     1.0  0.80170  0.89251  0.43533  1.0000
  H   H1364     1.0  0.65721  0.94581  0.39962  1.0000
  C   C774      1.0  0.98891  0.74574  0.25991  1.0000
  C   C775      1.0  0.86753  0.81222  0.00090  1.0000
  H   H1365     1.0  0.73756  0.96266  0.48275  1.0000
  H   H1366     1.0  0.80880  0.95194  0.04422  1.0000
  H   H1367     1.0  0.86744  0.91715  0.38001  1.0000
  C   C776      1.0  0.92128  0.77275  0.43772  1.0000
  H   H1368     1.0  0.91049  0.75314  0.43245  1.0000
  H   H1369     1.0  0.66594  0.94786  0.04676  1.0000
  H   H1370     1.0  0.92178  0.81643  0.00740  1.0000
  H   H1371     1.0  0.00850  0.73998  0.37843  1.0000
  C   C777      1.0  0.85986  0.84153  0.00038  1.0000
  H   H1372     1.0  0.99483  0.85862  0.40351  1.0000
  H   H1373     1.0  0.87723  0.85211  0.01606  1.0000
  H   H1374     1.0  0.69356  0.96421  0.07370  1.0000
  N   N42       1.0  0.75931  0.96803  0.00014  1.0000
  H   H1375     1.0  0.75766  0.70935  0.47714  1.0000
  H   H1376     1.0  0.94049  0.82612  0.25158  1.0000
  C   C778      1.0  0.70937  0.68704  0.48499  1.0000
  H   H1377     1.0  0.60693  0.97060  0.35385  1.0000
  C   C779      1.0  0.63318  0.96646  0.36278  1.0000
  Fe  Fe87      1.0  0.62257  0.96704  0.98703  1.0000
  H   H1378     1.0  0.51228  0.88284  0.34847  1.0000
  H   H1379     1.0  0.94100  0.65135  0.05897  1.0000
  H   H1380     1.0  0.54493  0.97071  0.09722  1.0000
  N   N43       1.0  0.81934  0.90807  0.47743  1.0000
  H   H1381     1.0  0.95357  0.75936  0.47336  1.0000
  H   H1382     1.0  0.01011  0.72566  0.47247  1.0000
  H   H1383     1.0  0.82628  0.90380  0.99132  1.0000
  C   C780      1.0  0.79701  0.93219  0.47430  1.0000
  H   H1384     1.0  0.97680  0.81409  0.99098  1.0000
  H   H1385     1.0  0.77774  0.97231  0.06375  1.0000
  C   C781      1.0  0.79891  0.97210  0.04700  1.0000
  H   H1386     1.0  0.83687  0.98015  0.08164  1.0000
  N   N44       1.0  0.91513  0.77833  0.98687  1.0000
  Fe  Fe88      1.0  0.80965  0.71315  0.59392  1.0000
  S   S174      1.0  0.78405  0.74421  0.56540  1.0000
  Fe  Fe89      1.0  0.83138  0.69652  0.65742  1.0000
  S   S175      1.0  0.83883  0.70318  0.70785  1.0000
  S   S176      1.0  0.85780  0.71961  0.62122  1.0000
  S   S177      1.0  0.78127  0.69359  0.63183  1.0000
  H   H1387     1.0  0.92716  0.84511  0.78861  1.0000
  H   H1388     1.0  0.68546  0.87799  0.98119  1.0000
  H   H1389     1.0  0.76184  0.77875  0.51856  1.0000
  H   H1390     1.0  0.70626  0.80534  0.83237  1.0000
  C   C782      1.0  0.71138  0.80472  0.80795  1.0000
  C   C783      1.0  0.70040  0.64845  0.51657  1.0000
  Fe  Fe90      1.0  0.81933  0.80980  0.83888  1.0000
  S   S178      1.0  0.84192  0.84718  0.85726  1.0000
  S   S179      1.0  0.81502  0.80485  0.78819  1.0000
  Fe  Fe91      1.0  0.80522  0.78883  0.90172  1.0000
  S   S180      1.0  0.82659  0.82435  0.92446  1.0000
  S   S181      1.0  0.78847  0.75175  0.92510  1.0000
  Fe  Fe92      1.0  0.79688  0.84723  0.88982  1.0000
  S   S182      1.0  0.76826  0.88629  0.89690  1.0000
  Fe  Fe93      1.0  0.86931  0.82138  0.89026  1.0000
  S   S183      1.0  0.92440  0.82043  0.90786  1.0000
  S   S184      1.0  0.77254  0.81147  0.86901  1.0000
  S   S185      1.0  0.84976  0.78420  0.86982  1.0000
  H   H1391     1.0  0.90935  0.81735  0.96920  1.0000
  C   C784      1.0  0.96236  0.82679  0.88709  1.0000
  C   C785      1.0  0.96162  0.83927  0.85927  1.0000
  H   H1392     1.0  0.99893  0.68520  0.56776  1.0000
  H   H1393     1.0  0.93721  0.84583  0.85009  1.0000
  C   C786      1.0  0.68148  0.91568  0.95994  1.0000
  C   C787      1.0  0.69513  0.89036  0.96342  1.0000
  C   C788      1.0  0.72131  0.88086  0.94422  1.0000
  C   C789      1.0  0.73442  0.89669  0.92133  1.0000
  C   C790      1.0  0.72069  0.92201  0.91785  1.0000
  C   C791      1.0  0.69419  0.93135  0.93679  1.0000
  H   H1394     1.0  0.79792  0.94605  0.94901  1.0000
  H   H1395     1.0  0.73154  0.86137  0.94729  1.0000
  H   H1396     1.0  0.73062  0.93448  0.90029  1.0000
  H   H1397     1.0  0.68392  0.95081  0.93369  1.0000
  H   H1398     1.0  0.63479  0.97311  0.83330  1.0000
  Fe  Fe94      1.0  0.63609  0.96445  0.49449  1.0000
  H   H1399     1.0  0.68161  0.69983  0.53605  1.0000
  C   C792      1.0  0.78908  0.84117  0.51213  1.0000
  H   H1400     1.0  0.86339  0.84959  0.97751  1.0000
  H   H1401     1.0  0.54014  0.92207  0.94355  1.0000
  H   H1402     1.0  0.00806  0.75769  0.48785  1.0000
  H   H1403     1.0  0.57902  0.91258  0.83236  1.0000
  S   S186      1.0  0.56462  0.97158  0.98069  1.0000
  C   C793      1.0  0.79632  0.74663  0.52741  1.0000
  C   C794      1.0  0.82045  0.72947  0.51491  1.0000
  C   C795      1.0  0.59149  0.91922  0.92347  1.0000
  C   C796      1.0  0.78797  0.74994  0.96459  1.0000
  Fe  Fe95      1.0  0.80157  0.65613  0.61194  1.0000
  H   H1404     1.0  0.57225  0.90626  0.96651  1.0000
  H   H1405     1.0  0.83331  0.71528  0.52883  1.0000
  H   H1406     1.0  0.99515  0.80960  0.92068  1.0000
  H   H1407     1.0  0.79194  0.70793  0.96492  1.0000
  C   C797      1.0  0.65484  0.90715  0.83966  1.0000
  C   C798      1.0  0.83341  0.73214  0.72931  1.0000
  C   C799      1.0  0.82175  0.75557  0.71679  1.0000
  C   C800      1.0  0.81673  0.77772  0.73507  1.0000
  C   C801      1.0  0.82347  0.77679  0.76598  1.0000
  C   C802      1.0  0.83575  0.75351  0.77840  1.0000
  C   C803      1.0  0.84034  0.73129  0.76019  1.0000
  H   H1408     1.0  0.81621  0.75655  0.69310  1.0000
  H   H1409     1.0  0.80727  0.79566  0.72520  1.0000
  H   H1410     1.0  0.84105  0.75250  0.80211  1.0000
  H   H1411     1.0  0.84860  0.71312  0.77017  1.0000
  C   C804      1.0  0.89269  0.76608  0.96298  1.0000
  H   H1412     1.0  0.53602  0.93193  0.79530  1.0000
  N   N45       1.0  0.60568  0.93195  0.86853  1.0000
  H   H1413     1.0  0.69789  0.87573  0.48714  1.0000
  H   H1414     1.0  0.63804  0.89677  0.82332  1.0000
  C   C805      1.0  0.71110  0.68109  0.57146  1.0000
  H   H1415     1.0  0.76323  0.65803  0.53695  1.0000
  H   H1416     1.0  0.76057  0.84406  0.51204  1.0000
  C   C806      1.0  0.58859  0.93251  0.83813  1.0000
  H   H1417     1.0  0.63233  0.95726  0.89973  1.0000
  C   C807      1.0  0.79927  0.88805  0.49544  1.0000
  H   H1418     1.0  0.69543  0.73926  0.85487  1.0000
  S   S187      1.0  0.92722  0.67964  0.58178  1.0000
  C   C808      1.0  0.54467  0.95176  0.80209  1.0000
  H   H1419     1.0  0.68314  0.76915  0.80160  1.0000
  H   H1420     1.0  0.71267  0.77757  0.77178  1.0000
  H   H1421     1.0  0.71687  0.70579  0.71461  1.0000
  H   H1422     1.0  0.59703  0.97210  0.88164  1.0000
  H   H1423     1.0  0.55785  0.93882  0.89282  1.0000
  C   C809      1.0  0.78991  0.72537  0.97846  1.0000
  H   H1424     1.0  0.56545  0.90547  0.88337  1.0000
  S   S188      1.0  0.85019  0.65739  0.64033  1.0000
  H   H1425     1.0  0.90994  0.70756  0.75561  1.0000
  C   C810      1.0  0.99275  0.84374  0.84362  1.0000
  H   H1426     1.0  0.70582  0.90065  0.85904  1.0000
  H   H1427     1.0  0.69163  0.81689  0.79649  1.0000
  C   C811      1.0  0.96453  0.66959  0.60125  1.0000
  C   C812      1.0  0.68673  0.89011  0.84495  1.0000
  H   H1428     1.0  0.92457  0.92082  0.49442  1.0000
  H   H1429     1.0  0.72499  0.71036  0.53920  1.0000
  H   H1430     1.0  0.75103  0.68184  0.71281  1.0000
  C   C813      1.0  0.57850  0.92375  0.89098  1.0000
  C   C814      1.0  0.69986  0.70123  0.59470  1.0000
  C   C815      1.0  0.70845  0.69251  0.53939  1.0000
  H   H1431     1.0  0.53564  0.94567  0.84861  1.0000
  H   H1432     1.0  0.65330  0.70874  0.87662  1.0000
  C   C816      1.0  0.78061  0.76547  0.50907  1.0000
  C   C817      1.0  0.65860  0.70816  0.85221  1.0000
  H   H1433     1.0  0.79639  0.89820  0.96081  1.0000
  H   H1434     1.0  0.71693  0.71872  0.59378  1.0000
  H   H1435     1.0  0.00713  0.73409  0.71256  1.0000
  C   C818      1.0  0.75727  0.66960  0.51655  1.0000
  H   H1436     1.0  0.93305  0.88990  0.51217  1.0000
  H   H1437     1.0  0.80288  0.94974  0.51920  1.0000
  H   H1438     1.0  0.78288  0.79132  0.97185  1.0000
  N   N46       1.0  0.71883  0.67440  0.51434  1.0000
  H   H1439     1.0  0.95379  0.78573  0.95273  1.0000
  H   H1440     1.0  0.67957  0.87147  0.85611  1.0000
  H   H1441     1.0  0.85339  0.72092  0.94762  1.0000
  H   H1442     1.0  0.86527  0.76464  0.97014  1.0000
  H   H1443     1.0  0.61326  0.90514  0.92444  1.0000
  H   H1444     1.0  0.92763  0.74033  0.93800  1.0000
  H   H1445     1.0  0.99276  0.75076  0.68037  1.0000
  H   H1446     1.0  0.94930  0.70981  0.71050  1.0000
  H   H1447     1.0  0.70176  0.69257  0.61741  1.0000
  H   H1448     1.0  0.66365  0.92559  0.82921  1.0000
  S   S189      1.0  0.67026  0.92757  0.49481  1.0000
  H   H1449     1.0  0.73812  0.67538  0.57667  1.0000
  C   C819      1.0  0.55775  0.95162  0.83436  1.0000
  H   H1450     1.0  0.99051  0.70775  0.65163  1.0000
  H   H1451     1.0  0.67262  0.70729  0.59082  1.0000
  H   H1452     1.0  0.79460  0.82045  0.50667  1.0000
  H   H1453     1.0  0.65358  0.91669  0.88699  1.0000
  H   H1454     1.0  0.79942  0.84526  0.53483  1.0000
  S   S190      1.0  0.82728  0.67574  0.57303  1.0000
  N   N47       1.0  0.73694  0.73064  0.80281  1.0000
  C   C820      1.0  0.73784  0.75932  0.81078  1.0000
  C   C821      1.0  0.76768  0.71657  0.81635  1.0000
  C   C822      1.0  0.73944  0.72867  0.76910  1.0000
  C   C823      1.0  0.70347  0.71789  0.81236  1.0000
  C   C824      1.0  0.69480  0.71902  0.84611  1.0000
  C   C825      1.0  0.70938  0.77665  0.79640  1.0000
  C   C826      1.0  0.74630  0.70101  0.75597  1.0000
  C   C827      1.0  0.78193  0.72684  0.84665  1.0000
  C   C828      1.0  0.80993  0.70868  0.85894  1.0000
  H   H1455     1.0  0.89189  0.77886  0.94280  1.0000
  H   H1456     1.0  0.56538  0.97190  0.84007  1.0000
  C   C829      1.0  0.74372  0.70129  0.72184  1.0000
  H   H1457     1.0  0.76324  0.76775  0.80410  1.0000
  H   H1458     1.0  0.73642  0.76237  0.83528  1.0000
  H   H1459     1.0  0.76207  0.69530  0.81868  1.0000
  H   H1460     1.0  0.79029  0.71770  0.80112  1.0000
  H   H1461     1.0  0.76055  0.74160  0.76063  1.0000
  H   H1462     1.0  0.71520  0.73585  0.75844  1.0000
  H   H1463     1.0  0.68125  0.72612  0.79966  1.0000
  H   H1464     1.0  0.70359  0.69681  0.80651  1.0000
  H   H1465     1.0  0.99834  0.73750  0.84549  1.0000
  H   H1466     1.0  0.71328  0.70675  0.85888  1.0000
  H   H1467     1.0  0.63865  0.72008  0.84064  1.0000
  H   H1468     1.0  0.90879  0.91451  0.53191  1.0000
  H   H1469     1.0  0.72743  0.68643  0.76431  1.0000
  H   H1470     1.0  0.77272  0.69412  0.76174  1.0000
  H   H1471     1.0  0.79397  0.74638  0.84354  1.0000
  H   H1472     1.0  0.76151  0.72882  0.86382  1.0000
  H   H1473     1.0  0.83150  0.70669  0.84268  1.0000
  H   H1474     1.0  0.82055  0.71688  0.88001  1.0000
  H   H1475     1.0  0.79891  0.68910  0.86391  1.0000
  H   H1476     1.0  0.84825  0.80256  0.98631  1.0000
  Fe  Fe96      1.0  0.87389  0.68070  0.60289  1.0000
  H   H1477     1.0  0.65660  0.68754  0.84460  1.0000
  H   H1478     1.0  0.73731  0.81326  0.80334  1.0000
  C   C830      1.0  0.96236  0.65580  0.62816  1.0000
  C   C831      1.0  0.63452  0.91186  0.86914  1.0000
  H   H1479     1.0  0.99217  0.85373  0.82231  1.0000
  H   H1480     1.0  0.69933  0.88549  0.82328  1.0000
  C   C832      1.0  0.91362  0.90573  0.50959  1.0000
  N   N48       1.0  0.96385  0.76814  0.80176  1.0000
  H   H1481     1.0  0.60739  0.93759  0.82034  1.0000
  C   C833      1.0  0.93860  0.74824  0.78921  1.0000
  C   C834      1.0  0.95401  0.79465  0.78950  1.0000
  C   C835      1.0  0.96133  0.76941  0.83538  1.0000
  C   C836      1.0  0.97275  0.74481  0.85281  1.0000
  C   C837      1.0  0.99715  0.67467  0.58868  1.0000
  C   C838      1.0  0.91620  0.80369  0.79553  1.0000
  C   C839      1.0  0.95208  0.71989  0.78491  1.0000
  C   C840      1.0  0.92279  0.70118  0.77661  1.0000
  C   C841      1.0  0.97551  0.75065  0.88624  1.0000
  H   H1482     1.0  0.76160  0.71606  0.71217  1.0000
  C   C842      1.0  0.90894  0.82989  0.78041  1.0000
  C   C843      1.0  0.95166  0.70895  0.68580  1.0000
  H   H1483     1.0  0.55391  0.88902  0.93512  1.0000
  H   H1484     1.0  0.91477  0.74739  0.80325  1.0000
  H   H1485     1.0  0.92939  0.75431  0.76659  1.0000
  H   H1486     1.0  0.95827  0.79520  0.76485  1.0000
  H   H1487     1.0  0.97086  0.81014  0.79901  1.0000
  H   H1488     1.0  0.97608  0.78646  0.84402  1.0000
  H   H1489     1.0  0.93419  0.77310  0.84249  1.0000
  C   C844      1.0  0.95216  0.77773  0.97587  1.0000
  H   H1490     1.0  0.95307  0.72918  0.84998  1.0000
  C   C845      1.0  0.56254  0.90847  0.94325  1.0000
  C   C846      1.0  0.66029  0.64957  0.51734  1.0000
  H   H1491     1.0  0.91152  0.80645  0.81978  1.0000
  H   H1492     1.0  0.89702  0.78941  0.78691  1.0000
  H   H1493     1.0  0.97124  0.71935  0.76638  1.0000
  H   H1494     1.0  0.96474  0.71223  0.80529  1.0000
  H   H1495     1.0  0.93336  0.68126  0.77300  1.0000
  H   H1496     1.0  0.90336  0.70019  0.79488  1.0000
  H   H1497     1.0  0.95153  0.76021  0.89447  1.0000
  H   H1498     1.0  0.97959  0.73221  0.89884  1.0000
  H   H1499     1.0  0.93888  0.69076  0.67791  1.0000
  C   C847      1.0  0.98971  0.70894  0.67638  1.0000
  H   H1500     1.0  0.93776  0.72580  0.67574  1.0000
  H   H1501     1.0  0.91123  0.82810  0.75575  1.0000
  H   H1502     1.0  0.88216  0.83627  0.78576  1.0000
  C   C848      1.0  0.00865  0.73379  0.68773  1.0000
  H   H1503     1.0  0.72334  0.72812  0.49360  1.0000
  C   C849      1.0  0.61896  0.95847  0.87777  1.0000
  H   H1504     1.0  0.62413  0.89223  0.87529  1.0000
  C   C850      1.0  0.99429  0.81890  0.89905  1.0000
  H   H1505     1.0  0.60027  0.93788  0.93352  1.0000
  C   C851      1.0  0.78487  0.77233  0.98231  1.0000
  C   C852      1.0  0.00033  0.76237  0.79140  1.0000
  H   H1506     1.0  0.00127  0.76235  0.76649  1.0000
  H   H1507     1.0  0.84629  0.92232  0.51657  1.0000
  C   C853      1.0  0.78193  0.94365  0.50376  1.0000
  C   C854      1.0  0.64497  0.97182  0.85641  1.0000
  H   H1508     1.0  0.66982  0.96098  0.85647  1.0000
  H   H1509     1.0  0.77152  0.68832  0.51972  1.0000
  C   C855      1.0  0.80437  0.93933  0.97196  1.0000
  H   H1510     1.0  0.99789  0.76376  0.89058  1.0000
  C   C856      1.0  0.81727  0.91118  0.96931  1.0000
  H   H1511     1.0  0.80289  0.89149  0.51984  1.0000
  H   H1512     1.0  0.75105  0.92981  0.98107  1.0000
  H   H1513     1.0  0.82539  0.67155  0.49554  1.0000
  H   H1514     1.0  0.65079  0.66236  0.53554  1.0000
  H   H1515     1.0  0.86851  0.73786  0.91460  1.0000
  H   H1516     1.0  0.73649  0.96961  0.95608  1.0000
  S   S191      1.0  0.57764  0.96147  0.49563  1.0000
  H   H1517     1.0  0.83923  0.91031  0.95331  1.0000
  H   H1518     1.0  0.74910  0.97548  0.51879  1.0000
  H   H1519     1.0  0.00865  0.74253  0.79819  1.0000
  H   H1520     1.0  0.69428  0.66370  0.57432  1.0000
  H   H1521     1.0  0.92849  0.65434  0.51131  1.0000
  C   C857      1.0  0.85217  0.91584  0.49341  1.0000
  C   C858      1.0  0.90432  0.73859  0.95231  1.0000
  H   H1522     1.0  0.91091  0.72573  0.97144  1.0000
  H   H1523     1.0  0.88636  0.70648  0.92462  1.0000
  C   C859      1.0  0.87639  0.72522  0.93362  1.0000
  H   H1524     1.0  0.87118  0.87904  0.51220  1.0000
  C   C860      1.0  0.88020  0.89443  0.49657  1.0000
  H   H1525     1.0  0.96151  0.75722  0.97437  1.0000
  H   H1526     1.0  0.93730  0.65172  0.63792  1.0000
  S   S192      1.0  0.64936  0.92702  0.98544  1.0000
  H   H1527     1.0  0.65004  0.65694  0.49575  1.0000
  H   H1528     1.0  0.00176  0.69102  0.68569  1.0000
  H   H1529     1.0  0.56525  0.95865  0.78663  1.0000
  H   H1530     1.0  0.52224  0.96521  0.80008  1.0000
  C   C861      1.0  0.75972  0.96776  0.49747  1.0000
  H   H1531     1.0  0.83427  0.85405  0.48853  1.0000
  C   C862      1.0  0.81296  0.65201  0.49418  1.0000
  H   H1532     1.0  0.88775  0.65800  0.53075  1.0000
  H   H1533     1.0  0.82598  0.95133  0.98079  1.0000
  H   H1534     1.0  0.76517  0.92930  0.51547  1.0000
  H   H1535     1.0  0.77096  0.89026  0.49149  1.0000
  C   C863      1.0  0.77392  0.65478  0.48992  1.0000
  H   H1536     1.0  0.88836  0.64832  0.49206  1.0000
  C   C864      1.0  0.80635  0.85875  0.48890  1.0000
