data_image0
_chemical_formula_structural       SHFeSHNHCH3CHCFeSFeS3FeS2FeS2FeSFeS3C6H4C6H4C2H2C2H2CH4CH2CH2FeH4C7H5CH3CHC3HSHC2H5CH3CSNH5CHSH3C3H2CH2CH3SCNHC2H3CH2C2H7C2H7SHC2H4CH4NC8HCH15CH3SFeH4NHC3HCH8CHSC2H4CHNC10HCH30C2HC2H4FeHCFeHC2HCH3CHNC9H2CHC2H7CHCH3FeH2SHCHSH2CH3CHFeCHC2HCH3CSHCFeSHC2SHC3H2SHFeSHCH3CFeSFeS3FeS2FeS2FeSFeS3C6H4C6H5C2H2CH4C6H4CHC2SCHFeCH5SH5SHC2SH3CH3CH2C6H6C2HSH8CSH7CHC2NC6HC4H13CH11CHCHNC4HC4HCH7NCHCH2CSH5C2HCH2C3NC9HC2H17NHCH6C3H5NH2CH3CH5CHCH8CH2SH2CH3CH2CSH2CH3C2FeH3CH2CH2CHC4H3FeH3SH4C2H3CFeCHCHCFeCH7CHNFeS2FeS2FeSFeS3CH2C2HFeSFeS3HCSHSH7CFeC8H4C2H3C6H4C6H6CHC3H3CH6CHNC4HC4H2CH28NC4SC4HC2H8CH6CH3CHC2H2CH5CNCH2CHCH3C4HCH2CH3SH2C2HCH2CH2FeHCHCHCHNHCHCHCHCH2CHSHC2H4CH4CH5NC10H22FeH2FeH3CH4FeHC2H2CH2CH4C2HC4SH2CH7CH2CH2CSH3CHSCH2CHC2SHNCHC2FeHCH2SHFeSFeS2FeS2HCHFeH2FeS2FeS2FeSFeS3HC2H2CHCHCH2SH3C2HCFeH16C6H4C6H4C6H5NC7NC2H20CSHCH8C2H3CHCHC4HCH2SCH2C2H2C2H5CH2C2H6SC2HSC2H4CNC11H27CHCHCH2C4SH4CSH6CHNC2H3SHSHFeHC3H9CHSHFeSH2SHCH2FeHCFeSFeS3FeS2FeS2FeSFeS3C6H4C6H4C3HC2HCHFeH10CH2CHC6H8CH3CHC3H2CH2CHNC6HC4H27NHNC9HCH11CH5C2H5NFeSCHCH3CH4C2S2HC2H6SH2C2H3C2H2NC6H2C2H12SH2FeCHCH4CH2SH5CH2SH4CHC2NC5HC4HCH10CH12CH3CHC2H2CHCHFeCHSH3CHSHCHCH2CHSH2SCFeSHFeCFeH2FeSFeS3FeS2FeS2FeSFeS3C6H4C6H5FeCH3C2H2C6H4C2H3CHSC2H5NC10H9CH9CH2NC11H23SH3CH2CS2H2CH2C2H3FeCFeC2H3C2HNHCH5CFeHSHCH5NC11H17CH9CH3CH7CH6CH3NCHCSHC2H3SHC2HC2SHSCNHCHCSCH2SHCH3CSC2HCFeS2FeS2FeSFeS3HCH4FeSFeS3HFeSHSHCHC3H5C6H4C3H2C6H4C6H7CHCH4CH3C2H2NHCH2CH3C2H5CH3C2SHSCHCH4C2H3C4H5C2H7CHCH2CNHCHC2H15CHCH3NH4C2HCHSH5C2H9C3HCH2C2HCH10CH2NC6H2CH11SH2C2H5CH5NC3SH2CH4C2HC3H4CH2CSHCFeCFeH3C2HCHC2HCHCHNSH3CH4C2Fe2HSCH2CFeC3H2CHCH2NH2CHCHSHFeSFeS2FeS3H3CSFeS2FeS2FeSFeS3HCHCH3C2HCH2CHCHC4H2C2H6SNH3C7H4C6H4C6H5NC6H2C3FeH3CH9CH2CHCH7CHNHCH2S2HCHCHC2H3FeH2CH3CHCH6CH4C3H4NC12H28C3H3C2H2C2H4CH8CHCH2CH2CH2NH7CH3NCNH2C2H2C2HC3FeH4CSCHCH5C2HFeH2CH3C2H5CH2SHC2H2C2H2CH3FeHC2HCH7CFeSH2C2SC2H2C2H2FeCSH2SHC2HCH4FeS2FeS2FeSFeS3H3C2HFeSFeS3C6H4C6H7C6H2CH3CH3C2HCH2C6H4CH4CHCH3FeH4CFeCH3CH6CH3SH5C3HC2HCHCH4CHC4H5CH3CHCH3NC12H28CH4C2SH2NSHC5NCH6CH4C2HCH4CH6NCHC3H2CNC2HCH5SH2CH5SH2CHCH3NH2CH2CH3CHFeC2SC2H3CHCH3C2HCH4FeH2C2H11CHCH2CSCHCNHCH4CFeHSHC2HSH2SCH2FeSFeS3FeS2FeS2FeSFeS3CNCH7C6H4C6H4C6H5CH5CH5C3H5CH3CHCFeH2CH4C2H3SC3H7CHFeH5SH3CH5C2H3CH2C2FeCHCHSCHCHSC2SHN2C12H28CHCHC3H13CH7NHCHSH2C2H2CH4CHSC2NC6H2C2H3C4H6C4HCH4FeC3H3CH2CFeHCSHNSHCH2FeH3CSCH2CH5CH3CH3FeS2FeS2HCHSFeCFeS2FeS2FeSFeS4H3FeSH4SC6H4C6H4C6H4C2NH2CH3C2H5CHC2H3CH3C2SHC2H4CH5CH3CH2C4H9C3HCSHC2HFeC2NH2CH9SCH2CHFeNH8CH3SHS2H10CH3FeNH6CH2C3H2CS2NC12H31CHCH3CH4C2H2C2HC2H4CH5CHC2SHCNC5H3CHC4HC2FeCHC3HSCH2CH3SH3CFeSH4C3HCHCFeHSCHSHFeS2FeS2FeSFeS3FeS2FeS2CHCHCNH2CSH3CH2SH6CH2C2H3C6H4C6H4C6H4CH3CH2SHFeCH4NC2HCH4CHCHCH6CHCHCHNH3CHCH3SH4CHCSH2NC12H27CH6CH2CHCH11CHCH2NC12H23CH2C2H4NC6H3C2H13SC3H4CH3NC12H5CHC2H2CH2C2H2C3H3CHC2H3C2H2C3H13CH2FeHCS3CHSCFe2SFeC2H2CHC2HFeSC3H2CFeCFeHSH2SHC2H2FeCH2FeS2FeS2FeSFeS3HC2H3FeSFeS3C6H4C6H4CH5C2H5CH2CHSH6C6H5C2HSH3CHCH3S2CH5CNH2CH2CH3NC9HCH9C2H5CH4C2H4CSH9C2H2C2H9CH3C2H3CHCH2C2H3C2H8N2C9HC2H8C2H3CHC2HC2H4Fe2CFeHC4SHCS2H4C2HC2SCSH2CH4CH2SC2HCH3FeCSH2C2SH2CH2CFeSFeS3FeS2FeS2FeSFeS3CHCH2C4HC6H4C6H4C6H4CH3CHC2HC2H2CH3CH6N2HC2H3CHCHCHCH5FeHCSH9C2HCHSH2CH3NC12H27CH2CH2CHCH3NHC2HCH2SC2H4CH4C2H9SH3CH3CSCHCH6FeHCH2CH7C2HCHCH2CH3NC8H4CHSHCH10CFeCH3CH6CH2CH2CHCSH3C4H2CH2CH7FeS2FeS2HCH3CFeS2FeS2FeSFeS4HCHFeSCHC9H4C6H4C6H4C3H3C2HC2H3C2SH4SCHCHCHSH6NH7FeH7C2H2NC2HC2H12NC10H13CH6NC2H2SC3HCH4CSCH2CH3C2H4C2SCH3NC7H2CH9CHCH4C2H5FeH5CHCH9CFeH2CH3CH2CHCHCH2C2H4CHCH3CH6C2H2CS3H2SHC2H5C2FeCH2CHCHCH2FeHSH2SHFeS2FeS2FeSFeS3FeS2FeS2CSCH4CH2CH3CNH2SHCHFeCH2C3H2C6H4C6H4C6H6CH2CH3NC2HC3SHC2H22NC5HC5H2NH9CH11CH2SHCNC2H2C2HCH2CH4CHCH2C2H2C2HCH7C2HNCHC4SH2C2H13CH4SHC3H2CH2FeH2CHCHCHCHFeHC2H3SH4FeCHCH2CS2C3H2CH2SH4
_chemical_formula_sum              "S384 H3072 Fe192 N96 C1728"
_cell_length_a       57.0116
_cell_length_b       47.4812
_cell_length_c       78.2623
_cell_angle_alpha    90.1859
_cell_angle_beta     89.8505
_cell_angle_gamma    89.6027

_space_group_name_H-M_alt    "P 1"
_space_group_IT_number       1

loop_
  _space_group_symop_operation_xyz
  'x, y, z'

loop_
  _atom_site_type_symbol
  _atom_site_label
  _atom_site_symmetry_multiplicity
  _atom_site_fract_x
  _atom_site_fract_y
  _atom_site_fract_z
  _atom_site_occupancy
  S   S1        1.0  0.00412  0.23870  0.21842  1.0000
  H   H1        1.0  0.07671  0.13751  0.15615  1.0000
  Fe  Fe1       1.0  0.00765  0.24091  0.18972  1.0000
  S   S2        1.0  0.04640  0.24409  0.18111  1.0000
  H   H2        1.0  0.02836  0.19127  0.13085  1.0000
  N   N1        1.0  0.04179  0.14325  0.18350  1.0000
  H   H3        1.0  0.22275  0.07941  0.01133  1.0000
  C   C1        1.0  0.98372  0.13218  0.24346  1.0000
  H   H4        1.0  0.46471  0.45722  0.10581  1.0000
  H   H5        1.0  0.02976  0.12847  0.15874  1.0000
  H   H6        1.0  0.24143  0.04309  0.06858  1.0000
  C   C2        1.0  0.29608  0.00035  0.02006  1.0000
  H   H7        1.0  0.07613  0.28564  0.03946  1.0000
  C   C3        1.0  0.02526  0.12946  0.19601  1.0000
  Fe  Fe2       1.0  0.26595  0.01754  0.09977  1.0000
  S   S3        1.0  0.23499  0.04658  0.10658  1.0000
  Fe  Fe3       1.0  0.27446  0.44892  0.09774  1.0000
  S   S4        1.0  0.26397  0.40539  0.10775  1.0000
  S   S5        1.0  0.29841  0.03152  0.08610  1.0000
  S   S6        1.0  0.30928  0.45147  0.08417  1.0000
  Fe  Fe4       1.0  0.18100  0.27025  0.08752  1.0000
  S   S7        1.0  0.14626  0.25626  0.07694  1.0000
  S   S8        1.0  0.18394  0.31843  0.08578  1.0000
  Fe  Fe5       1.0  0.19396  0.20870  0.09601  1.0000
  S   S9        1.0  0.15942  0.19194  0.08686  1.0000
  S   S10       1.0  0.22520  0.18101  0.10380  1.0000
  Fe  Fe6       1.0  0.16551  0.22060  0.06446  1.0000
  S   S11       1.0  0.15784  0.20204  0.03828  1.0000
  Fe  Fe7       1.0  0.14278  0.22929  0.10040  1.0000
  S   S12       1.0  0.10499  0.23219  0.11109  1.0000
  S   S13       1.0  0.20054  0.23629  0.07302  1.0000
  S   S14       1.0  0.17710  0.24429  0.11143  1.0000
  C   C4        1.0  0.24178  0.38150  0.10108  1.0000
  C   C5        1.0  0.22164  0.39042  0.09241  1.0000
  C   C6        1.0  0.20420  0.37082  0.08784  1.0000
  C   C7        1.0  0.20665  0.34204  0.09182  1.0000
  C   C8        1.0  0.22678  0.33311  0.10049  1.0000
  C   C9        1.0  0.24416  0.35275  0.10513  1.0000
  H   H8        1.0  0.21927  0.41253  0.08957  1.0000
  H   H9        1.0  0.18864  0.37804  0.08125  1.0000
  H   H10       1.0  0.22893  0.31110  0.10371  1.0000
  H   H11       1.0  0.25956  0.34560  0.11195  1.0000
  C   C10       1.0  0.23285  0.08388  0.10433  1.0000
  C   C11       1.0  0.25259  0.10123  0.10473  1.0000
  C   C12       1.0  0.24994  0.13083  0.10421  1.0000
  C   C13       1.0  0.22759  0.14352  0.10307  1.0000
  C   C14       1.0  0.20790  0.12613  0.10213  1.0000
  C   C15       1.0  0.21053  0.09655  0.10295  1.0000
  H   H12       1.0  0.26984  0.09187  0.10600  1.0000
  H   H13       1.0  0.26529  0.14401  0.10503  1.0000
  H   H14       1.0  0.19059  0.13550  0.10134  1.0000
  H   H15       1.0  0.19512  0.08340  0.10274  1.0000
  C   C16       1.0  0.17535  0.24534  0.01848  1.0000
  C   C17       1.0  0.16497  0.21876  0.01880  1.0000
  H   H16       1.0  0.20370  0.15620  0.06843  1.0000
  H   H17       1.0  0.18075  0.25514  0.03030  1.0000
  C   C18       1.0  0.08267  0.13539  0.16956  1.0000
  C   C19       1.0  0.28763  0.46905  0.00232  1.0000
  H   H18       1.0  0.30989  0.08572  0.06970  1.0000
  H   H19       1.0  0.12516  0.33367  0.16073  1.0000
  C   C20       1.0  0.21236  0.02013  0.05850  1.0000
  H   H20       1.0  0.28623  0.48127  0.15277  1.0000
  H   H21       1.0  0.15557  0.29403  0.12738  1.0000
  H   H22       1.0  0.42935  0.43981  0.23504  1.0000
  H   H23       1.0  0.08695  0.32231  0.08819  1.0000
  C   C21       1.0  0.29787  0.49029  0.16271  1.0000
  H   H24       1.0  0.45054  0.09967  0.21292  1.0000
  H   H25       1.0  0.42505  0.05771  0.17642  1.0000
  C   C22       1.0  0.39457  0.99440  0.13191  1.0000
  H   H26       1.0  0.02924  0.19305  0.16223  1.0000
  H   H27       1.0  0.31654  0.35169  0.00956  1.0000
  Fe  Fe8       1.0  0.28992  0.99719  0.06721  1.0000
  H   H28       1.0  0.09344  0.28553  0.09224  1.0000
  H   H29       1.0  0.10881  0.30404  0.07565  1.0000
  H   H30       1.0  0.22041  0.10586  0.06502  1.0000
  H   H31       1.0  0.00996  0.38430  0.24368  1.0000
  C   C23       1.0  0.25123  0.09736  0.02696  1.0000
  C   C24       1.0  0.08911  0.23446  0.13082  1.0000
  C   C25       1.0  0.09986  0.23160  0.14679  1.0000
  C   C26       1.0  0.08649  0.23442  0.16197  1.0000
  C   C27       1.0  0.06214  0.23977  0.16146  1.0000
  C   C28       1.0  0.05135  0.24221  0.14550  1.0000
  C   C29       1.0  0.06474  0.23961  0.13033  1.0000
  H   H32       1.0  0.11845  0.22724  0.14746  1.0000
  H   H33       1.0  0.09511  0.23251  0.17421  1.0000
  H   H34       1.0  0.03269  0.24640  0.14482  1.0000
  H   H35       1.0  0.05613  0.24175  0.11810  1.0000
  H   H36       1.0  0.21866  0.11613  0.01678  1.0000
  C   C30       1.0  0.99625  0.09103  0.20336  1.0000
  H   H37       1.0  0.11092  0.11277  0.18251  1.0000
  H   H38       1.0  0.21380  0.06154  0.06924  1.0000
  H   H39       1.0  0.40018  0.18154  0.19132  1.0000
  C   C31       1.0  0.35806  0.00098  0.14709  1.0000
  H   H40       1.0  0.24127  0.14954  0.04046  1.0000
  C   C32       1.0  0.38603  0.07013  0.15608  1.0000
  C   C33       1.0  0.02857  0.14768  0.16692  1.0000
  C   C34       1.0  0.36229  0.47480  0.20799  1.0000
  H   H41       1.0  0.09824  0.33872  0.11857  1.0000
  S   S15       1.0  0.47712  0.01774  0.18892  1.0000
  H   H42       1.0  0.15612  0.35873  0.15448  1.0000
  C   C35       1.0  0.17793  0.25966  0.00288  1.0000
  C   C36       1.0  0.23180  0.09979  0.01319  1.0000
  H   H43       1.0  0.07060  0.19037  0.04355  1.0000
  H   H44       1.0  0.01955  0.11937  0.24792  1.0000
  H   H45       1.0  0.00468  0.10366  0.17783  1.0000
  H   H46       1.0  0.12904  0.27700  0.13206  1.0000
  H   H47       1.0  0.12812  0.25528  0.00469  1.0000
  C   C37       1.0  0.14922  0.31304  0.04307  1.0000
  H   H48       1.0  0.00491  0.08725  0.21586  1.0000
  H   H49       1.0  0.18230  0.26918  0.14759  1.0000
  H   H50       1.0  0.10659  0.35374  0.14761  1.0000
  C   C38       1.0  0.11985  0.27524  0.03520  1.0000
  S   S16       1.0  0.47435  0.44818  0.19570  1.0000
  N   N2        1.0  0.10127  0.26326  0.02354  1.0000
  H   H51       1.0  0.18514  0.28068  0.00280  1.0000
  H   H52       1.0  0.16739  0.39682  0.13414  1.0000
  H   H53       1.0  0.18702  0.37242  0.12334  1.0000
  H   H54       1.0  0.32102  0.38639  0.00092  1.0000
  H   H55       1.0  0.27881  0.44903  0.00313  1.0000
  C   C39       1.0  0.10110  0.30613  0.08861  1.0000
  H   H56       1.0  0.02959  0.15338  0.13108  1.0000
  S   S17       1.0  0.98594  0.20203  0.18601  1.0000
  H   H57       1.0  0.11386  0.22012  0.02486  1.0000
  H   H58       1.0  0.34569  0.48626  0.21087  1.0000
  H   H59       1.0  0.98195  0.10681  0.20517  1.0000
  C   C40       1.0  0.46171  0.09920  0.18618  1.0000
  C   C41       1.0  0.36656  0.45207  0.22144  1.0000
  C   C42       1.0  0.37798  0.40269  0.24112  1.0000
  H   H60       1.0  0.30761  0.38946  0.03081  1.0000
  H   H61       1.0  0.08001  0.33966  0.17509  1.0000
  C   C43       1.0  0.37556  0.46607  0.15678  1.0000
  H   H62       1.0  0.35122  0.43775  0.22127  1.0000
  H   H63       1.0  0.42756  0.36282  0.19337  1.0000
  C   C44       1.0  0.23322  0.14239  0.05256  1.0000
  H   H64       1.0  0.39740  0.05308  0.15085  1.0000
  H   H65       1.0  0.36750  0.06487  0.15320  1.0000
  H   H66       1.0  0.17571  0.33467  0.14331  1.0000
  S   S18       1.0  0.28360  0.01149  0.03973  1.0000
  C   C45       1.0  0.09290  0.22700  0.04759  1.0000
  N   N3        1.0  0.39820  0.41512  0.23125  1.0000
  H   H67       1.0  0.06909  0.30410  0.17526  1.0000
  C   C46       1.0  0.38934  0.43504  0.21756  1.0000
  C   C47       1.0  0.41097  0.39103  0.22250  1.0000
  H   H68       1.0  0.08334  0.22324  0.02109  1.0000
  H   H69       1.0  0.31676  0.12210  0.06594  1.0000
  H   H70       1.0  0.20840  0.01051  0.07110  1.0000
  C   C48       1.0  0.43112  0.39933  0.21015  1.0000
  H   H71       1.0  0.12823  0.33424  0.09631  1.0000
  H   H72       1.0  0.13437  0.36547  0.12574  1.0000
  C   C49       1.0  0.08473  0.31727  0.17265  1.0000
  C   C50       1.0  0.44127  0.37339  0.20110  1.0000
  H   H73       1.0  0.08212  0.20846  0.20448  1.0000
  H   H74       1.0  0.27542  0.03014  0.00567  1.0000
  H   H75       1.0  0.40329  0.45029  0.21399  1.0000
  H   H76       1.0  0.38543  0.42333  0.20552  1.0000
  H   H77       1.0  0.39830  0.37795  0.21515  1.0000
  H   H78       1.0  0.00421  0.17186  0.13973  1.0000
  H   H79       1.0  0.41923  0.37679  0.23206  1.0000
  C   C51       1.0  0.36167  0.47239  0.14228  1.0000
  C   C52       1.0  0.28832  0.01336  0.00497  1.0000
  H   H80       1.0  0.06313  0.26409  0.02378  1.0000
  H   H81       1.0  0.25825  0.08958  0.07019  1.0000
  H   H82       1.0  0.44564  0.40921  0.21733  1.0000
  H   H83       1.0  0.42510  0.41421  0.20016  1.0000
  H   H84       1.0  0.09786  0.30160  0.12188  1.0000
  H   H85       1.0  0.08813  0.31913  0.01381  1.0000
  H   H86       1.0  0.15824  0.24448  0.14830  1.0000
  S   S19       1.0  0.28226  0.48620  0.11485  1.0000
  H   H87       1.0  0.45561  0.37991  0.19238  1.0000
  C   C53       1.0  0.16598  0.26332  0.15447  1.0000
  C   C54       1.0  0.21234  0.16186  0.05619  1.0000
  H   H88       1.0  0.05688  0.10401  0.17449  1.0000
  H   H89       1.0  0.39872  0.16737  0.21263  1.0000
  H   H90       1.0  0.07823  0.15645  0.20742  1.0000
  H   H91       1.0  0.44855  0.35826  0.21054  1.0000
  C   C55       1.0  0.06229  0.16984  0.20845  1.0000
  H   H92       1.0  0.98866  0.47761  0.23545  1.0000
  H   H93       1.0  0.46264  0.08353  0.17559  1.0000
  H   H94       1.0  0.24581  0.14522  0.06323  1.0000
  H   H95       1.0  0.09667  0.29053  0.15215  1.0000
  N   N4        1.0  0.42058  0.08496  0.19837  1.0000
  C   C56       1.0  0.41546  0.07749  0.17997  1.0000
  C   C57       1.0  0.44680  0.08726  0.20112  1.0000
  C   C58       1.0  0.41157  0.06111  0.20928  1.0000
  C   C59       1.0  0.40811  0.11158  0.20402  1.0000
  C   C60       1.0  0.41260  0.13836  0.19333  1.0000
  C   C61       1.0  0.38928  0.07295  0.17541  1.0000
  C   C62       1.0  0.10366  0.11517  0.16943  1.0000
  C   C63       1.0  0.04897  0.17114  0.19118  1.0000
  H   H96       1.0  0.21855  0.18388  0.05718  1.0000
  C   C64       1.0  0.41905  0.06140  0.22835  1.0000
  H   H97       1.0  0.22346  0.00520  0.05102  1.0000
  H   H98       1.0  0.36705  0.46252  0.23408  1.0000
  H   H99       1.0  0.42220  0.09367  0.17110  1.0000
  H   H100      1.0  0.19556  0.02379  0.05169  1.0000
  H   H101      1.0  0.05467  0.21331  0.21577  1.0000
  H   H102      1.0  0.41771  0.04053  0.20401  1.0000
  H   H103      1.0  0.39207  0.06039  0.20895  1.0000
  H   H104      1.0  0.38885  0.10816  0.20471  1.0000
  H   H105      1.0  0.41319  0.11724  0.21728  1.0000
  H   H106      1.0  0.40967  0.13475  0.17952  1.0000
  H   H107      1.0  0.43077  0.14575  0.19547  1.0000
  H   H108      1.0  0.38273  0.05331  0.18136  1.0000
  H   H109      1.0  0.37816  0.09083  0.17974  1.0000
  H   H110      1.0  0.11766  0.12368  0.16103  1.0000
  H   H111      1.0  0.03420  0.12468  0.20828  1.0000
  C   C65       1.0  0.15847  0.20596  0.00331  1.0000
  H   H112      1.0  0.15721  0.30589  0.16081  1.0000
  H   H113      1.0  0.37688  0.49021  0.20795  1.0000
  H   H114      1.0  0.02760  0.08462  0.18871  1.0000
  S   S20       1.0  0.28881  0.46653  0.03732  1.0000
  Fe  Fe9       1.0  0.29066  0.47989  0.06544  1.0000
  H   H115      1.0  0.19233  0.38217  0.14520  1.0000
  H   H116      1.0  0.11322  0.27664  0.04854  1.0000
  H   H117      1.0  0.07948  0.19773  0.22648  1.0000
  H   H118      1.0  0.37762  0.15663  0.19662  1.0000
  N   N5        1.0  0.24314  0.09026  0.04483  1.0000
  H   H119      1.0  0.36086  0.46522  0.19508  1.0000
  C   C66       1.0  0.26403  0.08764  0.05665  1.0000
  C   C67       1.0  0.23124  0.06193  0.04391  1.0000
  C   C68       1.0  0.22547  0.11129  0.05171  1.0000
  H   H120      1.0  0.09850  0.09419  0.16443  1.0000
  C   C69       1.0  0.22526  0.04788  0.06126  1.0000
  H   H121      1.0  0.29356  0.11333  0.08061  1.0000
  H   H122      1.0  0.05423  0.32946  0.03313  1.0000
  H   H123      1.0  0.06020  0.18324  0.18230  1.0000
  H   H124      1.0  0.40021  0.47171  0.24663  1.0000
  H   H125      1.0  0.27206  0.06622  0.05554  1.0000
  H   H126      1.0  0.24234  0.04666  0.03660  1.0000
  H   H127      1.0  0.21438  0.06360  0.03685  1.0000
  H   H128      1.0  0.20883  0.11018  0.04434  1.0000
  C   C70       1.0  0.03537  0.17343  0.15583  1.0000
  H   H129      1.0  0.05452  0.17508  0.15379  1.0000
  S   S21       1.0  0.41303  0.47176  0.17905  1.0000
  C   C71       1.0  0.12933  0.30489  0.03095  1.0000
  C   C72       1.0  0.02361  0.17228  0.13831  1.0000
  H   H130      1.0  0.03320  0.18468  0.19324  1.0000
  H   H131      1.0  0.15396  0.33981  0.11694  1.0000
  H   H132      1.0  0.03086  0.49122  0.23581  1.0000
  H   H133      1.0  0.38626  0.04624  0.23926  1.0000
  C   C73       1.0  0.46093  0.48007  0.10524  1.0000
  H   H134      1.0  0.33936  0.00496  0.14709  1.0000
  N   N6        1.0  0.26146  0.37494  0.04298  1.0000
  C   C74       1.0  0.27523  0.36464  0.02763  1.0000
  C   C75       1.0  0.24350  0.35328  0.04843  1.0000
  C   C76       1.0  0.24840  0.40124  0.03756  1.0000
  C   C77       1.0  0.27727  0.38261  0.05770  1.0000
  C   C78       1.0  0.29370  0.35898  0.06428  1.0000
  C   C79       1.0  0.07813  0.27861  0.02593  1.0000
  C   C80       1.0  0.23114  0.41412  0.05086  1.0000
  C   C81       1.0  0.24979  0.32172  0.04558  1.0000
  C   C82       1.0  0.23181  0.30242  0.05398  1.0000
  C   C83       1.0  0.31141  0.37050  0.07711  1.0000
  H   H135      1.0  0.45425  0.11886  0.18093  1.0000
  C   C84       1.0  0.21885  0.44022  0.04368  1.0000
  H   H136      1.0  0.09890  0.31066  0.18152  1.0000
  H   H137      1.0  0.28420  0.34434  0.03024  1.0000
  H   H138      1.0  0.23887  0.35620  0.06217  1.0000
  H   H139      1.0  0.22672  0.35635  0.04135  1.0000
  H   H140      1.0  0.23831  0.39712  0.02563  1.0000
  H   H141      1.0  0.26083  0.41833  0.03445  1.0000
  H   H142      1.0  0.28795  0.40146  0.05452  1.0000
  H   H143      1.0  0.26673  0.38925  0.06900  1.0000
  H   H144      1.0  0.30387  0.34895  0.05382  1.0000
  H   H145      1.0  0.28322  0.34277  0.07099  1.0000
  H   H146      1.0  0.26416  0.08113  0.02251  1.0000
  H   H147      1.0  0.10865  0.23138  0.05542  1.0000
  H   H148      1.0  0.24063  0.42086  0.06248  1.0000
  H   H149      1.0  0.21740  0.39889  0.05459  1.0000
  H   H150      1.0  0.28682  0.40476  0.01619  1.0000
  H   H151      1.0  0.26726  0.31621  0.05077  1.0000
  H   H152      1.0  0.21375  0.30754  0.04961  1.0000
  H   H153      1.0  0.23573  0.28013  0.05061  1.0000
  H   H154      1.0  0.32276  0.38656  0.07101  1.0000
  H   H155      1.0  0.30226  0.38016  0.08823  1.0000
  H   H156      1.0  0.32272  0.35309  0.08185  1.0000
  H   H157      1.0  0.17067  0.25781  0.16782  1.0000
  H   H158      1.0  0.13343  0.28174  0.16257  1.0000
  H   H159      1.0  0.01065  0.14429  0.19917  1.0000
  H   H160      1.0  0.23195  0.45650  0.04020  1.0000
  H   H161      1.0  0.20839  0.43467  0.03222  1.0000
  H   H162      1.0  0.20689  0.44927  0.05352  1.0000
  H   H163      1.0  0.39037  0.09019  0.14958  1.0000
  H   H164      1.0  0.24982  0.31684  0.03168  1.0000
  H   H165      1.0  0.06993  0.11707  0.19327  1.0000
  C   C85       1.0  0.28480  0.10809  0.05367  1.0000
  C   C86       1.0  0.40506  0.04004  0.23873  1.0000
  H   H166      1.0  0.19930  0.16074  0.04569  1.0000
  C   C87       1.0  0.07011  0.19915  0.21409  1.0000
  C   C88       1.0  0.09802  0.23272  0.02842  1.0000
  H   H167      1.0  0.27899  0.13017  0.05214  1.0000
  H   H168      1.0  0.26091  0.11750  0.02667  1.0000
  H   H169      1.0  0.08905  0.15602  0.17423  1.0000
  H   H170      1.0  0.00945  0.15073  0.16945  1.0000
  Fe  Fe10      1.0  0.31605  0.49032  0.10008  1.0000
  H   H171      1.0  0.23258  0.30449  0.06810  1.0000
  C   C89       1.0  0.98883  0.34695  0.24042  1.0000
  Fe  Fe11      1.0  0.47614  0.45923  0.22358  1.0000
  H   H172      1.0  0.29446  0.10185  0.04187  1.0000
  C   C90       1.0  0.39623  0.16236  0.19887  1.0000
  C   C91       1.0  0.30226  0.10717  0.06843  1.0000
  H   H173      1.0  0.41651  0.08225  0.23445  1.0000
  C   C92       1.0  0.06253  0.12385  0.18078  1.0000
  H   H174      1.0  0.07726  0.31829  0.14580  1.0000
  H   H175      1.0  0.05087  0.16159  0.21875  1.0000
  H   H176      1.0  0.13375  0.29790  0.10163  1.0000
  C   C93       1.0  0.01404  0.10133  0.19015  1.0000
  H   H177      1.0  0.13519  0.26062  0.03566  1.0000
  N   N7        1.0  0.12725  0.32279  0.13373  1.0000
  C   C94       1.0  0.11366  0.33199  0.14940  1.0000
  C   C95       1.0  0.14419  0.34572  0.12877  1.0000
  C   C96       1.0  0.10975  0.31968  0.11935  1.0000
  C   C97       1.0  0.14011  0.29507  0.13610  1.0000
  C   C98       1.0  0.14856  0.28791  0.15448  1.0000
  C   C99       1.0  0.09247  0.31309  0.15411  1.0000
  C   C100      1.0  0.12016  0.31467  0.10129  1.0000
  C   C101      1.0  0.16357  0.35288  0.14187  1.0000
  C   C102      1.0  0.17839  0.37761  0.13571  1.0000
  H   H178      1.0  0.10150  0.18225  0.04634  1.0000
  H   H179      1.0  0.08381  0.19256  0.06444  1.0000
  C   C103      1.0  0.37009  0.99876  0.13152  1.0000
  H   H180      1.0  0.45452  0.06609  0.20356  1.0000
  C   C104      1.0  0.39621  0.48113  0.16046  1.0000
  C   C105      1.0  0.08678  0.19612  0.05058  1.0000
  H   H181      1.0  0.16404  0.29782  0.04210  1.0000
  H   H182      1.0  0.07813  0.24027  0.05229  1.0000
  H   H183      1.0  0.14297  0.31372  0.05652  1.0000
  H   H184      1.0  0.40659  0.01868  0.23298  1.0000
  H   H185      1.0  0.99973  0.33832  0.23033  1.0000
  H   H186      1.0  0.46647  0.48772  0.09244  1.0000
  H   H187      1.0  0.42776  0.47517  0.11884  1.0000
  C   C106      1.0  0.29448  0.38470  0.02079  1.0000
  H   H188      1.0  0.36721  0.41935  0.24733  1.0000
  C   C107      1.0  0.29430  0.48310  0.01738  1.0000
  H   H189      1.0  0.04815  0.33848  0.01122  1.0000
  H   H190      1.0  0.34607  0.46030  0.13964  1.0000
  H   H191      1.0  0.15051  0.18535  0.00345  1.0000
  Fe  Fe12      1.0  0.44780  0.48331  0.19267  1.0000
  H   H192      1.0  0.37037  0.44906  0.16510  1.0000
  H   H193      1.0  0.26297  0.36009  0.01689  1.0000
  S   S22       1.0  0.99212  0.16179  0.23055  1.0000
  H   H194      1.0  0.31127  0.47414  0.16605  1.0000
  C   C108      1.0  0.99462  0.37313  0.24808  1.0000
  H   H195      1.0  0.43787  0.05556  0.22940  1.0000
  S   S23       1.0  0.25567  0.47541  0.07846  1.0000
  H   H196      1.0  0.36585  0.39184  0.23213  1.0000
  H   H197      1.0  0.15588  0.33424  0.03970  1.0000
  C   C109      1.0  0.43434  0.48400  0.10662  1.0000
  H   H198      1.0  0.36078  0.00095  0.17462  1.0000
  H   H199      1.0  0.99497  0.21597  0.25040  1.0000
  H   H200      1.0  0.07007  0.29723  0.00089  1.0000
  C   C110      1.0  0.39485  0.99480  0.16311  1.0000
  H   H201      1.0  0.42557  0.47277  0.09595  1.0000
  Fe  Fe13      1.0  0.98092  0.20091  0.21460  1.0000
  C   C111      1.0  0.37033  0.99891  0.16272  1.0000
  H   H202      1.0  0.98836  0.07097  0.19897  1.0000
  C   C112      1.0  0.07329  0.30433  0.01420  1.0000
  C   C113      1.0  0.05155  0.32071  0.02010  1.0000
  H   H203      1.0  0.13651  0.30586  0.01779  1.0000
  C   C114      1.0  0.41544  0.42973  0.24279  1.0000
  H   H204      1.0  0.03591  0.30686  0.02015  1.0000
  H   H205      1.0  0.11534  0.32092  0.03265  1.0000
  H   H206      1.0  0.47442  0.43935  0.13076  1.0000
  C   C115      1.0  0.10999  0.26386  0.00532  1.0000
  S   S24       1.0  0.47535  0.42803  0.24648  1.0000
  H   H207      1.0  0.03503  0.18818  0.24484  1.0000
  C   C116      1.0  0.30757  0.37148  0.00566  1.0000
  Fe  Fe14      1.0  0.31773  0.99823  0.10141  1.0000
  S   S25       1.0  0.35575  0.00225  0.11130  1.0000
  H   H208      1.0  0.39264  0.36203  0.24990  1.0000
  C   C117      1.0  0.02023  0.49084  0.24771  1.0000
  C   C118      1.0  0.00134  0.11470  0.25046  1.0000
  S   S26       1.0  0.44794  0.49299  0.22106  1.0000
  H   H209      1.0  0.24224  0.19953  0.46396  1.0000
  C   C119      1.0  0.98701  0.47166  0.38286  1.0000
  C   C120      1.0  0.31810  0.24775  0.49664  1.0000
  C   C121      1.0  0.15054  0.42091  0.45354  1.0000
  H   H210      1.0  0.42897  0.16012  0.31267  1.0000
  H   H211      1.0  0.35462  0.18526  0.34431  1.0000
  S   S27       1.0  0.45011  0.23990  0.29344  1.0000
  H   H212      1.0  0.20880  0.12860  0.34856  1.0000
  Fe  Fe15      1.0  0.45224  0.24376  0.32222  1.0000
  S   S28       1.0  0.41974  0.25642  0.33855  1.0000
  H   H213      1.0  0.24509  0.07201  0.48806  1.0000
  C   C122      1.0  0.46921  0.31765  0.35467  1.0000
  H   H214      1.0  0.41425  0.11472  0.30188  1.0000
  H   H215      1.0  0.42761  0.17648  0.33276  1.0000
  H   H216      1.0  0.45247  0.27508  0.39933  1.0000
  C   C123      1.0  0.38392  0.13776  0.31274  1.0000
  Fe  Fe16      1.0  0.19276  0.02164  0.41330  1.0000
  S   S29       1.0  0.21962  0.05259  0.40238  1.0000
  Fe  Fe17      1.0  0.18284  0.46291  0.41405  1.0000
  S   S30       1.0  0.18695  0.41495  0.41107  1.0000
  S   S31       1.0  0.15970  0.03503  0.42666  1.0000
  S   S32       1.0  0.14499  0.47409  0.41944  1.0000
  Fe  Fe18      1.0  0.26348  0.21527  0.41546  1.0000
  S   S33       1.0  0.29597  0.20233  0.42963  1.0000
  S   S34       1.0  0.23196  0.18605  0.41049  1.0000
  Fe  Fe19      1.0  0.27733  0.27874  0.41669  1.0000
  S   S35       1.0  0.31074  0.26880  0.43106  1.0000
  S   S36       1.0  0.27211  0.32619  0.41178  1.0000
  Fe  Fe20      1.0  0.31537  0.23284  0.41215  1.0000
  S   S37       1.0  0.35068  0.21815  0.39980  1.0000
  Fe  Fe21      1.0  0.28878  0.23950  0.44705  1.0000
  S   S38       1.0  0.27961  0.23733  0.47567  1.0000
  S   S39       1.0  0.28283  0.24397  0.39708  1.0000
  S   S40       1.0  0.25543  0.25129  0.43347  1.0000
  C   C124      1.0  0.21100  0.39085  0.41198  1.0000
  C   C125      1.0  0.20634  0.36185  0.41339  1.0000
  C   C126      1.0  0.22472  0.34175  0.41359  1.0000
  C   C127      1.0  0.24807  0.35043  0.41230  1.0000
  C   C128      1.0  0.25270  0.37947  0.41113  1.0000
  C   C129      1.0  0.23433  0.39958  0.41103  1.0000
  H   H217      1.0  0.18837  0.35483  0.41420  1.0000
  H   H218      1.0  0.22084  0.31953  0.41447  1.0000
  H   H219      1.0  0.27068  0.38644  0.41009  1.0000
  H   H220      1.0  0.23824  0.42176  0.40988  1.0000
  C   C130      1.0  0.22954  0.14861  0.40960  1.0000
  C   C131      1.0  0.24864  0.13095  0.40585  1.0000
  C   C132      1.0  0.24538  0.10160  0.40398  1.0000
  C   C133      1.0  0.22320  0.08934  0.40639  1.0000
  C   C134      1.0  0.20428  0.10685  0.41077  1.0000
  C   C135      1.0  0.20736  0.13630  0.41203  1.0000
  H   H221      1.0  0.26578  0.14003  0.40381  1.0000
  H   H222      1.0  0.26016  0.08835  0.40048  1.0000
  H   H223      1.0  0.18711  0.09783  0.41262  1.0000
  H   H224      1.0  0.19243  0.14973  0.41485  1.0000
  H   H225      1.0  0.26052  0.07520  0.46249  1.0000
  C   C136      1.0  0.99122  0.30764  0.28699  1.0000
  C   C137      1.0  0.11809  0.06082  0.32187  1.0000
  H   H226      1.0  0.98040  0.49286  0.35876  1.0000
  H   H227      1.0  0.14036  0.40123  0.45511  1.0000
  C   C138      1.0  0.17667  0.47686  0.34957  1.0000
  H   H228      1.0  0.19202  0.00095  0.36324  1.0000
  H   H229      1.0  0.35445  0.39062  0.27180  1.0000
  H   H230      1.0  0.37044  0.12170  0.27945  1.0000
  H   H231      1.0  0.32894  0.24599  0.48531  1.0000
  C   C139      1.0  0.40084  0.24540  0.35569  1.0000
  C   C140      1.0  0.38081  0.26169  0.35978  1.0000
  C   C141      1.0  0.36526  0.25379  0.37308  1.0000
  C   C142      1.0  0.36955  0.22943  0.38268  1.0000
  C   C143      1.0  0.38966  0.21320  0.37862  1.0000
  C   C144      1.0  0.40508  0.22101  0.36524  1.0000
  H   H232      1.0  0.37718  0.28063  0.35257  1.0000
  H   H233      1.0  0.34999  0.26664  0.37595  1.0000
  H   H234      1.0  0.39328  0.19433  0.38588  1.0000
  H   H235      1.0  0.42013  0.20802  0.36223  1.0000
  C   C145      1.0  0.40560  0.45337  0.25446  1.0000
  H   H236      1.0  0.10052  0.06898  0.32571  1.0000
  C   C146      1.0  0.43176  0.23346  0.41854  1.0000
  C   C147      1.0  0.46944  0.20558  0.37196  1.0000
  S   S41       1.0  0.10466  0.99778  0.40260  1.0000
  C   C148      1.0  0.99755  0.21010  0.26398  1.0000
  H   H237      1.0  0.47013  0.40015  0.27901  1.0000
  Fe  Fe22      1.0  0.17091  0.00423  0.44709  1.0000
  C   C149      1.0  0.29475  0.16068  0.49794  1.0000
  H   H238      1.0  0.15582  0.42302  0.43998  1.0000
  H   H239      1.0  0.44270  0.24709  0.38638  1.0000
  H   H240      1.0  0.36811  0.19188  0.31831  1.0000
  H   H241      1.0  0.41447  0.19538  0.29843  1.0000
  H   H242      1.0  0.99092  0.19008  0.32417  1.0000
  S   S42       1.0  0.46141  0.15807  0.28409  1.0000
  H   H243      1.0  0.41974  0.11240  0.33096  1.0000
  H   H244      1.0  0.39742  0.24273  0.30550  1.0000
  H   H245      1.0  0.16938  0.08649  0.47387  1.0000
  H   H246      1.0  0.35165  0.12873  0.36318  1.0000
  H   H247      1.0  0.45683  0.12015  0.31495  1.0000
  S   S43       1.0  0.98016  0.01765  0.32127  1.0000
  H   H248      1.0  0.16546  0.41807  0.47829  1.0000
  C   C150      1.0  0.36284  0.37225  0.26535  1.0000
  C   C151      1.0  0.03759  0.18738  0.25889  1.0000
  S   S44       1.0  0.02742  0.47063  0.34729  1.0000
  H   H249      1.0  0.13599  0.08510  0.45405  1.0000
  H   H250      1.0  0.19331  0.39829  0.44644  1.0000
  H   H251      1.0  0.34765  0.15170  0.33463  1.0000
  C   C152      1.0  0.42437  0.46378  0.26685  1.0000
  H   H252      1.0  0.35946  0.16233  0.37258  1.0000
  H   H253      1.0  0.43062  0.44633  0.27514  1.0000
  H   H254      1.0  0.24835  0.31772  0.46835  1.0000
  C   C153      1.0  0.23357  0.43091  0.45219  1.0000
  H   H255      1.0  0.13905  0.43912  0.45694  1.0000
  H   H256      1.0  0.39437  0.23379  0.28326  1.0000
  C   C154      1.0  0.47694  0.27063  0.36922  1.0000
  C   C155      1.0  0.28068  0.33056  0.50047  1.0000
  C   C156      1.0  0.17269  0.09102  0.46018  1.0000
  C   C157      1.0  0.45729  0.25348  0.39499  1.0000
  C   C158      1.0  0.21573  0.34076  0.46342  1.0000
  C   C159      1.0  0.39527  0.19764  0.30017  1.0000
  H   H257      1.0  0.02274  0.47003  0.25396  1.0000
  H   H258      1.0  0.22978  0.37489  0.44913  1.0000
  H   H259      1.0  0.17152  0.33757  0.36134  1.0000
  H   H260      1.0  0.46803  0.24415  0.42135  1.0000
  H   H261      1.0  0.46243  0.10623  0.33592  1.0000
  H   H262      1.0  0.36800  0.35676  0.27529  1.0000
  C   C160      1.0  0.17209  0.42073  0.46510  1.0000
  C   C161      1.0  0.15480  0.46378  0.35751  1.0000
  H   H263      1.0  0.15232  0.47338  0.37028  1.0000
  S   S45       1.0  0.04961  0.99582  0.33066  1.0000
  H   H264      1.0  0.99226  0.18771  0.26446  1.0000
  H   H265      1.0  0.46269  0.21314  0.40879  1.0000
  H   H266      1.0  0.11843  0.03758  0.32344  1.0000
  H   H267      1.0  0.00952  0.07781  0.26577  1.0000
  H   H268      1.0  0.29672  0.34343  0.49887  1.0000
  H   H269      1.0  0.20120  0.33909  0.45404  1.0000
  H   H270      1.0  0.37807  0.09065  0.29175  1.0000
  H   H271      1.0  0.38611  0.18454  0.29055  1.0000
  C   C162      1.0  0.42070  0.15817  0.32542  1.0000
  S   S46       1.0  0.01281  0.48160  0.29629  1.0000
  H   H272      1.0  0.18972  0.37306  0.48950  1.0000
  H   H273      1.0  0.44424  0.10218  0.27701  1.0000
  H   H274      1.0  0.03136  0.16677  0.26375  1.0000
  H   H275      1.0  0.14359  0.12104  0.45895  1.0000
  H   H276      1.0  0.17735  0.07105  0.45367  1.0000
  H   H277      1.0  0.21839  0.43396  0.44355  1.0000
  H   H278      1.0  0.18064  0.44151  0.46380  1.0000
  C   C163      1.0  0.47719  0.35568  0.27538  1.0000
  H   H279      1.0  0.17880  0.37671  0.46128  1.0000
  C   C164      1.0  0.98479  0.18605  0.29675  1.0000
  C   C165      1.0  0.18911  0.39644  0.46026  1.0000
  N   N8        1.0  0.13589  0.41559  0.36469  1.0000
  C   C166      1.0  0.14189  0.38454  0.36399  1.0000
  C   C167      1.0  0.11657  0.42272  0.35209  1.0000
  C   C168      1.0  0.15765  0.43141  0.35940  1.0000
  C   C169      1.0  0.12922  0.42507  0.38247  1.0000
  C   C170      1.0  0.10808  0.40997  0.39070  1.0000
  C   C171      1.0  0.16105  0.37412  0.37661  1.0000
  H   H280      1.0  0.45524  0.30794  0.34676  1.0000
  C   C172      1.0  0.09777  0.39991  0.34856  1.0000
  C   C173      1.0  0.07756  0.41176  0.33792  1.0000
  C   C174      1.0  0.10549  0.41774  0.40958  1.0000
  C   C175      1.0  0.16552  0.34251  0.37454  1.0000
  H   H281      1.0  0.24377  0.37024  0.46924  1.0000
  H   H282      1.0  0.14762  0.37871  0.35080  1.0000
  H   H283      1.0  0.12631  0.37138  0.36656  1.0000
  H   H284      1.0  0.10725  0.44242  0.35608  1.0000
  H   H285      1.0  0.12411  0.42747  0.33926  1.0000
  H   H286      1.0  0.16449  0.42294  0.34703  1.0000
  H   H287      1.0  0.17195  0.42849  0.36889  1.0000
  H   H288      1.0  0.14452  0.42334  0.39120  1.0000
  H   H289      1.0  0.12469  0.44789  0.38257  1.0000
  H   H290      1.0  0.10993  0.38677  0.39001  1.0000
  H   H291      1.0  0.09164  0.41656  0.38423  1.0000
  H   H292      1.0  0.17805  0.38473  0.37444  1.0000
  H   H293      1.0  0.15550  0.37782  0.39004  1.0000
  C   C176      1.0  0.46486  0.08421  0.25640  1.0000
  H   H294      1.0  0.21348  0.02810  0.36716  1.0000
  H   H295      1.0  0.10574  0.38221  0.34119  1.0000
  H   H296      1.0  0.09026  0.39128  0.36047  1.0000
  H   H297      1.0  0.08412  0.42065  0.32570  1.0000
  H   H298      1.0  0.06488  0.39480  0.33494  1.0000
  H   H299      1.0  0.06812  0.42851  0.34514  1.0000
  H   H300      1.0  0.09041  0.40631  0.41519  1.0000
  H   H301      1.0  0.12158  0.41183  0.41676  1.0000
  H   H302      1.0  0.10217  0.44068  0.41108  1.0000
  H   H303      1.0  0.45442  0.20176  0.38065  1.0000
  H   H304      1.0  0.14938  0.33044  0.37741  1.0000
  C   C177      1.0  0.43043  0.13113  0.33412  1.0000
  H   H305      1.0  0.41699  0.48073  0.27510  1.0000
  C   C178      1.0  0.45577  0.12486  0.32885  1.0000
  H   H306      1.0  0.22588  0.29738  0.45807  1.0000
  N   N9        1.0  0.21661  0.10442  0.46376  1.0000
  C   C179      1.0  0.23334  0.12729  0.45832  1.0000
  C   C180      1.0  0.22290  0.07687  0.45496  1.0000
  C   C181      1.0  0.19233  0.11323  0.45807  1.0000
  C   C182      1.0  0.21589  0.10079  0.48290  1.0000
  H   H307      1.0  0.46725  0.14301  0.33173  1.0000
  C   C183      1.0  0.22807  0.15734  0.46519  1.0000
  C   C184      1.0  0.34958  0.15193  0.36211  1.0000
  C   C185      1.0  0.24931  0.07104  0.45128  1.0000
  C   C186      1.0  0.25353  0.04054  0.44577  1.0000
  H   H308      1.0  0.41975  0.22348  0.40918  1.0000
  C   C187      1.0  0.24710  0.17793  0.45972  1.0000
  H   H309      1.0  0.03145  0.23153  0.26230  1.0000
  H   H310      1.0  0.23366  0.12863  0.44410  1.0000
  H   H311      1.0  0.25166  0.12225  0.46195  1.0000
  H   H312      1.0  0.21577  0.05872  0.46230  1.0000
  H   H313      1.0  0.21438  0.07557  0.44218  1.0000
  H   H314      1.0  0.19273  0.11955  0.44440  1.0000
  H   H315      1.0  0.18615  0.13210  0.46529  1.0000
  N   N10       1.0  0.98221  0.22827  0.27530  1.0000
  C   C188      1.0  0.02430  0.21160  0.26753  1.0000
  H   H316      1.0  0.27548  0.15856  0.49642  1.0000
  C   C189      1.0  0.16755  0.00593  0.49434  1.0000
  H   H317      1.0  0.21131  0.16556  0.45996  1.0000
  H   H318      1.0  0.99838  0.31550  0.27469  1.0000
  C   C190      1.0  0.47823  0.39154  0.25257  1.0000
  S   S47       1.0  0.98936  0.41835  0.27055  1.0000
  H   H319      1.0  0.25540  0.08479  0.44070  1.0000
  H   H320      1.0  0.20380  0.08338  0.48635  1.0000
  H   H321      1.0  0.26428  0.17225  0.46545  1.0000
  H   H322      1.0  0.19102  0.42761  0.49748  1.0000
  H   H323      1.0  0.05663  0.18915  0.26159  1.0000
  C   C191      1.0  0.38865  0.22826  0.29640  1.0000
  C   C192      1.0  0.98168  0.21824  0.29365  1.0000
  H   H324      1.0  0.36670  0.14514  0.30769  1.0000
  C   C193      1.0  0.20108  0.01933  0.35762  1.0000
  H   H325      1.0  0.05266  0.45893  0.37825  1.0000
  H   H326      1.0  0.21553  0.43884  0.47579  1.0000
  C   C194      1.0  0.22544  0.42093  0.47009  1.0000
  C   C195      1.0  0.99183  0.25788  0.27482  1.0000
  C   C196      1.0  0.45666  0.23500  0.41130  1.0000
  N   N11       1.0  0.15270  0.07749  0.36412  1.0000
  C   C197      1.0  0.16617  0.10252  0.35749  1.0000
  C   C198      1.0  0.13306  0.06985  0.35195  1.0000
  C   C199      1.0  0.14173  0.08617  0.38096  1.0000
  C   C200      1.0  0.16843  0.05236  0.36737  1.0000
  C   C201      1.0  0.18335  0.04177  0.35207  1.0000
  C   C202      1.0  0.18625  0.11338  0.36908  1.0000
  C   C203      1.0  0.12469  0.06468  0.38916  1.0000
  C   C204      1.0  0.13738  0.07445  0.33256  1.0000
  C   C205      1.0  0.39924  0.12764  0.29736  1.0000
  H   H327      1.0  0.20879  0.33529  0.47622  1.0000
  C   C206      1.0  0.20018  0.13667  0.36036  1.0000
  C   C207      1.0  0.11315  0.07697  0.40521  1.0000
  H   H328      1.0  0.15388  0.12052  0.35532  1.0000
  H   H329      1.0  0.17408  0.09811  0.34481  1.0000
  H   H330      1.0  0.12781  0.04752  0.35382  1.0000
  H   H331      1.0  0.11697  0.08253  0.35485  1.0000
  H   H332      1.0  0.13199  0.10647  0.37946  1.0000
  H   H333      1.0  0.15547  0.09000  0.39075  1.0000
  H   H334      1.0  0.18036  0.05659  0.37830  1.0000
  H   H335      1.0  0.15789  0.03399  0.37154  1.0000
  H   H336      1.0  0.19351  0.05895  0.34611  1.0000
  H   H337      1.0  0.17183  0.03189  0.34239  1.0000
  H   H338      1.0  0.17902  0.12253  0.38105  1.0000
  H   H339      1.0  0.19880  0.09626  0.37229  1.0000
  H   H340      1.0  0.13436  0.04538  0.39296  1.0000
  H   H341      1.0  0.11040  0.05855  0.38035  1.0000
  H   H342      1.0  0.13724  0.09737  0.32971  1.0000
  H   H343      1.0  0.00639  0.47179  0.38197  1.0000
  H   H344      1.0  0.39671  0.10197  0.27447  1.0000
  N   N12       1.0  0.39430  0.16004  0.32430  1.0000
  H   H345      1.0  0.24204  0.32295  0.44600  1.0000
  C   C208      1.0  0.10170  0.99895  0.36674  1.0000
  H   H346      1.0  0.27248  0.03709  0.44312  1.0000
  H   H347      1.0  0.18856  0.15475  0.35713  1.0000
  H   H348      1.0  0.21404  0.14430  0.36918  1.0000
  H   H349      1.0  0.10215  0.09557  0.40195  1.0000
  H   H350      1.0  0.10169  0.06087  0.41115  1.0000
  H   H351      1.0  0.12661  0.08322  0.41470  1.0000
  C   C209      1.0  0.22626  0.37087  0.46291  1.0000
  C   C210      1.0  0.38748  0.18922  0.31839  1.0000
  C   C211      1.0  0.08911  0.99827  0.35116  1.0000
  H   H352      1.0  0.38805  0.13441  0.34673  1.0000
  H   H353      1.0  0.24594  0.41560  0.44627  1.0000
  H   H354      1.0  0.15187  0.10560  0.43857  1.0000
  H   H355      1.0  0.24798  0.02578  0.45597  1.0000
  H   H356      1.0  0.40667  0.14528  0.28996  1.0000
  N   N13       1.0  0.21131  0.39414  0.47062  1.0000
  H   H357      1.0  0.37973  0.11836  0.32009  1.0000
  H   H358      1.0  0.17914  0.46924  0.33626  1.0000
  C   C212      1.0  0.38514  0.10937  0.28505  1.0000
  H   H359      1.0  0.02802  0.21106  0.28143  1.0000
  H   H360      1.0  0.12062  0.99999  0.36661  1.0000
  H   H361      1.0  0.00596  0.30363  0.29593  1.0000
  C   C213      1.0  0.23415  0.31847  0.45868  1.0000
  H   H362      1.0  0.43173  0.22062  0.43038  1.0000
  H   H363      1.0  0.42996  0.13391  0.34823  1.0000
  H   H364      1.0  0.39058  0.44610  0.26225  1.0000
  H   H365      1.0  0.45568  0.06438  0.25653  1.0000
  H   H366      1.0  0.33072  0.15736  0.36375  1.0000
  C   C214      1.0  0.38474  0.15627  0.34220  1.0000
  H   H367      1.0  0.36936  0.23144  0.29734  1.0000
  C   C215      1.0  0.35814  0.16221  0.34470  1.0000
  H   H368      1.0  0.39426  0.20527  0.32753  1.0000
  H   H369      1.0  0.98229  0.15545  0.31719  1.0000
  H   H370      1.0  0.17947  0.33570  0.38355  1.0000
  H   H371      1.0  0.15440  0.06569  0.32822  1.0000
  H   H372      1.0  0.19005  0.49113  0.47421  1.0000
  H   H373      1.0  0.30085  0.17729  0.48902  1.0000
  H   H374      1.0  0.24893  0.17816  0.44560  1.0000
  H   H375      1.0  0.09857  0.99875  0.33918  1.0000
  C   C216      1.0  0.05424  0.48450  0.35556  1.0000
  H   H376      1.0  0.24366  0.03584  0.43391  1.0000
  H   H377      1.0  0.39418  0.17011  0.35133  1.0000
  S   S48       1.0  0.17628  0.02030  0.47441  1.0000
  H   H378      1.0  0.00959  0.25847  0.28065  1.0000
  H   H379      1.0  0.12088  0.06563  0.30814  1.0000
  C   C217      1.0  0.14965  0.10147  0.45244  1.0000
  H   H380      1.0  0.22720  0.15763  0.47935  1.0000
  H   H381      1.0  0.39696  0.39077  0.26466  1.0000
  H   H382      1.0  0.08949  0.47752  0.39088  1.0000
  C   C218      1.0  0.45850  0.10575  0.26817  1.0000
  H   H383      1.0  0.99411  0.26495  0.26131  1.0000
  H   H384      1.0  0.24146  0.41844  0.47810  1.0000
  C   C219      1.0  0.24660  0.45888  0.45344  1.0000
  S   S49       1.0  0.19656  0.49103  0.43493  1.0000
  H   H385      1.0  0.23535  0.47533  0.45948  1.0000
  H   H386      1.0  0.05556  0.99571  0.39409  1.0000
  C   C220      1.0  0.99571  0.09099  0.26062  1.0000
  H   H387      1.0  0.21137  0.01196  0.34638  1.0000
  H   H388      1.0  0.25146  0.46609  0.44041  1.0000
  H   H389      1.0  0.26290  0.45634  0.46104  1.0000
  C   C221      1.0  0.38457  0.38139  0.25538  1.0000
  C   C222      1.0  0.08978  0.99796  0.38239  1.0000
  Fe  Fe23      1.0  0.00343  0.48006  0.32419  1.0000
  H   H390      1.0  0.99579  0.22848  0.30124  1.0000
  H   H391      1.0  0.42499  0.25486  0.42172  1.0000
  H   H392      1.0  0.46219  0.26196  0.36160  1.0000
  C   C223      1.0  0.97932  0.17838  0.31528  1.0000
  H   H393      1.0  0.98390  0.44049  0.36245  1.0000
  H   H394      1.0  0.13963  0.46983  0.34946  1.0000
  C   C224      1.0  0.17993  0.49299  0.48585  1.0000
  H   H395      1.0  0.26550  0.34168  0.49464  1.0000
  H   H396      1.0  0.22007  0.37285  0.49438  1.0000
  C   C225      1.0  0.08364  0.48493  0.37856  1.0000
  H   H397      1.0  0.20828  0.11986  0.48915  1.0000
  C   C226      1.0  0.47143  0.30248  0.37177  1.0000
  C   C227      1.0  0.23939  0.09359  0.49173  1.0000
  C   C228      1.0  0.29377  0.24507  0.49529  1.0000
  C   C229      1.0  0.06260  0.47461  0.37140  1.0000
  H   H398      1.0  0.30354  0.14051  0.49445  1.0000
  H   H399      1.0  0.34995  0.36213  0.25670  1.0000
  H   H400      1.0  0.46269  0.21555  0.36018  1.0000
  Fe  Fe24      1.0  0.14254  0.99827  0.41313  1.0000
  H   H401      1.0  0.19250  0.47159  0.35720  1.0000
  H   H402      1.0  0.98733  0.42595  0.38353  1.0000
  H   H403      1.0  0.28342  0.31027  0.49358  1.0000
  S   S50       1.0  0.47331  0.20396  0.32435  1.0000
  H   H404      1.0  0.43957  0.47245  0.25972  1.0000
  H   H405      1.0  0.45452  0.30551  0.37859  1.0000
  H   H406      1.0  0.46445  0.34009  0.35690  1.0000
  H   H407      1.0  0.25329  0.10885  0.48845  1.0000
  C   C230      1.0  0.20579  0.38627  0.48898  1.0000
  C   C231      1.0  0.06440  0.99660  0.35089  1.0000
  H   H408      1.0  0.98191  0.47296  0.39652  1.0000
  H   H409      1.0  0.47449  0.35050  0.28868  1.0000
  H   H410      1.0  0.00317  0.17947  0.29414  1.0000
  C   C232      1.0  0.47470  0.38397  0.26980  1.0000
  Fe  Fe25      1.0  0.47327  0.20113  0.29551  1.0000
  C   C233      1.0  0.98092  0.38498  0.26138  1.0000
  H   H411      1.0  0.46598  0.16376  0.36112  1.0000
  C   C234      1.0  0.47064  0.13156  0.26886  1.0000
  H   H412      1.0  0.98467  0.49378  0.25604  1.0000
  C   C235      1.0  0.05250  0.99572  0.36655  1.0000
  Fe  Fe26      1.0  0.98213  0.45262  0.29137  1.0000
  C   C236      1.0  0.06509  0.99646  0.38213  1.0000
  H   H413      1.0  0.97977  0.32434  0.29256  1.0000
  H   H414      1.0  0.03355  0.99449  0.36668  1.0000
  H   H415      1.0  0.42493  0.41417  0.25089  1.0000
  H   H416      1.0  0.41197  0.03917  0.25198  1.0000
  H   H417      1.0  0.12670  0.41342  0.65463  1.0000
  H   H418      1.0  0.01654  0.45569  0.62830  1.0000
  H   H419      1.0  0.19043  0.41801  0.52803  1.0000
  C   C237      1.0  0.32293  0.48495  0.61172  1.0000
  H   H420      1.0  0.16005  0.44352  0.62950  1.0000
  N   N14       1.0  0.42448  0.34512  0.71814  1.0000
  Fe  Fe27      1.0  0.27472  0.27528  0.59901  1.0000
  S   S51       1.0  0.31113  0.28968  0.59282  1.0000
  S   S52       1.0  0.24181  0.30336  0.59933  1.0000
  Fe  Fe28      1.0  0.28962  0.21276  0.59981  1.0000
  S   S53       1.0  0.32733  0.22344  0.59358  1.0000
  S   S54       1.0  0.28204  0.16572  0.60421  1.0000
  Fe  Fe29      1.0  0.32383  0.25862  0.61281  1.0000
  S   S55       1.0  0.35151  0.27499  0.63204  1.0000
  Fe  Fe30      1.0  0.31200  0.25343  0.57421  1.0000
  S   S56       1.0  0.32854  0.25848  0.54777  1.0000
  S   S57       1.0  0.28681  0.24644  0.62025  1.0000
  S   S58       1.0  0.27488  0.24050  0.57914  1.0000
  C   C238      1.0  0.06983  0.05152  0.61252  1.0000
  H   H421      1.0  0.44563  0.19124  0.70223  1.0000
  H   H422      1.0  0.39668  0.36673  0.70458  1.0000
  C   C239      1.0  0.07370  0.04245  0.59396  1.0000
  C   C240      1.0  0.21794  0.18146  0.63320  1.0000
  H   H423      1.0  0.35803  0.31662  0.70485  1.0000
  Fe  Fe31      1.0  0.20133  0.46538  0.59716  1.0000
  S   S59       1.0  0.23142  0.43734  0.60663  1.0000
  Fe  Fe32      1.0  0.19025  0.03474  0.58911  1.0000
  S   S60       1.0  0.20017  0.08059  0.58343  1.0000
  S   S61       1.0  0.16995  0.45375  0.58153  1.0000
  S   S62       1.0  0.15147  0.02792  0.58555  1.0000
  H   H424      1.0  0.00435  0.12341  0.67624  1.0000
  C   C241      1.0  0.13286  0.43339  0.64881  1.0000
  S   S63       1.0  0.44059  0.22846  0.67440  1.0000
  H   H425      1.0  0.23982  0.27266  0.54217  1.0000
  S   S64       1.0  0.46706  0.24936  0.71998  1.0000
  H   H426      1.0  0.43900  0.31551  0.68794  1.0000
  H   H427      1.0  0.22296  0.07872  0.51525  1.0000
  H   H428      1.0  0.35001  0.20281  0.53731  1.0000
  H   H429      1.0  0.39216  0.20765  0.72583  1.0000
  H   H430      1.0  0.21164  0.20192  0.62804  1.0000
  H   H431      1.0  0.20423  0.38404  0.52482  1.0000
  H   H432      1.0  0.41818  0.26163  0.73539  1.0000
  C   C242      1.0  0.44268  0.35287  0.70487  1.0000
  Fe  Fe33      1.0  0.47182  0.24046  0.69180  1.0000
  C   C243      1.0  0.99182  0.43127  0.64243  1.0000
  C   C244      1.0  0.39475  0.13466  0.70323  1.0000
  C   C245      1.0  0.37663  0.26145  0.64321  1.0000
  C   C246      1.0  0.38268  0.23280  0.64338  1.0000
  C   C247      1.0  0.40239  0.22326  0.65277  1.0000
  C   C248      1.0  0.41652  0.24210  0.66209  1.0000
  C   C249      1.0  0.41059  0.27075  0.66180  1.0000
  C   C250      1.0  0.39078  0.28028  0.65254  1.0000
  H   H433      1.0  0.37209  0.21796  0.63633  1.0000
  H   H434      1.0  0.40671  0.20104  0.65279  1.0000
  H   H435      1.0  0.42128  0.28556  0.66867  1.0000
  H   H436      1.0  0.38645  0.30249  0.65247  1.0000
  C   C251      1.0  0.31469  0.25389  0.52768  1.0000
  C   C252      1.0  0.29035  0.25211  0.52624  1.0000
  H   H437      1.0  0.98737  0.41736  0.63149  1.0000
  H   H438      1.0  0.27958  0.25444  0.53753  1.0000
  H   H439      1.0  0.17718  0.01699  0.53704  1.0000
  C   C253      1.0  0.25860  0.14264  0.59893  1.0000
  C   C254      1.0  0.26095  0.11374  0.60261  1.0000
  C   C255      1.0  0.24328  0.09440  0.59809  1.0000
  C   C256      1.0  0.22297  0.10379  0.58982  1.0000
  C   C257      1.0  0.22050  0.13273  0.58633  1.0000
  C   C258      1.0  0.23806  0.15207  0.59099  1.0000
  H   H440      1.0  0.27671  0.10619  0.60882  1.0000
  H   H441      1.0  0.24554  0.07222  0.60079  1.0000
  H   H442      1.0  0.20481  0.14029  0.58002  1.0000
  H   H443      1.0  0.23574  0.17426  0.58839  1.0000
  C   C259      1.0  0.23970  0.34076  0.60080  1.0000
  C   C260      1.0  0.25877  0.35752  0.60545  1.0000
  C   C261      1.0  0.25597  0.38701  0.60704  1.0000
  C   C262      1.0  0.23425  0.40020  0.60373  1.0000
  C   C263      1.0  0.21539  0.38352  0.59858  1.0000
  C   C264      1.0  0.21806  0.35399  0.59728  1.0000
  H   H444      1.0  0.27550  0.34769  0.60823  1.0000
  H   H445      1.0  0.27069  0.39965  0.61105  1.0000
  H   H446      1.0  0.19859  0.39329  0.59594  1.0000
  H   H447      1.0  0.20320  0.34128  0.59365  1.0000
  H   H448      1.0  0.16787  0.41489  0.64340  1.0000
  H   H449      1.0  0.35861  0.12520  0.71029  1.0000
  C   C265      1.0  0.41624  0.18648  0.75066  1.0000
  H   H450      1.0  0.10419  0.47354  0.66181  1.0000
  C   C266      1.0  0.27609  0.32479  0.51938  1.0000
  C   C267      1.0  0.00021  0.11532  0.73978  1.0000
  C   C268      1.0  0.14946  0.48017  0.65381  1.0000
  H   H451      1.0  0.07405  0.45051  0.62605  1.0000
  H   H452      1.0  0.25350  0.08758  0.51718  1.0000
  H   H453      1.0  0.16857  0.47658  0.65161  1.0000
  C   C269      1.0  0.42560  0.36674  0.73236  1.0000
  H   H454      1.0  0.06042  0.02926  0.67142  1.0000
  H   H455      1.0  0.24570  0.44642  0.55439  1.0000
  H   H456      1.0  0.39958  0.30218  0.70066  1.0000
  H   H457      1.0  0.06787  0.00308  0.53967  1.0000
  H   H458      1.0  0.09754  0.04244  0.65675  1.0000
  H   H459      1.0  0.22538  0.42085  0.54636  1.0000
  C   C270      1.0  0.40006  0.34602  0.71071  1.0000
  H   H460      1.0  0.37185  0.18287  0.54875  1.0000
  N   N15       1.0  0.29258  0.15432  0.54792  1.0000
  C   C271      1.0  0.31065  0.17622  0.55247  1.0000
  C   C272      1.0  0.26858  0.16523  0.55292  1.0000
  C   C273      1.0  0.29755  0.12863  0.55876  1.0000
  C   C274      1.0  0.29331  0.14601  0.52924  1.0000
  H   H461      1.0  0.35176  0.20525  0.56038  1.0000
  C   C275      1.0  0.33660  0.16623  0.55086  1.0000
  C   C276      1.0  0.27969  0.10416  0.55738  1.0000
  C   C277      1.0  0.25909  0.19081  0.54293  1.0000
  C   C278      1.0  0.23516  0.20033  0.54978  1.0000
  H   H462      1.0  0.34228  0.36324  0.55864  1.0000
  H   H463      1.0  0.33137  0.48793  0.59904  1.0000
  C   C279      1.0  0.28907  0.07742  0.56587  1.0000
  H   H464      1.0  0.30813  0.18339  0.56594  1.0000
  H   H465      1.0  0.30834  0.19570  0.54485  1.0000
  H   H466      1.0  0.25505  0.14877  0.55121  1.0000
  H   H467      1.0  0.26852  0.17096  0.56672  1.0000
  H   H468      1.0  0.29866  0.13469  0.57254  1.0000
  H   H469      1.0  0.31497  0.11941  0.55543  1.0000
  H   H470      1.0  0.30576  0.12813  0.52712  1.0000
  H   H471      1.0  0.27590  0.13776  0.52527  1.0000
  H   H472      1.0  0.44236  0.36438  0.73951  1.0000
  H   H473      1.0  0.17485  0.39084  0.51689  1.0000
  H   H474      1.0  0.34159  0.15421  0.56248  1.0000
  H   H475      1.0  0.33925  0.15221  0.53965  1.0000
  H   H476      1.0  0.27568  0.09912  0.54388  1.0000
  H   H477      1.0  0.26310  0.10975  0.56405  1.0000
  H   H478      1.0  0.27118  0.20873  0.54411  1.0000
  H   H479      1.0  0.25658  0.18531  0.52927  1.0000
  H   H480      1.0  0.23645  0.20689  0.56337  1.0000
  H   H481      1.0  0.22874  0.21860  0.54225  1.0000
  H   H482      1.0  0.22219  0.18307  0.54869  1.0000
  H   H483      1.0  0.34736  0.25373  0.51375  1.0000
  H   H484      1.0  0.07524  0.99930  0.60316  1.0000
  H   H485      1.0  0.00573  0.42085  0.65012  1.0000
  H   H486      1.0  0.43078  0.29994  0.71603  1.0000
  H   H487      1.0  0.13052  0.41338  0.61515  1.0000
  H   H488      1.0  0.27541  0.06085  0.56553  1.0000
  H   H489      1.0  0.30490  0.06945  0.55905  1.0000
  H   H490      1.0  0.29357  0.08162  0.57944  1.0000
  H   H491      1.0  0.10200  0.01207  0.59551  1.0000
  N   N16       1.0  0.26971  0.35060  0.54870  1.0000
  C   C280      1.0  0.26109  0.32239  0.55484  1.0000
  C   C281      1.0  0.29334  0.35628  0.55665  1.0000
  C   C282      1.0  0.25287  0.37291  0.55533  1.0000
  C   C283      1.0  0.27093  0.35253  0.52940  1.0000
  S   S65       1.0  0.99617  0.46601  0.68359  1.0000
  C   C284      1.0  0.23498  0.31598  0.55089  1.0000
  C   C285      1.0  0.26015  0.40399  0.55238  1.0000
  C   C286      1.0  0.31333  0.33523  0.55229  1.0000
  C   C287      1.0  0.33562  0.34214  0.56224  1.0000
  H   H492      1.0  0.36735  0.23416  0.68466  1.0000
  C   C288      1.0  0.22977  0.28452  0.55203  1.0000
  C   C289      1.0  0.23969  0.42432  0.55569  1.0000
  H   H493      1.0  0.26328  0.32077  0.56893  1.0000
  H   H494      1.0  0.27200  0.30483  0.54976  1.0000
  H   H495      1.0  0.30004  0.37719  0.55267  1.0000
  H   H496      1.0  0.29156  0.35713  0.57087  1.0000
  H   H497      1.0  0.25006  0.37032  0.56932  1.0000
  H   H498      1.0  0.23527  0.37040  0.54942  1.0000
  H   H499      1.0  0.25409  0.36074  0.52414  1.0000
  H   H500      1.0  0.28433  0.36827  0.52554  1.0000
  C   C290      1.0  0.27996  0.24741  0.51018  1.0000
  H   H501      1.0  0.31790  0.33646  0.53854  1.0000
  H   H502      1.0  0.22356  0.32701  0.56035  1.0000
  H   H503      1.0  0.23000  0.32336  0.53795  1.0000
  H   H504      1.0  0.26639  0.40730  0.53910  1.0000
  H   H505      1.0  0.27438  0.40984  0.56137  1.0000
  H   H506      1.0  0.30845  0.31340  0.55556  1.0000
  C   C291      1.0  0.98279  0.09794  0.74659  1.0000
  H   H507      1.0  0.33227  0.34168  0.57622  1.0000
  H   H508      1.0  0.34938  0.32616  0.55923  1.0000
  H   H509      1.0  0.46414  0.31482  0.70127  1.0000
  C   C292      1.0  0.14483  0.40401  0.62294  1.0000
  H   H510      1.0  0.36439  0.30725  0.68300  1.0000
  C   C293      1.0  0.15317  0.42500  0.63643  1.0000
  C   C294      1.0  0.06148  0.48130  0.64439  1.0000
  H   H511      1.0  0.23437  0.27638  0.56489  1.0000
  H   H512      1.0  0.21078  0.28095  0.54990  1.0000
  C   C295      1.0  0.08047  0.45093  0.68926  1.0000
  H   H513      1.0  0.26111  0.24554  0.50925  1.0000
  H   H514      1.0  0.26087  0.31040  0.52012  1.0000
  H   H515      1.0  0.08588  0.46549  0.69964  1.0000
  H   H516      1.0  0.23181  0.11530  0.51579  1.0000
  H   H517      1.0  0.43567  0.36957  0.69628  1.0000
  C   C296      1.0  0.22569  0.07330  0.64507  1.0000
  N   N17       1.0  0.13868  0.45484  0.66247  1.0000
  C   C297      1.0  0.17730  0.44071  0.70292  1.0000
  H   H518      1.0  0.08823  0.04709  0.53134  1.0000
  H   H519      1.0  0.44450  0.19586  0.73310  1.0000
  C   C298      1.0  0.15579  0.44121  0.67463  1.0000
  H   H520      1.0  0.22000  0.42029  0.50498  1.0000
  C   C299      1.0  0.10191  0.43921  0.67973  1.0000
  H   H521      1.0  0.11805  0.44118  0.64083  1.0000
  H   H522      1.0  0.00561  0.47239  0.64737  1.0000
  H   H523      1.0  0.47439  0.32275  0.67093  1.0000
  C   C300      1.0  0.42563  0.41764  0.74245  1.0000
  C   C301      1.0  0.46764  0.34041  0.67892  1.0000
  C   C302      1.0  0.42363  0.39813  0.72694  1.0000
  C   C303      1.0  0.40097  0.15107  0.71982  1.0000
  H   H524      1.0  0.00977  0.46111  0.59916  1.0000
  C   C304      1.0  0.06809  0.01529  0.66196  1.0000
  H   H525      1.0  0.00364  0.12113  0.69920  1.0000
  H   H526      1.0  0.08669  0.05134  0.61954  1.0000
  C   C305      1.0  0.30073  0.16914  0.51626  1.0000
  H   H527      1.0  0.14904  0.42051  0.67901  1.0000
  H   H528      1.0  0.17252  0.43615  0.66793  1.0000
  H   H529      1.0  0.41135  0.36335  0.74185  1.0000
  S   S66       1.0  0.19092  0.01075  0.61386  1.0000
  H   H530      1.0  0.13847  0.38440  0.62905  1.0000
  H   H531      1.0  0.11281  0.42760  0.68912  1.0000
  C   C306      1.0  0.11601  0.46322  0.67121  1.0000
  C   C307      1.0  0.20271  0.41067  0.50214  1.0000
  H   H532      1.0  0.32129  0.46197  0.61406  1.0000
  C   C308      1.0  0.41375  0.30659  0.74030  1.0000
  H   H533      1.0  0.14737  0.46658  0.69769  1.0000
  H   H534      1.0  0.42395  0.43992  0.73834  1.0000
  C   C309      1.0  0.38824  0.20401  0.69900  1.0000
  H   H535      1.0  0.45841  0.36214  0.71117  1.0000
  H   H536      1.0  0.40837  0.13503  0.72873  1.0000
  Fe  Fe34      1.0  0.98151  0.02733  0.71814  1.0000
  H   H537      1.0  0.04049  0.46807  0.57743  1.0000
  C   C310      1.0  0.08290  0.01161  0.59254  1.0000
  H   H538      1.0  0.06260  0.07328  0.61293  1.0000
  C   C311      1.0  0.40414  0.20285  0.71498  1.0000
  H   H539      1.0  0.42648  0.16876  0.69129  1.0000
  C   C312      1.0  0.99535  0.11343  0.68725  1.0000
  H   H540      1.0  0.39792  0.19829  0.68721  1.0000
  N   N18       1.0  0.41746  0.17572  0.71803  1.0000
  H   H541      1.0  0.47800  0.12194  0.69207  1.0000
  C   C313      1.0  0.39424  0.32372  0.69688  1.0000
  H   H542      1.0  0.45701  0.35450  0.67065  1.0000
  C   C314      1.0  0.35351  0.19087  0.54923  1.0000
  H   H543      1.0  0.08677  0.05698  0.58828  1.0000
  C   C315      1.0  0.32849  0.25208  0.51279  1.0000
  H   H544      1.0  0.16680  0.42277  0.70775  1.0000
  C   C316      1.0  0.00059  0.45974  0.63608  1.0000
  H   H545      1.0  0.19340  0.43247  0.69655  1.0000
  H   H546      1.0  0.46755  0.15523  0.71474  1.0000
  C   C317      1.0  0.08923  0.02269  0.65360  1.0000
  H   H547      1.0  0.18265  0.45380  0.71402  1.0000
  S   S67       1.0  0.12625  0.01590  0.63086  1.0000
  H   H548      1.0  0.23938  0.08879  0.64159  1.0000
  C   C318      1.0  0.07648  0.47147  0.63119  1.0000
  C   C319      1.0  0.45275  0.32878  0.69352  1.0000
  H   H549      1.0  0.38932  0.14873  0.69271  1.0000
  H   H550      1.0  0.45048  0.12797  0.68131  1.0000
  H   H551      1.0  0.11635  0.02940  0.53328  1.0000
  H   H552      1.0  0.23960  0.04145  0.62750  1.0000
  C   C320      1.0  0.23584  0.04401  0.64136  1.0000
  H   H553      1.0  0.07043  0.43338  0.69505  1.0000
  H   H554      1.0  0.23263  0.42157  0.56880  1.0000
  H   H555      1.0  0.03410  0.00778  0.59474  1.0000
  H   H556      1.0  0.22183  0.18424  0.64700  1.0000
  C   C321      1.0  0.19248  0.40006  0.51898  1.0000
  H   H557      1.0  0.37316  0.18959  0.70058  1.0000
  H   H558      1.0  0.05728  0.03730  0.61905  1.0000
  H   H559      1.0  0.00203  0.48881  0.58458  1.0000
  H   H560      1.0  0.44845  0.31715  0.73115  1.0000
  H   H561      1.0  0.40649  0.40255  0.72082  1.0000
  N   N19       1.0  0.19023  0.10619  0.63790  1.0000
  C   C322      1.0  0.17177  0.10942  0.62423  1.0000
  C   C323      1.0  0.20808  0.12958  0.63651  1.0000
  C   C324      1.0  0.20271  0.07840  0.63483  1.0000
  C   C325      1.0  0.17960  0.10517  0.65556  1.0000
  C   C326      1.0  0.16463  0.13087  0.66117  1.0000
  C   C327      1.0  0.15325  0.08569  0.62312  1.0000
  C   C328      1.0  0.19916  0.15900  0.63065  1.0000
  C   C329      1.0  0.43032  0.31679  0.72585  1.0000
  C   C330      1.0  0.15233  0.12526  0.67820  1.0000
  C   C331      1.0  0.13518  0.09204  0.60925  1.0000
  H   H562      1.0  0.18041  0.11080  0.61149  1.0000
  H   H563      1.0  0.16195  0.12950  0.62559  1.0000
  H   H564      1.0  0.21763  0.13211  0.64882  1.0000
  H   H565      1.0  0.22175  0.12395  0.62686  1.0000
  H   H566      1.0  0.20719  0.07597  0.62104  1.0000
  H   H567      1.0  0.19095  0.06048  0.63792  1.0000
  H   H568      1.0  0.16877  0.08589  0.65707  1.0000
  H   H569      1.0  0.19358  0.10306  0.66535  1.0000
  H   H570      1.0  0.15081  0.13603  0.65175  1.0000
  H   H571      1.0  0.17609  0.14939  0.66312  1.0000
  H   H572      1.0  0.16160  0.06526  0.61974  1.0000
  H   H573      1.0  0.14367  0.08333  0.63538  1.0000
  H   H574      1.0  0.22255  0.07474  0.65902  1.0000
  H   H575      1.0  0.19491  0.15834  0.61679  1.0000
  H   H576      1.0  0.18320  0.16596  0.63754  1.0000
  H   H577      1.0  0.44520  0.12902  0.71284  1.0000
  H   H578      1.0  0.14211  0.14421  0.68215  1.0000
  H   H579      1.0  0.14002  0.10732  0.67695  1.0000
  H   H580      1.0  0.16535  0.12044  0.68834  1.0000
  H   H581      1.0  0.14396  0.09431  0.59663  1.0000
  H   H582      1.0  0.12262  0.07434  0.60840  1.0000
  H   H583      1.0  0.12526  0.11162  0.61232  1.0000
  Fe  Fe35      1.0  0.15232  0.00218  0.60966  1.0000
  H   H584      1.0  0.06866  0.46242  0.68037  1.0000
  H   H585      1.0  0.31994  0.17262  0.51687  1.0000
  Fe  Fe36      1.0  0.99374  0.46860  0.71235  1.0000
  H   H586      1.0  0.43782  0.40395  0.71791  1.0000
  H   H587      1.0  0.04802  0.46777  0.64947  1.0000
  H   H588      1.0  0.44095  0.15952  0.73750  1.0000
  C   C332      1.0  0.36793  0.32293  0.69324  1.0000
  H   H589      1.0  0.38671  0.34467  0.72107  1.0000
  H   H590      1.0  0.39527  0.30613  0.73595  1.0000
  H   H591      1.0  0.39244  0.24919  0.69506  1.0000
  H   H592      1.0  0.23438  0.17556  0.62638  1.0000
  Fe  Fe37      1.0  0.14986  0.48652  0.59719  1.0000
  H   H593      1.0  0.29147  0.31328  0.52444  1.0000
  C   C333      1.0  0.43099  0.17916  0.73450  1.0000
  C   C334      1.0  0.45315  0.14750  0.70647  1.0000
  H   H594      1.0  0.40300  0.32933  0.68469  1.0000
  H   H595      1.0  0.36154  0.34384  0.68885  1.0000
  C   C335      1.0  0.16284  0.45858  0.69054  1.0000
  H   H596      1.0  0.10883  0.01804  0.56420  1.0000
  H   H597      1.0  0.05695  0.04540  0.58701  1.0000
  C   C336      1.0  0.00354  0.14289  0.74628  1.0000
  H   H598      1.0  0.01106  0.10759  0.72941  1.0000
  H   H599      1.0  0.36682  0.23980  0.70748  1.0000
  H   H600      1.0  0.14172  0.48309  0.64086  1.0000
  H   H601      1.0  0.15962  0.39850  0.61426  1.0000
  C   C337      1.0  0.46400  0.13777  0.68956  1.0000
  C   C338      1.0  0.43514  0.17173  0.70383  1.0000
  H   H602      1.0  0.41013  0.12232  0.69865  1.0000
  C   C339      1.0  0.17004  0.00758  0.52558  1.0000
  C   C340      1.0  0.37489  0.11385  0.70641  1.0000
  C   C341      1.0  0.37811  0.23364  0.69648  1.0000
  C   C342      1.0  0.99427  0.40364  0.74214  1.0000
  S   S68       1.0  0.00611  0.43233  0.72996  1.0000
  H   H603      1.0  0.00418  0.99576  0.57269  1.0000
  H   H604      1.0  0.99787  0.09025  0.68630  1.0000
  C   C343      1.0  0.17677  0.01766  0.50940  1.0000
  H   H605      1.0  0.41670  0.22072  0.71421  1.0000
  H   H606      1.0  0.03541  0.48421  0.74377  1.0000
  H   H607      1.0  0.09533  0.42421  0.66999  1.0000
  H   H608      1.0  0.04579  0.01244  0.56511  1.0000
  H   H609      1.0  0.29221  0.18969  0.51879  1.0000
  H   H610      1.0  0.22339  0.02742  0.64545  1.0000
  H   H611      1.0  0.25249  0.04107  0.64850  1.0000
  C   C344      1.0  0.08968  0.01552  0.56179  1.0000
  H   H612      1.0  0.18913  0.03478  0.50855  1.0000
  H   H613      1.0  0.37986  0.09860  0.71654  1.0000
  C   C345      1.0  0.23665  0.09387  0.51118  1.0000
  H   H614      1.0  0.37124  0.10191  0.69449  1.0000
  H   H615      1.0  0.20886  0.48170  0.50226  1.0000
  C   C346      1.0  0.09972  0.00486  0.64126  1.0000
  S   S69       1.0  0.20005  0.99669  0.57325  1.0000
  H   H616      1.0  0.11889  0.47944  0.68118  1.0000
  H   H617      1.0  0.38426  0.15815  0.72592  1.0000
  H   H618      1.0  0.09584  0.01830  0.51723  1.0000
  C   C347      1.0  0.09741  0.02643  0.53051  1.0000
  H   H619      1.0  0.08204  0.03709  0.56208  1.0000
  S   S70       1.0  0.11402  0.47391  0.60875  1.0000
  C   C348      1.0  0.42026  0.27683  0.74608  1.0000
  H   H620      1.0  0.01692  0.15608  0.74071  1.0000
  H   H621      1.0  0.47186  0.15582  0.68266  1.0000
  C   C349      1.0  0.03897  0.48296  0.58836  1.0000
  H   H622      1.0  0.05152  0.47615  0.59840  1.0000
  C   C350      1.0  0.01384  0.48295  0.59526  1.0000
  C   C351      1.0  0.08667  0.00538  0.54299  1.0000
  S   S71       1.0  0.19192  0.48252  0.53668  1.0000
  H   H623      1.0  0.17403  0.47646  0.68663  1.0000
  N   N20       1.0  0.07879  0.99736  0.57552  1.0000
  C   C352      1.0  0.09493  0.48816  0.62488  1.0000
  H   H624      1.0  0.28804  0.48829  0.60203  1.0000
  C   C353      1.0  0.19055  0.48774  0.50178  1.0000
  C   C354      1.0  0.17771  0.49036  0.51709  1.0000
  Fe  Fe38      1.0  0.18005  0.48977  0.56432  1.0000
  H   H625      1.0  0.44296  0.41493  0.74870  1.0000
  C   C355      1.0  0.98143  0.47518  0.62561  1.0000
  H   H626      1.0  0.41066  0.20893  0.75036  1.0000
  H   H627      1.0  0.43868  0.27611  0.75071  1.0000
  S   S72       1.0  0.00769  0.26109  0.78753  1.0000
  H   H628      1.0  0.38110  0.43100  0.89469  1.0000
  Fe  Fe39      1.0  0.00715  0.25700  0.81633  1.0000
  S   S73       1.0  0.04487  0.25550  0.82735  1.0000
  Fe  Fe40      1.0  0.28164  0.03162  0.92260  1.0000
  S   S74       1.0  0.31981  0.01901  0.92554  1.0000
  S   S75       1.0  0.27286  0.07795  0.92854  1.0000
  Fe  Fe41      1.0  0.27155  0.45662  0.91966  1.0000
  S   S76       1.0  0.30969  0.46128  0.92677  1.0000
  S   S77       1.0  0.24940  0.41845  0.92749  1.0000
  H   H629      1.0  0.47870  0.10780  0.78800  1.0000
  C   C356      1.0  0.00132  0.36356  0.76153  1.0000
  H   H630      1.0  0.37071  0.44560  0.95573  1.0000
  Fe  Fe42      1.0  0.46068  0.00419  0.82578  1.0000
  H   H631      1.0  0.07839  0.14035  0.80710  1.0000
  H   H632      1.0  0.47404  0.40260  0.82543  1.0000
  Fe  Fe43      1.0  0.13961  0.24930  0.90791  1.0000
  S   S78       1.0  0.17158  0.23816  0.89246  1.0000
  S   S79       1.0  0.10186  0.25714  0.89829  1.0000
  Fe  Fe44      1.0  0.16880  0.25128  0.94131  1.0000
  S   S80       1.0  0.20240  0.23986  0.92778  1.0000
  S   S81       1.0  0.17135  0.26770  0.96861  1.0000
  Fe  Fe45      1.0  0.19080  0.27092  0.90794  1.0000
  S   S82       1.0  0.21650  0.30099  0.89500  1.0000
  Fe  Fe46      1.0  0.18078  0.20790  0.91372  1.0000
  S   S83       1.0  0.19202  0.16367  0.90497  1.0000
  S   S84       1.0  0.15830  0.28409  0.92202  1.0000
  S   S85       1.0  0.14752  0.21729  0.92857  1.0000
  H   H633      1.0  0.07956  0.18306  0.82202  1.0000
  C   C357      1.0  0.98964  0.15370  0.75975  1.0000
  C   C358      1.0  0.21488  0.01787  0.96625  1.0000
  H   H634      1.0  0.22799  0.10936  0.98620  1.0000
  H   H635      1.0  0.39189  0.46876  0.96547  1.0000
  C   C359      1.0  0.39385  0.02460  0.86619  1.0000
  H   H636      1.0  0.06280  0.14505  0.77869  1.0000
  C   C360      1.0  0.36804  0.48853  0.87188  1.0000
  H   H637      1.0  0.05824  0.09611  0.76946  1.0000
  C   C361      1.0  0.10147  0.25466  0.97386  1.0000
  H   H638      1.0  0.19943  0.19800  0.87244  1.0000
  H   H639      1.0  0.41135  0.43260  0.88821  1.0000
  S   S86       1.0  0.26941  0.99986  0.94184  1.0000
  H   H640      1.0  0.23208  0.02858  0.96500  1.0000
  H   H641      1.0  0.36305  0.02983  0.88226  1.0000
  H   H642      1.0  0.21326  0.18735  0.85274  1.0000
  C   C362      1.0  0.21587  0.18959  0.86673  1.0000
  C   C363      1.0  0.17079  0.24724  0.98743  1.0000
  H   H643      1.0  0.01632  0.17560  0.82847  1.0000
  C   C364      1.0  0.16153  0.22004  0.98765  1.0000
  Fe  Fe47      1.0  0.31366  0.48644  0.90233  1.0000
  H   H644      1.0  0.15588  0.21032  0.97584  1.0000
  H   H645      1.0  0.44637  0.19580  0.76679  1.0000
  H   H646      1.0  0.05276  0.48791  0.76283  1.0000
  H   H647      1.0  0.39870  0.47869  0.89881  1.0000
  H   H648      1.0  0.39966  0.01345  0.95566  1.0000
  H   H649      1.0  0.40338  0.02936  0.90814  1.0000
  H   H650      1.0  0.38436  0.07241  0.91866  1.0000
  H   H651      1.0  0.42903  0.00025  0.95135  1.0000
  H   H652      1.0  0.39918  0.04630  0.86756  1.0000
  H   H653      1.0  0.40856  0.27035  0.75670  1.0000
  H   H654      1.0  0.44849  0.01099  0.89567  1.0000
  H   H655      1.0  0.13746  0.38371  0.87253  1.0000
  H   H656      1.0  0.02648  0.14060  0.83191  1.0000
  H   H657      1.0  0.05489  0.11964  0.81447  1.0000
  H   H658      1.0  0.20437  0.02276  0.95469  1.0000
  H   H659      1.0  0.42047  0.46335  0.91275  1.0000
  C   C365      1.0  0.24034  0.38619  0.91784  1.0000
  C   C366      1.0  0.22580  0.36806  0.92727  1.0000
  C   C367      1.0  0.21834  0.34207  0.92045  1.0000
  C   C368      1.0  0.22530  0.33379  0.90403  1.0000
  C   C369      1.0  0.23973  0.35194  0.89451  1.0000
  C   C370      1.0  0.24720  0.37799  0.90134  1.0000
  H   H660      1.0  0.22037  0.37410  0.94003  1.0000
  H   H661      1.0  0.20731  0.32839  0.92799  1.0000
  H   H662      1.0  0.24524  0.34581  0.88179  1.0000
  H   H663      1.0  0.25835  0.39167  0.89391  1.0000
  C   C371      1.0  0.24935  0.10053  0.92223  1.0000
  C   C372      1.0  0.23626  0.09578  0.90742  1.0000
  C   C373      1.0  0.21878  0.11529  0.90241  1.0000
  C   C374      1.0  0.21390  0.13955  0.91223  1.0000
  C   C375      1.0  0.22657  0.14389  0.92729  1.0000
  C   C376      1.0  0.24443  0.12476  0.93208  1.0000
  H   H664      1.0  0.23987  0.07735  0.89966  1.0000
  H   H665      1.0  0.20897  0.11154  0.89082  1.0000
  H   H666      1.0  0.22248  0.16181  0.93532  1.0000
  H   H667      1.0  0.25435  0.12858  0.94361  1.0000
  C   C377      1.0  0.06016  0.25501  0.84733  1.0000
  C   C378      1.0  0.08481  0.25206  0.84726  1.0000
  C   C379      1.0  0.09782  0.25188  0.86265  1.0000
  C   C380      1.0  0.08638  0.25497  0.87842  1.0000
  C   C381      1.0  0.06173  0.25774  0.87848  1.0000
  C   C382      1.0  0.04870  0.25758  0.86310  1.0000
  H   H668      1.0  0.09393  0.24997  0.83519  1.0000
  H   H669      1.0  0.11669  0.24963  0.86231  1.0000
  H   H670      1.0  0.05261  0.26024  0.89053  1.0000
  H   H671      1.0  0.02981  0.25989  0.86346  1.0000
  H   H672      1.0  0.03271  0.45890  0.76082  1.0000
  N   N21       1.0  0.13974  0.33876  0.87680  1.0000
  C   C383      1.0  0.15787  0.31558  0.87530  1.0000
  C   C384      1.0  0.13595  0.34573  0.89547  1.0000
  C   C385      1.0  0.11692  0.32718  0.87001  1.0000
  C   C386      1.0  0.14622  0.36484  0.86682  1.0000
  C   C387      1.0  0.16100  0.30283  0.85710  1.0000
  C   C388      1.0  0.09508  0.34669  0.87176  1.0000
  C   C389      1.0  0.15732  0.35740  0.90533  1.0000
  N   N22       1.0  0.04695  0.16424  0.81359  1.0000
  C   C390      1.0  0.18519  0.28931  0.85466  1.0000
  C   C391      1.0  0.07453  0.33554  0.86126  1.0000
  H   H673      1.0  0.15332  0.29784  0.88396  1.0000
  H   H674      1.0  0.17519  0.32274  0.87984  1.0000
  H   H675      1.0  0.12206  0.36207  0.89698  1.0000
  H   H676      1.0  0.12948  0.32675  0.90237  1.0000
  H   H677      1.0  0.11263  0.30699  0.87650  1.0000
  H   H678      1.0  0.11858  0.32191  0.85619  1.0000
  H   H679      1.0  0.13928  0.36367  0.85354  1.0000
  H   H680      1.0  0.18112  0.35665  0.85561  1.0000
  H   H681      1.0  0.14757  0.28631  0.85500  1.0000
  H   H682      1.0  0.15863  0.31896  0.84703  1.0000
  H   H683      1.0  0.09891  0.36837  0.86737  1.0000
  H   H684      1.0  0.08914  0.34758  0.88528  1.0000
  H   H685      1.0  0.17238  0.34259  0.90486  1.0000
  H   H686      1.0  0.36262  0.45296  0.98637  1.0000
  H   H687      1.0  0.19916  0.30539  0.85590  1.0000
  H   H688      1.0  0.18823  0.27263  0.86430  1.0000
  H   H689      1.0  0.18642  0.27968  0.84174  1.0000
  H   H690      1.0  0.07905  0.33476  0.84745  1.0000
  H   H691      1.0  0.06973  0.31408  0.86556  1.0000
  H   H692      1.0  0.05901  0.34954  0.86297  1.0000
  C   C392      1.0  0.43047  0.18239  0.76699  1.0000
  S   S87       1.0  0.27579  0.47939  0.89461  1.0000
  H   H693      1.0  0.16257  0.37805  0.90005  1.0000
  C   C393      1.0  0.17285  0.37136  0.86491  1.0000
  H   H694      1.0  0.43586  0.15998  0.76838  1.0000
  H   H695      1.0  0.05507  0.19552  0.76574  1.0000
  H   H696      1.0  0.18264  0.36920  0.87702  1.0000
  H   H697      1.0  0.33901  0.46540  0.97313  1.0000
  H   H698      1.0  0.36725  0.45833  0.91963  1.0000
  H   H699      1.0  0.29525  0.36693  0.99504  1.0000
  H   H700      1.0  0.16981  0.41697  0.86761  1.0000
  H   H701      1.0  0.40683  0.03283  0.93072  1.0000
  C   C394      1.0  0.37568  0.05186  0.92083  1.0000
  C   C395      1.0  0.39933  0.43365  0.89939  1.0000
  H   H702      1.0  0.19579  0.40495  0.85661  1.0000
  H   H703      1.0  0.08879  0.15844  0.86606  1.0000
  H   H704      1.0  0.14560  0.34281  0.93041  1.0000
  C   C396      1.0  0.38517  0.46456  0.92389  1.0000
  H   H705      1.0  0.05120  0.15546  0.85092  1.0000
  C   C397      1.0  0.35752  0.46915  0.97685  1.0000
  H   H706      1.0  0.03189  0.17874  0.78972  1.0000
  C   C398      1.0  0.37344  0.46695  0.96115  1.0000
  C   C399      1.0  0.04289  0.18667  0.80029  1.0000
  C   C400      1.0  0.99138  0.49247  0.75902  1.0000
  C   C401      1.0  0.39399  0.02822  0.92056  1.0000
  H   H707      1.0  0.40370  0.41610  0.90819  1.0000
  C   C402      1.0  0.09531  0.24680  0.99225  1.0000
  H   H708      1.0  0.00148  0.45223  0.78468  1.0000
  H   H709      1.0  0.29105  0.01519  0.97743  1.0000
  S   S88       1.0  0.43356  0.01926  0.84594  1.0000
  C   C403      1.0  0.06731  0.15836  0.84315  1.0000
  H   H710      1.0  0.05411  0.19700  0.83216  1.0000
  H   H711      1.0  0.36251  0.04870  0.91059  1.0000
  C   C404      1.0  0.03537  0.48153  0.75784  1.0000
  C   C405      1.0  0.40200  0.46208  0.90839  1.0000
  H   H712      1.0  0.10215  0.17562  0.84803  1.0000
  H   H713      1.0  0.28710  0.46944  0.97466  1.0000
  C   C406      1.0  0.38196  0.47019  0.86181  1.0000
  C   C407      1.0  0.05896  0.13826  0.80639  1.0000
  H   H714      1.0  0.07422  0.13739  0.83926  1.0000
  H   H715      1.0  0.07735  0.22154  0.76976  1.0000
  H   H716      1.0  0.01348  0.35065  0.76870  1.0000
  H   H717      1.0  0.09111  0.24164  0.96484  1.0000
  H   H718      1.0  0.21952  0.16838  0.87211  1.0000
  C   C408      1.0  0.06544  0.19965  0.79247  1.0000
  H   H719      1.0  0.41149  0.46571  0.84442  1.0000
  H   H720      1.0  0.12038  0.25069  0.97130  1.0000
  C   C409      1.0  0.40117  0.48019  0.85210  1.0000
  C   C410      1.0  0.98193  0.13923  0.81998  1.0000
  H   H721      1.0  0.07178  0.21686  0.80093  1.0000
  H   H722      1.0  0.25518  0.09195  0.99150  1.0000
  H   H723      1.0  0.05207  0.08505  0.79097  1.0000
  H   H724      1.0  0.36658  0.05268  0.93340  1.0000
  H   H725      1.0  0.47623  0.37901  0.84332  1.0000
  H   H726      1.0  0.99124  0.47005  0.75519  1.0000
  S   S89       1.0  0.45373  0.99539  0.79780  1.0000
  C   C411      1.0  0.00467  0.14438  0.81008  1.0000
  C   C412      1.0  0.02384  0.15675  0.82185  1.0000
  H   H727      1.0  0.08089  0.09830  0.78546  1.0000
  S   S90       1.0  0.99429  0.18928  0.76686  1.0000
  C   C413      1.0  0.29710  0.00485  0.98892  1.0000
  C   C414      1.0  0.06097  0.21210  0.77479  1.0000
  H   H728      1.0  0.16790  0.40423  0.84579  1.0000
  H   H729      1.0  0.16720  0.37026  0.93092  1.0000
  H   H730      1.0  0.01038  0.12365  0.80496  1.0000
  H   H731      1.0  0.13727  0.37868  0.92544  1.0000
  C   C415      1.0  0.06220  0.17705  0.82734  1.0000
  N   N23       1.0  0.26472  0.22314  0.89451  1.0000
  C   C416      1.0  0.24016  0.21453  0.88966  1.0000
  C   C417      1.0  0.26507  0.23199  0.91307  1.0000
  C   C418      1.0  0.27064  0.24883  0.88399  1.0000
  C   C419      1.0  0.28271  0.20017  0.89110  1.0000
  C   C420      1.0  0.27422  0.16913  0.89275  1.0000
  C   C421      1.0  0.23631  0.20938  0.87023  1.0000
  C   C422      1.0  0.29411  0.26361  0.88827  1.0000
  C   C423      1.0  0.25947  0.20898  0.92636  1.0000
  C   C424      1.0  0.25984  0.22085  0.94455  1.0000
  C   C425      1.0  0.29483  0.14843  0.89343  1.0000
  C   C426      1.0  0.30023  0.28560  0.87478  1.0000
  H   H732      1.0  0.22731  0.23109  0.89367  1.0000
  H   H733      1.0  0.23455  0.19555  0.89674  1.0000
  H   H734      1.0  0.28271  0.23964  0.91673  1.0000
  H   H735      1.0  0.25270  0.25003  0.91516  1.0000
  H   H736      1.0  0.25646  0.26504  0.88523  1.0000
  H   H737      1.0  0.27145  0.24331  0.87017  1.0000
  H   H738      1.0  0.29001  0.20194  0.87793  1.0000
  H   H739      1.0  0.29813  0.20295  0.89964  1.0000
  H   H740      1.0  0.26330  0.16327  0.88160  1.0000
  H   H741      1.0  0.26341  0.16559  0.90426  1.0000
  H   H742      1.0  0.23243  0.22981  0.86388  1.0000
  H   H743      1.0  0.25214  0.20023  0.86403  1.0000
  H   H744      1.0  0.30877  0.24817  0.88901  1.0000
  H   H745      1.0  0.29267  0.27503  0.90065  1.0000
  H   H746      1.0  0.24192  0.20004  0.92408  1.0000
  H   H747      1.0  0.27289  0.19199  0.92591  1.0000
  H   H748      1.0  0.25470  0.20413  0.95370  1.0000
  H   H749      1.0  0.27771  0.22816  0.94790  1.0000
  H   H750      1.0  0.24732  0.23873  0.94597  1.0000
  H   H751      1.0  0.30587  0.15018  0.88178  1.0000
  H   H752      1.0  0.30569  0.15239  0.90494  1.0000
  H   H753      1.0  0.28805  0.12656  0.89424  1.0000
  H   H754      1.0  0.30284  0.27550  0.86209  1.0000
  H   H755      1.0  0.28602  0.30170  0.87387  1.0000
  H   H756      1.0  0.31671  0.29642  0.87841  1.0000
  H   H757      1.0  0.46384  0.35858  0.78201  1.0000
  H   H758      1.0  0.03251  0.20446  0.80581  1.0000
  C   C427      1.0  0.15137  0.36254  0.92416  1.0000
  H   H759      1.0  0.07855  0.19276  0.85969  1.0000
  C   C428      1.0  0.08533  0.17220  0.85488  1.0000
  H   H760      1.0  0.00039  0.15874  0.79942  1.0000
  C   C429      1.0  0.17670  0.40123  0.85830  1.0000
  H   H761      1.0  0.39126  0.44784  0.93272  1.0000
  H   H762      1.0  0.36847  0.00059  0.93257  1.0000
  C   C430      1.0  0.00964  0.38655  0.75177  1.0000
  C   C431      1.0  0.06176  0.10064  0.78315  1.0000
  C   C432      1.0  0.24218  0.10799  0.99588  1.0000
  C   C433      1.0  0.05354  0.13053  0.78745  1.0000
  S   S91       1.0  0.34470  0.47411  0.88453  1.0000
  H   H763      1.0  0.03467  0.13203  0.78431  1.0000
  H   H764      1.0  0.04734  0.22882  0.77551  1.0000
  H   H765      1.0  0.07979  0.18388  0.79128  1.0000
  H   H766      1.0  0.09744  0.27720  0.97141  1.0000
  C   C434      1.0  0.37336  0.01528  0.87466  1.0000
  S   S92       1.0  0.27567  0.00244  0.90006  1.0000
  H   H767      1.0  0.37783  0.44800  0.86149  1.0000
  H   H768      1.0  0.02823  0.39096  0.75157  1.0000
  H   H769      1.0  0.98161  0.49217  0.79724  1.0000
  H   H770      1.0  0.23471  0.49149  0.99006  1.0000
  H   H771      1.0  0.09907  0.22392  0.99374  1.0000
  H   H772      1.0  0.41968  0.18840  0.77827  1.0000
  C   C435      1.0  0.40738  0.00624  0.85586  1.0000
  H   H773      1.0  0.25083  0.12885  0.99670  1.0000
  N   N24       1.0  0.38402  0.49279  0.93285  1.0000
  C   C436      1.0  0.29218  0.48067  0.98611  1.0000
  C   C437      1.0  0.36733  0.49002  0.94782  1.0000
  H   H774      1.0  0.20549  0.02635  0.97763  1.0000
  H   H775      1.0  0.07624  0.25024  0.99422  1.0000
  H   H776      1.0  0.42133  0.00476  0.98220  1.0000
  S   S93       1.0  0.47174  0.41824  0.78512  1.0000
  H   H777      1.0  0.98420  0.41225  0.79971  1.0000
  S   S94       1.0  0.98412  0.21849  0.81552  1.0000
  H   H778      1.0  0.98241  0.44341  0.81294  1.0000
  Fe  Fe48      1.0  0.98357  0.22350  0.78689  1.0000
  H   H779      1.0  0.34921  0.48594  0.94322  1.0000
  C   C438      1.0  0.38246  0.99881  0.92265  1.0000
  C   C439      1.0  0.98207  0.45128  0.78547  1.0000
  C   C440      1.0  0.47404  0.36468  0.77096  1.0000
  H   H780      1.0  0.98487  0.12378  0.83039  1.0000
  H   H781      1.0  0.47418  0.32263  0.75995  1.0000
  H   H782      1.0  0.41790  0.48217  0.94349  1.0000
  H   H783      1.0  0.35885  0.49024  0.98294  1.0000
  H   H784      1.0  0.43121  0.99725  0.92352  1.0000
  H   H785      1.0  0.37271  0.99505  0.91056  1.0000
  H   H786      1.0  0.41158  0.41323  0.75191  1.0000
  H   H787      1.0  0.41505  0.32043  0.75170  1.0000
  H   H788      1.0  0.40042  0.17310  0.75158  1.0000
  C   C441      1.0  0.41136  0.99469  0.95613  1.0000
  H   H789      1.0  0.11159  0.28570  0.00051  1.0000
  S   S95       1.0  0.00790  0.73713  0.22112  1.0000
  H   H790      1.0  0.05671  0.69066  0.09459  1.0000
  Fe  Fe49      1.0  0.01323  0.72915  0.19259  1.0000
  S   S96       1.0  0.04970  0.72010  0.18060  1.0000
  H   H791      1.0  0.05069  0.72081  0.08131  1.0000
  H   H792      1.0  0.25086  0.51032  0.00633  1.0000
  S   S97       1.0  0.47556  0.51556  0.18681  1.0000
  H   H793      1.0  0.09766  0.83173  0.10339  1.0000
  C   C442      1.0  0.44898  0.72522  0.19546  1.0000
  H   H794      1.0  0.03502  0.70843  0.12678  1.0000
  H   H795      1.0  0.30956  0.86868  0.12137  1.0000
  Fe  Fe50      1.0  0.98073  0.70266  0.22016  1.0000
  H   H796      1.0  0.23404  0.62064  0.15834  1.0000
  C   C443      1.0  0.01078  0.64367  0.16127  1.0000
  Fe  Fe51      1.0  0.26610  0.51319  0.09417  1.0000
  S   S98       1.0  0.23676  0.54545  0.09946  1.0000
  Fe  Fe52      1.0  0.27932  0.95424  0.09590  1.0000
  S   S99       1.0  0.27453  0.90812  0.10397  1.0000
  S   S100      1.0  0.30006  0.51942  0.07999  1.0000
  S   S101      1.0  0.31198  0.96502  0.08106  1.0000
  Fe  Fe53      1.0  0.18917  0.77069  0.08782  1.0000
  S   S102      1.0  0.15399  0.75937  0.07677  1.0000
  S   S103      1.0  0.19714  0.81733  0.08274  1.0000
  Fe  Fe54      1.0  0.19791  0.70846  0.09815  1.0000
  S   S104      1.0  0.16304  0.69410  0.08804  1.0000
  S   S105      1.0  0.22795  0.67934  0.10665  1.0000
  Fe  Fe55      1.0  0.17164  0.72142  0.06531  1.0000
  S   S106      1.0  0.17384  0.70296  0.03838  1.0000
  Fe  Fe56      1.0  0.14813  0.73356  0.10069  1.0000
  S   S107      1.0  0.11163  0.74237  0.11290  1.0000
  S   S108      1.0  0.20699  0.73403  0.07495  1.0000
  S   S109      1.0  0.18279  0.74659  0.11223  1.0000
  C   C444      1.0  0.25346  0.88280  0.09730  1.0000
  C   C445      1.0  0.23584  0.88920  0.08550  1.0000
  C   C446      1.0  0.21916  0.86866  0.08096  1.0000
  C   C447      1.0  0.21980  0.84147  0.08813  1.0000
  C   C448      1.0  0.23761  0.83493  0.09975  1.0000
  C   C449      1.0  0.25431  0.85549  0.10429  1.0000
  H   H797      1.0  0.23492  0.91006  0.08002  1.0000
  H   H798      1.0  0.20545  0.87401  0.07199  1.0000
  H   H799      1.0  0.23835  0.81419  0.10541  1.0000
  H   H800      1.0  0.26785  0.85026  0.11343  1.0000
  C   C450      1.0  0.23482  0.58286  0.10038  1.0000
  C   C451      1.0  0.25426  0.60025  0.09805  1.0000
  C   C452      1.0  0.25192  0.62974  0.09997  1.0000
  C   C453      1.0  0.22990  0.64231  0.10332  1.0000
  C   C454      1.0  0.21035  0.62492  0.10509  1.0000
  C   C455      1.0  0.21292  0.59541  0.10393  1.0000
  H   H801      1.0  0.27110  0.59091  0.09506  1.0000
  H   H802      1.0  0.26720  0.64296  0.09874  1.0000
  H   H803      1.0  0.19342  0.63417  0.10805  1.0000
  H   H804      1.0  0.19788  0.58212  0.10606  1.0000
  C   C456      1.0  0.14906  0.74188  0.01890  1.0000
  C   C457      1.0  0.16450  0.71887  0.01909  1.0000
  C   C458      1.0  0.25102  0.94343  0.03469  1.0000
  H   H805      1.0  0.14263  0.75063  0.03081  1.0000
  C   C459      1.0  0.99674  0.75642  0.12858  1.0000
  C   C460      1.0  0.46333  0.80558  0.22684  1.0000
  H   H806      1.0  0.06018  0.72589  0.10297  1.0000
  C   C461      1.0  0.23984  0.95494  0.01837  1.0000
  H   H807      1.0  0.26976  0.94957  0.03546  1.0000
  Fe  Fe57      1.0  0.47606  0.95282  0.21959  1.0000
  H   H808      1.0  0.35791  0.57015  0.11079  1.0000
  H   H809      1.0  0.38224  0.92426  0.08010  1.0000
  H   H810      1.0  0.29250  0.93629  0.16778  1.0000
  H   H811      1.0  0.26179  0.54501  0.04761  1.0000
  H   H812      1.0  0.28101  0.94584  0.14702  1.0000
  H   H813      1.0  0.25378  0.57431  0.15774  1.0000
  H   H814      1.0  0.24177  0.95225  0.04603  1.0000
  H   H815      1.0  0.97971  0.71776  0.10438  1.0000
  H   H816      1.0  0.18786  0.77231  0.00572  1.0000
  H   H817      1.0  0.47626  0.72264  0.24431  1.0000
  C   C462      1.0  0.47674  0.88512  0.24974  1.0000
  H   H818      1.0  0.02611  0.67691  0.11654  1.0000
  H   H819      1.0  0.25836  0.92256  0.00439  1.0000
  C   C463      1.0  0.26382  0.59294  0.15340  1.0000
  H   H820      1.0  0.11214  0.79848  0.09950  1.0000
  C   C464      1.0  0.09477  0.73567  0.13185  1.0000
  C   C465      1.0  0.07383  0.75105  0.13465  1.0000
  C   C466      1.0  0.05986  0.74668  0.14938  1.0000
  C   C467      1.0  0.06649  0.72665  0.16159  1.0000
  C   C468      1.0  0.08748  0.71139  0.15882  1.0000
  C   C469      1.0  0.10150  0.71579  0.14411  1.0000
  H   H821      1.0  0.06847  0.76670  0.12540  1.0000
  H   H822      1.0  0.04420  0.75917  0.15144  1.0000
  H   H823      1.0  0.09299  0.69598  0.16817  1.0000
  H   H824      1.0  0.11752  0.70381  0.14229  1.0000
  H   H825      1.0  0.21098  0.78153  0.05132  1.0000
  H   H826      1.0  0.46015  0.71330  0.18626  1.0000
  H   H827      1.0  0.47638  0.75439  0.20128  1.0000
  H   H828      1.0  0.25917  0.65410  0.06665  1.0000
  C   C470      1.0  0.98997  0.52418  0.23489  1.0000
  H   H829      1.0  0.27024  0.95666  0.00189  1.0000
  H   H830      1.0  0.38226  0.93937  0.17486  1.0000
  H   H831      1.0  0.00434  0.78209  0.15101  1.0000
  C   C471      1.0  0.00042  0.62669  0.24817  1.0000
  H   H832      1.0  0.24976  0.92012  0.03511  1.0000
  C   C472      1.0  0.99448  0.67655  0.13858  1.0000
  C   C473      1.0  0.38552  0.91650  0.17295  1.0000
  C   C474      1.0  0.01456  0.67120  0.15161  1.0000
  H   H833      1.0  0.01514  0.68842  0.16114  1.0000
  H   H834      1.0  0.22185  0.66605  0.03932  1.0000
  C   C475      1.0  0.24580  0.61485  0.14754  1.0000
  H   H835      1.0  0.12284  0.81397  0.07009  1.0000
  H   H836      1.0  0.10721  0.84679  0.07374  1.0000
  C   C476      1.0  0.40687  0.99233  0.14756  1.0000
  H   H837      1.0  0.23368  0.78613  0.02503  1.0000
  N   N25       1.0  0.14065  0.83699  0.12085  1.0000
  C   C477      1.0  0.16553  0.84698  0.12312  1.0000
  C   C478      1.0  0.13824  0.80801  0.12858  1.0000
  C   C479      1.0  0.13638  0.83403  0.10186  1.0000
  C   C480      1.0  0.12261  0.85713  0.12830  1.0000
  C   C481      1.0  0.12997  0.87468  0.14420  1.0000
  C   C482      1.0  0.17187  0.87436  0.11336  1.0000
  H   H838      1.0  0.34757  0.82486  0.11218  1.0000
  C   C483      1.0  0.14419  0.80507  0.14778  1.0000
  C   C484      1.0  0.14186  0.77456  0.15368  1.0000
  C   C485      1.0  0.10877  0.88928  0.15242  1.0000
  C   C486      1.0  0.19360  0.88839  0.12086  1.0000
  H   H839      1.0  0.35081  0.92070  0.08056  1.0000
  H   H840      1.0  0.17814  0.83035  0.11874  1.0000
  H   H841      1.0  0.16973  0.85026  0.13679  1.0000
  H   H842      1.0  0.11995  0.80030  0.12727  1.0000
  H   H843      1.0  0.14942  0.79265  0.12140  1.0000
  H   H844      1.0  0.15033  0.82066  0.09589  1.0000
  H   H845      1.0  0.13753  0.85486  0.09546  1.0000
  H   H846      1.0  0.11699  0.87288  0.11857  1.0000
  H   H847      1.0  0.10629  0.84553  0.13161  1.0000
  H   H848      1.0  0.14249  0.89136  0.14048  1.0000
  H   H849      1.0  0.13864  0.86182  0.15411  1.0000
  H   H850      1.0  0.17563  0.86924  0.09977  1.0000
  H   H851      1.0  0.15725  0.88988  0.11352  1.0000
  H   H852      1.0  0.23725  0.68177  0.06786  1.0000
  H   H853      1.0  0.31058  0.52029  0.02752  1.0000
  H   H854      1.0  0.16243  0.81160  0.15052  1.0000
  H   H855      1.0  0.13169  0.81755  0.15562  1.0000
  H   H856      1.0  0.14782  0.77263  0.16713  1.0000
  H   H857      1.0  0.12324  0.76802  0.15312  1.0000
  H   H858      1.0  0.15264  0.76014  0.14561  1.0000
  H   H859      1.0  0.09609  0.87345  0.15720  1.0000
  H   H860      1.0  0.11460  0.90231  0.16341  1.0000
  H   H861      1.0  0.09986  0.90327  0.14307  1.0000
  H   H862      1.0  0.20856  0.87330  0.12121  1.0000
  H   H863      1.0  0.19871  0.90659  0.11282  1.0000
  H   H864      1.0  0.18999  0.89613  0.13402  1.0000
  H   H865      1.0  0.23567  0.53754  0.03567  1.0000
  N   N26       1.0  0.46228  0.77605  0.23393  1.0000
  H   H866      1.0  0.31679  0.82341  0.10701  1.0000
  N   N27       1.0  0.34468  0.90695  0.13325  1.0000
  C   C487      1.0  0.34559  0.87545  0.13068  1.0000
  C   C488      1.0  0.36524  0.91563  0.14412  1.0000
  C   C489      1.0  0.32163  0.91443  0.14172  1.0000
  C   C490      1.0  0.34609  0.92225  0.11641  1.0000
  C   C491      1.0  0.36795  0.91535  0.10521  1.0000
  C   C492      1.0  0.32782  0.86340  0.11759  1.0000
  C   C493      1.0  0.31925  0.94499  0.14856  1.0000
  C   C494      1.0  0.36572  0.90350  0.16250  1.0000
  C   C495      1.0  0.36616  0.92902  0.08763  1.0000
  H   H867      1.0  0.16109  0.58481  0.09159  1.0000
  C   C496      1.0  0.47385  0.49691  0.11938  1.0000
  H   H868      1.0  0.34213  0.86454  0.14299  1.0000
  H   H869      1.0  0.36353  0.86842  0.12689  1.0000
  H   H870      1.0  0.38201  0.90878  0.13807  1.0000
  H   H871      1.0  0.36646  0.93902  0.14482  1.0000
  H   H872      1.0  0.31778  0.89987  0.15247  1.0000
  H   H873      1.0  0.30692  0.91145  0.13260  1.0000
  H   H874      1.0  0.32996  0.91878  0.10870  1.0000
  H   H875      1.0  0.34640  0.94533  0.11858  1.0000
  H   H876      1.0  0.37013  0.89241  0.10311  1.0000
  H   H877      1.0  0.38407  0.92357  0.11134  1.0000
  H   H878      1.0  0.41830  0.51486  0.15194  1.0000
  C   C497      1.0  0.42422  0.79148  0.25003  1.0000
  H   H879      1.0  0.31894  0.96856  0.03050  1.0000
  H   H880      1.0  0.01058  0.72832  0.14738  1.0000
  H   H881      1.0  0.34910  0.90764  0.16947  1.0000
  H   H882      1.0  0.36874  0.88038  0.16209  1.0000
  H   H883      1.0  0.23488  0.60613  0.13709  1.0000
  C   C498      1.0  0.99588  0.72792  0.13809  1.0000
  C   C499      1.0  0.99425  0.49530  0.24376  1.0000
  H   H884      1.0  0.25608  0.56392  0.02811  1.0000
  H   H885      1.0  0.01284  0.82916  0.23687  1.0000
  H   H886      1.0  0.16251  0.64141  0.00531  1.0000
  H   H887      1.0  0.43546  0.76836  0.21499  1.0000
  H   H888      1.0  0.01736  0.73466  0.09990  1.0000
  N   N28       1.0  0.99734  0.70183  0.12707  1.0000
  Fe  Fe58      1.0  0.47729  0.52351  0.21556  1.0000
  S   S110      1.0  0.25689  0.98381  0.08061  1.0000
  C   C500      1.0  0.15167  0.62896  0.01430  1.0000
  H   H889      1.0  0.01465  0.75985  0.12346  1.0000
  C   C501      1.0  0.21591  0.77694  0.02399  1.0000
  H   H890      1.0  0.41364  0.78288  0.23936  1.0000
  H   H891      1.0  0.28732  0.49519  0.17431  1.0000
  H   H892      1.0  0.03204  0.66978  0.14540  1.0000
  C   C502      1.0  0.04940  0.71242  0.09451  1.0000
  H   H893      1.0  0.32103  0.51025  0.14508  1.0000
  H   H894      1.0  0.19758  0.80740  0.00864  1.0000
  H   H895      1.0  0.15527  0.59817  0.03402  1.0000
  H   H896      1.0  0.25894  0.68198  0.05109  1.0000
  C   C503      1.0  0.20157  0.78702  0.03939  1.0000
  C   C504      1.0  0.31007  0.51672  0.15612  1.0000
  S   S111      1.0  0.98614  0.76150  0.18457  1.0000
  S   S112      1.0  0.47022  0.94924  0.19103  1.0000
  H   H897      1.0  0.99839  0.54069  0.24289  1.0000
  C   C505      1.0  0.38870  0.50925  0.13487  1.0000
  C   C506      1.0  0.02112  0.69948  0.11840  1.0000
  H   H898      1.0  0.22014  0.50338  0.00927  1.0000
  H   H899      1.0  0.40272  0.91352  0.16646  1.0000
  H   H900      1.0  0.47550  0.72409  0.21473  1.0000
  H   H901      1.0  0.27346  0.60185  0.16444  1.0000
  H   H902      1.0  0.42568  0.98916  0.14755  1.0000
  H   H903      1.0  0.33099  0.87184  0.10459  1.0000
  S   S113      1.0  0.46725  0.91583  0.23807  1.0000
  H   H904      1.0  0.37440  0.58232  0.17174  1.0000
  H   H905      1.0  0.47084  0.82006  0.23659  1.0000
  C   C507      1.0  0.25340  0.94496  0.00219  1.0000
  C   C508      1.0  0.47721  0.80966  0.21003  1.0000
  H   H906      1.0  0.27914  0.53011  0.14220  1.0000
  H   H907      1.0  0.32582  0.82163  0.12902  1.0000
  H   H908      1.0  0.42947  0.50667  0.10591  1.0000
  C   C509      1.0  0.35529  0.58702  0.17227  1.0000
  C   C510      1.0  0.44886  0.77744  0.25062  1.0000
  H   H909      1.0  0.00029  0.52339  0.22282  1.0000
  H   H910      1.0  0.17648  0.59498  0.01700  1.0000
  N   N29       1.0  0.30164  0.56652  0.14348  1.0000
  C   C511      1.0  0.31467  0.55943  0.12721  1.0000
  C   C512      1.0  0.29203  0.53977  0.15114  1.0000
  C   C513      1.0  0.28084  0.58477  0.13866  1.0000
  C   C514      1.0  0.31666  0.58212  0.15626  1.0000
  C   C515      1.0  0.34339  0.57505  0.15639  1.0000
  C   C516      1.0  0.32238  0.58506  0.11630  1.0000
  H   H911      1.0  0.42586  0.81463  0.24843  1.0000
  H   H912      1.0  0.12948  0.77094  0.00313  1.0000
  C   C517      1.0  0.14158  0.75329  0.00319  1.0000
  C   C518      1.0  0.34198  0.57714  0.10378  1.0000
  H   H913      1.0  0.30375  0.54577  0.11883  1.0000
  H   H914      1.0  0.33048  0.54666  0.12992  1.0000
  H   H915      1.0  0.28218  0.54445  0.16309  1.0000
  H   H916      1.0  0.98631  0.60403  0.19229  1.0000
  H   H917      1.0  0.27024  0.57412  0.12859  1.0000
  H   H918      1.0  0.28681  0.60494  0.13297  1.0000
  H   H919      1.0  0.31545  0.60529  0.15415  1.0000
  H   H920      1.0  0.30971  0.57891  0.16943  1.0000
  H   H921      1.0  0.35214  0.58438  0.14509  1.0000
  H   H922      1.0  0.34714  0.55218  0.15597  1.0000
  H   H923      1.0  0.30732  0.59291  0.10870  1.0000
  H   H924      1.0  0.32853  0.60273  0.12438  1.0000
  S   S114      1.0  0.45142  0.99041  0.22197  1.0000
  H   H925      1.0  0.13937  0.61584  0.00677  1.0000
  H   H926      1.0  0.04007  0.77874  0.24144  1.0000
  Fe  Fe59      1.0  0.44727  0.98789  0.19326  1.0000
  C   C519      1.0  0.10836  0.82424  0.07739  1.0000
  H   H927      1.0  0.33243  0.94951  0.15858  1.0000
  C   C520      1.0  0.29506  0.95007  0.15649  1.0000
  H   H928      1.0  0.25456  0.63426  0.14294  1.0000
  H   H929      1.0  0.33626  0.55987  0.09518  1.0000
  H   H930      1.0  0.34656  0.59566  0.09585  1.0000
  H   H931      1.0  0.02454  0.64128  0.17121  1.0000
  C   C521      1.0  0.11246  0.82129  0.09660  1.0000
  H   H932      1.0  0.38641  0.90643  0.18572  1.0000
  H   H933      1.0  0.99779  0.56579  0.21152  1.0000
  S   S115      1.0  0.28562  0.98665  0.11659  1.0000
  H   H934      1.0  0.21738  0.75364  0.02495  1.0000
  H   H935      1.0  0.33465  0.95356  0.00212  1.0000
  H   H936      1.0  0.13650  0.60812  0.08829  1.0000
  H   H937      1.0  0.19916  0.81025  0.03921  1.0000
  H   H938      1.0  0.35283  0.61024  0.17295  1.0000
  C   C522      1.0  0.44947  0.75653  0.22188  1.0000
  H   H939      1.0  0.22129  0.94807  0.01808  1.0000
  H   H940      1.0  0.18412  0.77672  0.03960  1.0000
  S   S116      1.0  0.98771  0.69294  0.19247  1.0000
  H   H941      1.0  0.14107  0.57860  0.07409  1.0000
  H   H942      1.0  0.34802  0.57726  0.18401  1.0000
  H   H943      1.0  0.40416  0.99281  0.12000  1.0000
  H   H944      1.0  0.09166  0.81383  0.07386  1.0000
  C   C523      1.0  0.02379  0.71266  0.10036  1.0000
  H   H945      1.0  0.43723  0.71008  0.20202  1.0000
  C   C524      1.0  0.32972  0.83134  0.11644  1.0000
  C   C525      1.0  0.30532  0.50926  0.01606  1.0000
  N   N30       1.0  0.19964  0.61231  0.04856  1.0000
  C   C526      1.0  0.18488  0.62799  0.03573  1.0000
  C   C527      1.0  0.21405  0.63343  0.05834  1.0000
  C   C528      1.0  0.21506  0.59138  0.03918  1.0000
  C   C529      1.0  0.18454  0.59642  0.06109  1.0000
  C   C530      1.0  0.16489  0.61377  0.07015  1.0000
  H   H946      1.0  0.32136  0.52426  0.16666  1.0000
  C   C531      1.0  0.23464  0.57709  0.04997  1.0000
  C   C532      1.0  0.23154  0.65097  0.04757  1.0000
  C   C533      1.0  0.24768  0.66821  0.05904  1.0000
  C   C534      1.0  0.15004  0.59507  0.08171  1.0000
  H   H947      1.0  0.01369  0.70018  0.09090  1.0000
  C   C535      1.0  0.24777  0.55458  0.03962  1.0000
  H   H948      1.0  0.19617  0.63849  0.02608  1.0000
  H   H949      1.0  0.17516  0.64545  0.04211  1.0000
  H   H950      1.0  0.20248  0.64912  0.06486  1.0000
  H   H951      1.0  0.22380  0.62290  0.06883  1.0000
  H   H952      1.0  0.22350  0.60131  0.02788  1.0000
  H   H953      1.0  0.20420  0.57413  0.03378  1.0000
  H   H954      1.0  0.17631  0.57787  0.05485  1.0000
  H   H955      1.0  0.19554  0.58730  0.07141  1.0000
  H   H956      1.0  0.15275  0.62369  0.06087  1.0000
  H   H957      1.0  0.17250  0.63056  0.07825  1.0000
  C   C536      1.0  0.16710  0.61011  0.02549  1.0000
  H   H958      1.0  0.97983  0.72752  0.14624  1.0000
  H   H959      1.0  0.22726  0.56665  0.06142  1.0000
  H   H960      1.0  0.24775  0.59273  0.05429  1.0000
  H   H961      1.0  0.24281  0.63747  0.03936  1.0000
  H   H962      1.0  0.18442  0.68975  0.00350  1.0000
  H   H963      1.0  0.39396  0.52605  0.12642  1.0000
  H   H964      1.0  0.32155  0.96032  0.13808  1.0000
  H   H965      1.0  0.36450  0.95226  0.08888  1.0000
  H   H966      1.0  0.01253  0.63658  0.23942  1.0000
  H   H967      1.0  0.43821  0.74064  0.18820  1.0000
  H   H968      1.0  0.43997  0.73992  0.22913  1.0000
  H   H969      1.0  0.14122  0.64378  0.02236  1.0000
  C   C537      1.0  0.99962  0.84256  0.24268  1.0000
  H   H970      1.0  0.99336  0.64369  0.16768  1.0000
  H   H971      1.0  0.44544  0.81380  0.22409  1.0000
  H   H972      1.0  0.99174  0.80110  0.13339  1.0000
  C   C538      1.0  0.31283  0.97873  0.01897  1.0000
  H   H973      1.0  0.47092  0.51946  0.11599  1.0000
  C   C539      1.0  0.17252  0.70757  0.00348  1.0000
  C   C540      1.0  0.40261  0.50291  0.14937  1.0000
  H   H974      1.0  0.98076  0.61411  0.21413  1.0000
  H   H975      1.0  0.46159  0.85094  0.20466  1.0000
  C   C541      1.0  0.46449  0.74036  0.20841  1.0000
  H   H976      1.0  0.22756  0.55316  0.00131  1.0000
  C   C542      1.0  0.32169  0.97027  0.00288  1.0000
  H   H977      1.0  0.46782  0.79945  0.19930  1.0000
  Fe  Fe60      1.0  0.97926  0.76747  0.21307  1.0000
  C   C543      1.0  0.20391  0.78534  0.00696  1.0000
  H   H978      1.0  0.99256  0.65704  0.13075  1.0000
  S   S117      1.0  0.35167  0.50268  0.11226  1.0000
  H   H979      1.0  0.98387  0.75741  0.11802  1.0000
  H   H980      1.0  0.24026  0.97832  0.01928  1.0000
  H   H981      1.0  0.29350  0.97238  0.16068  1.0000
  C   C544      1.0  0.99118  0.78100  0.14060  1.0000
  H   H982      1.0  0.01195  0.62541  0.15240  1.0000
  S   S118      1.0  0.40932  0.99367  0.18337  1.0000
  H   H983      1.0  0.23784  0.74689  0.00121  1.0000
  C   C545      1.0  0.36818  0.49397  0.13110  1.0000
  H   H984      1.0  0.97908  0.68078  0.10658  1.0000
  C   C546      1.0  0.47892  0.59417  0.24223  1.0000
  H   H985      1.0  0.46414  0.49386  0.13163  1.0000
  H   H986      1.0  0.11431  0.87956  0.36627  1.0000
  C   C547      1.0  0.25548  0.64816  0.49192  1.0000
  H   H987      1.0  0.37136  0.65041  0.33691  1.0000
  S   S119      1.0  0.99957  0.91192  0.27450  1.0000
  H   H988      1.0  0.33336  0.88806  0.42378  1.0000
  H   H989      1.0  0.27052  0.66312  0.49208  1.0000
  S   S120      1.0  0.45390  0.74036  0.29340  1.0000
  C   C548      1.0  0.00208  0.77192  0.26368  1.0000
  Fe  Fe61      1.0  0.44891  0.74377  0.32214  1.0000
  S   S121      1.0  0.41096  0.75037  0.33213  1.0000
  H   H990      1.0  0.15331  0.87240  0.38474  1.0000
  Fe  Fe62      1.0  0.98937  0.95113  0.29120  1.0000
  C   C549      1.0  0.37659  0.65522  0.35026  1.0000
  Fe  Fe63      1.0  0.47823  0.70358  0.29862  1.0000
  H   H991      1.0  0.39214  0.80536  0.42165  1.0000
  H   H992      1.0  0.33288  0.91074  0.40523  1.0000
  Fe  Fe64      1.0  0.19708  0.52585  0.41517  1.0000
  S   S122      1.0  0.22981  0.55398  0.41460  1.0000
  Fe  Fe65      1.0  0.18413  0.95838  0.42050  1.0000
  S   S123      1.0  0.18978  0.91062  0.41761  1.0000
  S   S124      1.0  0.16014  0.54041  0.42052  1.0000
  S   S125      1.0  0.15087  0.96884  0.43499  1.0000
  Fe  Fe66      1.0  0.26711  0.71712  0.41466  1.0000
  S   S126      1.0  0.29906  0.70081  0.42791  1.0000
  S   S127      1.0  0.23785  0.68778  0.40572  1.0000
  Fe  Fe67      1.0  0.28166  0.77922  0.41993  1.0000
  S   S128      1.0  0.31439  0.76602  0.43421  1.0000
  S   S129      1.0  0.27849  0.82674  0.41484  1.0000
  Fe  Fe68      1.0  0.31915  0.73374  0.41315  1.0000
  S   S130      1.0  0.35561  0.72316  0.40190  1.0000
  Fe  Fe69      1.0  0.29149  0.73450  0.44751  1.0000
  S   S131      1.0  0.28759  0.71893  0.47490  1.0000
  S   S132      1.0  0.28750  0.74800  0.39842  1.0000
  S   S133      1.0  0.25851  0.74981  0.43473  1.0000
  C   C550      1.0  0.21490  0.88793  0.41759  1.0000
  C   C551      1.0  0.21152  0.85859  0.41836  1.0000
  C   C552      1.0  0.23072  0.83960  0.41791  1.0000
  C   C553      1.0  0.25363  0.84971  0.41642  1.0000
  C   C554      1.0  0.25703  0.87906  0.41561  1.0000
  C   C555      1.0  0.23784  0.89807  0.41632  1.0000
  H   H993      1.0  0.19389  0.85044  0.41930  1.0000
  H   H994      1.0  0.22776  0.81715  0.41848  1.0000
  H   H995      1.0  0.27463  0.88717  0.41443  1.0000
  H   H996      1.0  0.24078  0.92052  0.41564  1.0000
  C   C556      1.0  0.23587  0.65064  0.40865  1.0000
  C   C557      1.0  0.25541  0.63410  0.41283  1.0000
  C   C558      1.0  0.25326  0.60460  0.41445  1.0000
  C   C559      1.0  0.23148  0.59125  0.41221  1.0000
  C   C560      1.0  0.21188  0.60785  0.40823  1.0000
  C   C561      1.0  0.21413  0.63730  0.40632  1.0000
  H   H997      1.0  0.27218  0.64404  0.41471  1.0000
  H   H998      1.0  0.26851  0.59198  0.41758  1.0000
  H   H999      1.0  0.19500  0.59798  0.40645  1.0000
  H   H1000     1.0  0.19888  0.64982  0.40304  1.0000
  H   H1001     1.0  0.03331  0.77258  0.28038  1.0000
  Fe  Fe70      1.0  0.15920  0.50411  0.43909  1.0000
  C   C562      1.0  0.46056  0.87094  0.26030  1.0000
  H   H1002     1.0  0.26287  0.62733  0.49563  1.0000
  H   H1003     1.0  0.15335  0.82124  0.37992  1.0000
  H   H1004     1.0  0.02655  0.50741  0.25662  1.0000
  C   C563      1.0  0.00683  0.60133  0.25651  1.0000
  C   C564      1.0  0.34418  0.89714  0.41334  1.0000
  H   H1005     1.0  0.31969  0.76599  0.48167  1.0000
  H   H1006     1.0  0.27659  0.66277  0.46281  1.0000
  C   C565      1.0  0.39594  0.74204  0.35160  1.0000
  C   C566      1.0  0.37150  0.74669  0.35268  1.0000
  C   C567      1.0  0.35887  0.74107  0.36787  1.0000
  C   C568      1.0  0.37053  0.73082  0.38232  1.0000
  C   C569      1.0  0.39486  0.72574  0.38116  1.0000
  C   C570      1.0  0.40749  0.73133  0.36597  1.0000
  H   H1007     1.0  0.36227  0.75462  0.34161  1.0000
  H   H1008     1.0  0.34009  0.74421  0.36831  1.0000
  H   H1009     1.0  0.40411  0.71760  0.39216  1.0000
  H   H1010     1.0  0.42622  0.72755  0.36542  1.0000
  C   C571      1.0  0.47495  0.60477  0.27279  1.0000
  C   C572      1.0  0.21683  0.61530  0.45635  1.0000
  H   H1011     1.0  0.28744  0.61431  0.47593  1.0000
  H   H1012     1.0  0.27217  0.81231  0.35701  1.0000
  H   H1013     1.0  0.19509  0.91252  0.48467  1.0000
  C   C573      1.0  0.31353  0.75772  0.49372  1.0000
  H   H1014     1.0  0.45911  0.78893  0.26044  1.0000
  S   S134      1.0  0.12334  0.51956  0.37837  1.0000
  C   C574      1.0  0.47753  0.63395  0.26997  1.0000
  C   C575      1.0  0.35555  0.87369  0.40267  1.0000
  H   H1015     1.0  0.15741  0.96865  0.36444  1.0000
  H   H1016     1.0  0.28095  0.57399  0.38640  1.0000
  H   H1017     1.0  0.26981  0.59828  0.45948  1.0000
  H   H1018     1.0  0.15411  0.90419  0.36468  1.0000
  H   H1019     1.0  0.25862  0.64477  0.44823  1.0000
  N   N31       1.0  0.11364  0.90916  0.38736  1.0000
  C   C576      1.0  0.12478  0.91229  0.40472  1.0000
  C   C577      1.0  0.12511  0.92951  0.37519  1.0000
  C   C578      1.0  0.08816  0.91788  0.38911  1.0000
  C   C579      1.0  0.11497  0.87934  0.38050  1.0000
  C   C580      1.0  0.13648  0.86114  0.38599  1.0000
  C   C581      1.0  0.11242  0.89621  0.41943  1.0000
  C   C582      1.0  0.07387  0.91946  0.37226  1.0000
  C   C583      1.0  0.15143  0.92469  0.37125  1.0000
  C   C584      1.0  0.12905  0.89032  0.43430  1.0000
  C   C585      1.0  0.04753  0.92154  0.37581  1.0000
  H   H1020     1.0  0.12515  0.93494  0.40853  1.0000
  H   H1021     1.0  0.14347  0.90590  0.40440  1.0000
  H   H1022     1.0  0.12310  0.95135  0.38021  1.0000
  H   H1023     1.0  0.08671  0.93893  0.39543  1.0000
  H   H1024     1.0  0.07869  0.90307  0.39764  1.0000
  H   H1025     1.0  0.09923  0.86714  0.38443  1.0000
  H   H1026     1.0  0.13483  0.85485  0.39957  1.0000
  H   H1027     1.0  0.09750  0.90911  0.42437  1.0000
  H   H1028     1.0  0.10522  0.87582  0.41500  1.0000
  C   C586      1.0  0.16058  0.94729  0.35909  1.0000
  H   H1029     1.0  0.07874  0.93855  0.36494  1.0000
  H   H1030     1.0  0.16219  0.92542  0.38303  1.0000
  H   H1031     1.0  0.38977  0.67238  0.34995  1.0000
  H   H1032     1.0  0.12203  0.82149  0.37673  1.0000
  H   H1033     1.0  0.14396  0.87678  0.43006  1.0000
  H   H1034     1.0  0.13609  0.91027  0.43954  1.0000
  H   H1035     1.0  0.11950  0.87928  0.44466  1.0000
  H   H1036     1.0  0.03797  0.92467  0.36359  1.0000
  H   H1037     1.0  0.98128  0.55264  0.40025  1.0000
  C   C587      1.0  0.20496  0.93229  0.48687  1.0000
  H   H1038     1.0  0.36649  0.88374  0.39270  1.0000
  H   H1039     1.0  0.19611  0.58294  0.44400  1.0000
  N   N32       1.0  0.31484  0.64821  0.37218  1.0000
  C   C588      1.0  0.33619  0.64166  0.36133  1.0000
  C   C589      1.0  0.29751  0.62418  0.37155  1.0000
  C   C590      1.0  0.30310  0.67391  0.36457  1.0000
  C   C591      1.0  0.32126  0.65511  0.39040  1.0000
  C   C592      1.0  0.33535  0.63241  0.40023  1.0000
  C   C593      1.0  0.35536  0.66477  0.36080  1.0000
  C   C594      1.0  0.27905  0.68249  0.37245  1.0000
  C   C595      1.0  0.30757  0.59376  0.37036  1.0000
  C   C596      1.0  0.28836  0.57195  0.37330  1.0000
  C   C597      1.0  0.34492  0.64408  0.41702  1.0000
  C   C598      1.0  0.26790  0.70682  0.36255  1.0000
  H   H1040     1.0  0.33068  0.63736  0.34792  1.0000
  H   H1041     1.0  0.34508  0.62206  0.36553  1.0000
  H   H1042     1.0  0.28548  0.62520  0.38280  1.0000
  H   H1043     1.0  0.28589  0.62622  0.36016  1.0000
  H   H1044     1.0  0.30046  0.67083  0.35057  1.0000
  H   H1045     1.0  0.31440  0.69280  0.36598  1.0000
  H   H1046     1.0  0.33099  0.67526  0.39098  1.0000
  H   H1047     1.0  0.30523  0.65912  0.39814  1.0000
  H   H1048     1.0  0.35059  0.62449  0.39282  1.0000
  H   H1049     1.0  0.32367  0.61460  0.40350  1.0000
  H   H1050     1.0  0.34863  0.68431  0.35479  1.0000
  H   H1051     1.0  0.28139  0.68954  0.38584  1.0000
  H   H1052     1.0  0.26633  0.66493  0.37238  1.0000
  H   H1053     1.0  0.31501  0.59004  0.35740  1.0000
  H   H1054     1.0  0.32162  0.58980  0.37977  1.0000
  H   H1055     1.0  0.27398  0.57462  0.36387  1.0000
  H   H1056     1.0  0.29580  0.55039  0.37185  1.0000
  H   H1057     1.0  0.35722  0.66168  0.41455  1.0000
  H   H1058     1.0  0.33042  0.65176  0.42530  1.0000
  H   H1059     1.0  0.35457  0.62725  0.42395  1.0000
  H   H1060     1.0  0.25133  0.71343  0.36899  1.0000
  H   H1061     1.0  0.27983  0.72519  0.36212  1.0000
  H   H1062     1.0  0.26368  0.70013  0.34931  1.0000
  S   S135      1.0  0.14188  0.50705  0.46531  1.0000
  H   H1063     1.0  0.04355  0.93976  0.38431  1.0000
  H   H1064     1.0  0.06283  0.77706  0.25733  1.0000
  H   H1065     1.0  0.24035  0.69181  0.47753  1.0000
  C   C599      1.0  0.22896  0.62146  0.47360  1.0000
  H   H1066     1.0  0.23865  0.60215  0.47760  1.0000
  H   H1067     1.0  0.45432  0.83621  0.27768  1.0000
  C   C600      1.0  0.22835  0.68366  0.45239  1.0000
  S   S136      1.0  0.00058  0.55547  0.27785  1.0000
  S   S137      1.0  0.47151  0.70586  0.32708  1.0000
  H   H1068     1.0  0.06131  0.51264  0.33472  1.0000
  H   H1069     1.0  0.21449  0.62369  0.48304  1.0000
  C   C601      1.0  0.26490  0.64414  0.46159  1.0000
  H   H1070     1.0  0.21635  0.72602  0.45905  1.0000
  H   H1071     1.0  0.14422  0.97469  0.48416  1.0000
  C   C602      1.0  0.04481  0.77008  0.25415  1.0000
  C   C603      1.0  0.04354  0.56094  0.37286  1.0000
  H   H1072     1.0  0.05056  0.58206  0.37606  1.0000
  H   H1073     1.0  0.36718  0.86151  0.41130  1.0000
  H   H1074     1.0  0.01199  0.52423  0.36105  1.0000
  Fe  Fe71      1.0  0.98723  0.51815  0.29422  1.0000
  C   C604      1.0  0.15623  0.50074  0.48506  1.0000
  Fe  Fe72      1.0  0.14888  0.50883  0.40038  1.0000
  C   C605      1.0  0.46705  0.84653  0.26962  1.0000
  C   C606      1.0  0.99150  0.58794  0.26806  1.0000
  H   H1075     1.0  0.14116  0.83914  0.36169  1.0000
  H   H1076     1.0  0.44283  0.87905  0.26135  1.0000
  H   H1077     1.0  0.20946  0.71490  0.43760  1.0000
  C   C607      1.0  0.47562  0.58508  0.25910  1.0000
  C   C608      1.0  0.98971  0.88351  0.26100  1.0000
  H   H1078     1.0  0.46699  0.66730  0.35598  1.0000
  N   N33       1.0  0.24489  0.64673  0.47421  1.0000
  H   H1079     1.0  0.15174  0.94572  0.34649  1.0000
  C   C609      1.0  0.98926  0.75506  0.29270  1.0000
  H   H1080     1.0  0.02386  0.59200  0.25398  1.0000
  H   H1081     1.0  0.22243  0.66668  0.44379  1.0000
  H   H1082     1.0  0.19250  0.95037  0.48712  1.0000
  H   H1083     1.0  0.21722  0.93528  0.47598  1.0000
  H   H1084     1.0  0.35801  0.91042  0.41917  1.0000
  C   C610      1.0  0.28024  0.61713  0.46292  1.0000
  Fe  Fe73      1.0  0.01251  0.98964  0.31886  1.0000
  H   H1085     1.0  0.29186  0.78305  0.36072  1.0000
  S   S138      1.0  0.47632  0.65781  0.28794  1.0000
  H   H1086     1.0  0.07705  0.90069  0.36407  1.0000
  C   C611      1.0  0.30117  0.61845  0.45071  1.0000
  H   H1087     1.0  0.31257  0.63655  0.45402  1.0000
  H   H1088     1.0  0.31170  0.59876  0.45170  1.0000
  H   H1089     1.0  0.29516  0.62067  0.43731  1.0000
  H   H1090     1.0  0.36175  0.66984  0.37382  1.0000
  H   H1091     1.0  0.04475  0.74669  0.25353  1.0000
  N   N34       1.0  0.34547  0.83086  0.38334  1.0000
  C   C612      1.0  0.35549  0.84320  0.36716  1.0000
  C   C613      1.0  0.33660  0.85461  0.39455  1.0000
  C   C614      1.0  0.36454  0.81412  0.39207  1.0000
  C   C615      1.0  0.32518  0.81160  0.37958  1.0000
  C   C616      1.0  0.30545  0.82419  0.36823  1.0000
  C   C617      1.0  0.36347  0.82159  0.35333  1.0000
  C   C618      1.0  0.35789  0.80131  0.40957  1.0000
  C   C619      1.0  0.20545  0.58623  0.45628  1.0000
  C   C620      1.0  0.28534  0.80342  0.36597  1.0000
  C   C621      1.0  0.37161  0.83642  0.33709  1.0000
  C   C622      1.0  0.37936  0.78864  0.41840  1.0000
  H   H1092     1.0  0.37118  0.85609  0.37013  1.0000
  H   H1093     1.0  0.34279  0.85819  0.36127  1.0000
  H   H1094     1.0  0.32475  0.86874  0.38717  1.0000
  H   H1095     1.0  0.32540  0.84642  0.40508  1.0000
  H   H1096     1.0  0.38068  0.82696  0.39356  1.0000
  H   H1097     1.0  0.37002  0.79588  0.38401  1.0000
  H   H1098     1.0  0.33143  0.79173  0.37355  1.0000
  H   H1099     1.0  0.31666  0.80487  0.39171  1.0000
  H   H1100     1.0  0.31214  0.82936  0.35530  1.0000
  H   H1101     1.0  0.29793  0.84358  0.37406  1.0000
  H   H1102     1.0  0.37850  0.80875  0.35794  1.0000
  H   H1103     1.0  0.34911  0.80717  0.34970  1.0000
  H   H1104     1.0  0.34509  0.78416  0.40756  1.0000
  H   H1105     1.0  0.01855  0.72781  0.28432  1.0000
  H   H1106     1.0  0.09833  0.53084  0.34725  1.0000
  H   H1107     1.0  0.22938  0.61578  0.44559  1.0000
  H   H1108     1.0  0.27645  0.79976  0.37841  1.0000
  C   C623      1.0  0.09679  0.50524  0.36992  1.0000
  H   H1109     1.0  0.35700  0.84878  0.33138  1.0000
  H   H1110     1.0  0.38653  0.85063  0.33989  1.0000
  H   H1111     1.0  0.37763  0.82043  0.32760  1.0000
  H   H1112     1.0  0.47202  0.63481  0.36736  1.0000
  H   H1113     1.0  0.37383  0.77804  0.43037  1.0000
  H   H1114     1.0  0.38804  0.77270  0.41004  1.0000
  H   H1115     1.0  0.17975  0.94436  0.35715  1.0000
  H   H1116     1.0  0.02891  0.80407  0.26805  1.0000
  H   H1117     1.0  0.98016  0.70150  0.30675  1.0000
  C   C624      1.0  0.00786  0.52937  0.37466  1.0000
  H   H1118     1.0  0.00250  0.75001  0.25879  1.0000
  H   H1119     1.0  0.19253  0.58433  0.46687  1.0000
  H   H1120     1.0  0.21898  0.56940  0.45748  1.0000
  C   C625      1.0  0.01789  0.55907  0.37846  1.0000
  H   H1121     1.0  0.38492  0.63630  0.35604  1.0000
  H   H1122     1.0  0.35001  0.81704  0.41839  1.0000
  H   H1123     1.0  0.98569  0.82042  0.27406  1.0000
  H   H1124     1.0  0.05437  0.54482  0.37951  1.0000
  H   H1125     1.0  0.04514  0.55774  0.35883  1.0000
  H   H1126     1.0  0.24541  0.69137  0.44741  1.0000
  H   H1127     1.0  0.20266  0.63100  0.45411  1.0000
  C   C626      1.0  0.23135  0.67380  0.47118  1.0000
  H   H1128     1.0  0.40775  0.76393  0.26881  1.0000
  H   H1129     1.0  0.04111  0.90195  0.38189  1.0000
  H   H1130     1.0  0.47225  0.59729  0.28567  1.0000
  H   H1131     1.0  0.02487  0.86911  0.25551  1.0000
  H   H1132     1.0  0.00165  0.76435  0.30212  1.0000
  H   H1133     1.0  0.21365  0.67256  0.47718  1.0000
  C   C627      1.0  0.02763  0.78072  0.26777  1.0000
  H   H1134     1.0  0.42086  0.79531  0.27773  1.0000
  H   H1135     1.0  0.01730  0.56363  0.39236  1.0000
  H   H1136     1.0  0.00802  0.57580  0.37165  1.0000
  N   N35       1.0  0.98473  0.77531  0.27817  1.0000
  C   C628      1.0  0.21067  0.70788  0.45111  1.0000
  H   H1137     1.0  0.11633  0.92913  0.36254  1.0000
  C   C629      1.0  0.99982  0.72571  0.28798  1.0000
  S   S139      1.0  0.99179  0.94925  0.32004  1.0000
  H   H1138     1.0  0.01849  0.51450  0.38243  1.0000
  C   C630      1.0  0.13826  0.83412  0.37539  1.0000
  C   C631      1.0  0.46809  0.64404  0.35465  1.0000
  H   H1139     1.0  0.00415  0.80852  0.29082  1.0000
  H   H1140     1.0  0.99145  0.84180  0.31298  1.0000
  H   H1141     1.0  0.19301  0.70093  0.45530  1.0000
  S   S140      1.0  0.20467  0.99198  0.43404  1.0000
  H   H1142     1.0  0.39359  0.79771  0.26620  1.0000
  C   C632      1.0  0.29768  0.73535  0.49387  1.0000
  C   C633      1.0  0.08844  0.51505  0.35406  1.0000
  H   H1143     1.0  0.45073  0.63627  0.35037  1.0000
  C   C634      1.0  0.98672  0.80517  0.28481  1.0000
  C   C635      1.0  0.00643  0.86537  0.25330  1.0000
  S   S141      1.0  0.97964  0.51824  0.32260  1.0000
  H   H1144     1.0  0.47347  0.56286  0.26160  1.0000
  S   S142      1.0  0.01166  0.99051  0.28983  1.0000
  C   C636      1.0  0.41084  0.78674  0.26672  1.0000
  N   N36       1.0  0.98192  0.52564  0.37794  1.0000
  H   H1145     1.0  0.44631  0.75591  0.25586  1.0000
  C   C637      1.0  0.15151  0.98385  0.49564  1.0000
  H   H1146     1.0  0.99079  0.71560  0.27711  1.0000
  C   C638      1.0  0.06737  0.50479  0.34691  1.0000
  S   S143      1.0  0.17505  0.98675  0.39831  1.0000
  C   C639      1.0  0.99869  0.70547  0.30309  1.0000
  H   H1147     1.0  0.00690  0.68501  0.29944  1.0000
  H   H1148     1.0  0.00829  0.71417  0.31424  1.0000
  S   S144      1.0  0.18628  0.49640  0.39384  1.0000
  H   H1149     1.0  0.98961  0.51753  0.40453  1.0000
  C   C640      1.0  0.14342  0.50343  0.50037  1.0000
  H   H1150     1.0  0.17460  0.50015  0.34934  1.0000
  H   H1151     1.0  0.99639  0.78463  0.25250  1.0000
  H   H1152     1.0  0.12509  0.50943  0.49989  1.0000
  C   C641      1.0  0.20678  0.73821  0.59684  1.0000
  S   S145      1.0  0.04622  0.52198  0.66815  1.0000
  C   C642      1.0  0.39923  0.91377  0.72302  1.0000
  C   C643      1.0  0.47435  0.64839  0.74485  1.0000
  H   H1153     1.0  0.09663  0.96514  0.62832  1.0000
  C   C644      1.0  0.00911  0.74136  0.72420  1.0000
  Fe  Fe74      1.0  0.26842  0.77663  0.59383  1.0000
  S   S146      1.0  0.30702  0.78664  0.59275  1.0000
  S   S147      1.0  0.23643  0.80637  0.59600  1.0000
  Fe  Fe75      1.0  0.27692  0.71319  0.58500  1.0000
  S   S148      1.0  0.31595  0.71949  0.58308  1.0000
  S   S149      1.0  0.26194  0.67153  0.57477  1.0000
  Fe  Fe76      1.0  0.31291  0.74579  0.60709  1.0000
  S   S150      1.0  0.33741  0.73440  0.62964  1.0000
  Fe  Fe77      1.0  0.30725  0.75933  0.56906  1.0000
  S   S151      1.0  0.32499  0.77248  0.54442  1.0000
  S   S152      1.0  0.27385  0.73723  0.60979  1.0000
  S   S153      1.0  0.26876  0.75171  0.56935  1.0000
  H   H1154     1.0  0.41094  0.76062  0.54620  1.0000
  C   C645      1.0  0.14974  0.72159  0.57823  1.0000
  H   H1155     1.0  0.34813  0.79273  0.68186  1.0000
  H   H1156     1.0  0.23687  0.83408  0.53734  1.0000
  H   H1157     1.0  0.21590  0.74491  0.56364  1.0000
  H   H1158     1.0  0.14269  0.88522  0.55889  1.0000
  Fe  Fe78      1.0  0.19785  0.97176  0.59772  1.0000
  S   S154      1.0  0.22810  0.94092  0.60298  1.0000
  Fe  Fe79      1.0  0.18973  0.52935  0.59477  1.0000
  S   S155      1.0  0.20149  0.57134  0.60640  1.0000
  S   S156      1.0  0.15949  0.96154  0.59531  1.0000
  S   S157      1.0  0.15761  0.52186  0.57858  1.0000
  H   H1159     1.0  0.18675  0.62257  0.56003  1.0000
  Fe  Fe80      1.0  0.46088  0.75392  0.68638  1.0000
  S   S158      1.0  0.43530  0.76835  0.66510  1.0000
  H   H1160     1.0  0.12566  0.74611  0.56239  1.0000
  S   S159      1.0  0.45404  0.75645  0.71481  1.0000
  H   H1161     1.0  0.18710  0.69968  0.59689  1.0000
  C   C646      1.0  0.22769  0.87303  0.55080  1.0000
  H   H1162     1.0  0.00422  0.73982  0.69639  1.0000
  C   C647      1.0  0.13081  0.74424  0.57603  1.0000
  C   C648      1.0  0.17177  0.63146  0.56743  1.0000
  C   C649      1.0  0.09924  0.92084  0.58754  1.0000
  H   H1163     1.0  0.44361  0.80950  0.73583  1.0000
  H   H1164     1.0  0.20647  0.70105  0.53521  1.0000
  H   H1165     1.0  0.17752  0.68069  0.55220  1.0000
  H   H1166     1.0  0.09554  0.98495  0.54059  1.0000
  H   H1167     1.0  0.29517  0.52843  0.57394  1.0000
  C   C650      1.0  0.36492  0.74409  0.63903  1.0000
  C   C651      1.0  0.37780  0.76747  0.63364  1.0000
  C   C652      1.0  0.39936  0.77420  0.64158  1.0000
  C   C653      1.0  0.40851  0.75773  0.65502  1.0000
  C   C654      1.0  0.39579  0.73412  0.66024  1.0000
  C   C655      1.0  0.37417  0.72750  0.65237  1.0000
  H   H1168     1.0  0.37097  0.78061  0.62355  1.0000
  H   H1169     1.0  0.40890  0.79256  0.63741  1.0000
  H   H1170     1.0  0.40242  0.72119  0.67053  1.0000
  H   H1171     1.0  0.36448  0.70935  0.65669  1.0000
  C   C656      1.0  0.31387  0.75853  0.52504  1.0000
  C   C657      1.0  0.43286  0.72369  0.55167  1.0000
  C   C658      1.0  0.29789  0.73632  0.52512  1.0000
  H   H1172     1.0  0.16903  0.88509  0.57157  1.0000
  H   H1173     1.0  0.29200  0.72768  0.53713  1.0000
  C   C659      1.0  0.24528  0.64391  0.58398  1.0000
  C   C660      1.0  0.23839  0.64408  0.60115  1.0000
  C   C661      1.0  0.22495  0.62173  0.60775  1.0000
  C   C662      1.0  0.21821  0.59900  0.59730  1.0000
  C   C663      1.0  0.22515  0.59880  0.58015  1.0000
  C   C664      1.0  0.23861  0.62112  0.57356  1.0000
  H   H1174     1.0  0.24342  0.66140  0.60935  1.0000
  H   H1175     1.0  0.21972  0.62207  0.62105  1.0000
  H   H1176     1.0  0.22005  0.58152  0.57194  1.0000
  H   H1177     1.0  0.24384  0.62075  0.56026  1.0000
  C   C665      1.0  0.23472  0.84397  0.59702  1.0000
  C   C666      1.0  0.21256  0.85727  0.59617  1.0000
  C   C667      1.0  0.21022  0.88687  0.59757  1.0000
  C   C668      1.0  0.23005  0.90363  0.60000  1.0000
  C   C669      1.0  0.25223  0.89039  0.60053  1.0000
  C   C670      1.0  0.25459  0.86082  0.59895  1.0000
  H   H1178     1.0  0.19704  0.84453  0.59472  1.0000
  H   H1179     1.0  0.19305  0.89664  0.59733  1.0000
  H   H1180     1.0  0.26771  0.90306  0.60243  1.0000
  H   H1181     1.0  0.27175  0.85104  0.59963  1.0000
  H   H1182     1.0  0.16335  0.66681  0.58347  1.0000
  H   H1183     1.0  0.31651  0.62118  0.60684  1.0000
  H   H1184     1.0  0.98932  0.50411  0.74677  1.0000
  C   C671      1.0  0.23246  0.73272  0.53145  1.0000
  H   H1185     1.0  0.14207  0.70140  0.57390  1.0000
  C   C672      1.0  0.21031  0.73540  0.61612  1.0000
  H   H1186     1.0  0.39120  0.82309  0.73075  1.0000
  H   H1187     1.0  0.44246  0.84191  0.67797  1.0000
  H   H1188     1.0  0.30497  0.63549  0.62652  1.0000
  H   H1189     1.0  0.22225  0.53677  0.64297  1.0000
  C   C673      1.0  0.14624  0.50936  0.66261  1.0000
  H   H1190     1.0  0.10121  0.91216  0.57441  1.0000
  H   H1191     1.0  0.23662  0.75455  0.53555  1.0000
  H   H1192     1.0  0.11502  0.73854  0.58358  1.0000
  C   C674      1.0  0.41565  0.74739  0.55743  1.0000
  C   C675      1.0  0.17884  0.65868  0.57648  1.0000
  H   H1193     1.0  0.17610  0.75100  0.56942  1.0000
  H   H1194     1.0  0.23485  0.88505  0.56169  1.0000
  N   N37       1.0  0.21381  0.91968  0.53597  1.0000
  H   H1195     1.0  0.33428  0.49406  0.62182  1.0000
  C   C676      1.0  0.41135  0.88501  0.72411  1.0000
  H   H1196     1.0  0.38773  0.69635  0.55544  1.0000
  H   H1197     1.0  0.26177  0.85412  0.54488  1.0000
  C   C677      1.0  0.24361  0.84740  0.54791  1.0000
  H   H1198     1.0  0.08508  0.54604  0.64999  1.0000
  H   H1199     1.0  0.20216  0.91422  0.56228  1.0000
  H   H1200     1.0  0.11678  0.92658  0.59252  1.0000
  C   C678      1.0  0.24466  0.51908  0.62301  1.0000
  C   C679      1.0  0.06741  0.97207  0.64571  1.0000
  H   H1201     1.0  0.00926  0.57983  0.74815  1.0000
  H   H1202     1.0  0.37085  0.80447  0.70786  1.0000
  H   H1203     1.0  0.24659  0.53817  0.55783  1.0000
  H   H1204     1.0  0.98252  0.65748  0.72579  1.0000
  H   H1205     1.0  0.18880  0.94256  0.55166  1.0000
  C   C680      1.0  0.36745  0.79534  0.68122  1.0000
  H   H1206     1.0  0.04297  0.97183  0.59584  1.0000
  H   H1207     1.0  0.37159  0.73325  0.59985  1.0000
  H   H1208     1.0  0.26688  0.66555  0.52496  1.0000
  C   C681      1.0  0.39024  0.69791  0.61022  1.0000
  C   C682      1.0  0.25031  0.65347  0.52414  1.0000
  S   S160      1.0  0.01457  0.50919  0.71328  1.0000
  H   H1209     1.0  0.38010  0.91181  0.72544  1.0000
  S   S161      1.0  0.00736  0.99058  0.71789  1.0000
  C   C683      1.0  0.37559  0.81468  0.69562  1.0000
  H   H1210     1.0  0.02414  0.78532  0.70372  1.0000
  C   C684      1.0  0.28336  0.57735  0.60384  1.0000
  H   H1211     1.0  0.38011  0.82437  0.59563  1.0000
  H   H1212     1.0  0.40825  0.79537  0.72182  1.0000
  H   H1213     1.0  0.27352  0.53015  0.54670  1.0000
  H   H1214     1.0  0.18932  0.91073  0.51553  1.0000
  C   C685      1.0  0.01107  0.50414  0.61029  1.0000
  C   C686      1.0  0.42705  0.82010  0.73981  1.0000
  H   H1215     1.0  0.44443  0.74422  0.52825  1.0000
  H   H1216     1.0  0.39502  0.77519  0.59524  1.0000
  H   H1217     1.0  0.36912  0.74852  0.53580  1.0000
  C   C687      1.0  0.30047  0.62331  0.61484  1.0000
  C   C688      1.0  0.21011  0.72245  0.54021  1.0000
  C   C689      1.0  0.06434  0.50831  0.65128  1.0000
  C   C690      1.0  0.21876  0.93078  0.50358  1.0000
  H   H1218     1.0  0.26008  0.51384  0.59203  1.0000
  H   H1219     1.0  0.19187  0.94711  0.52056  1.0000
  H   H1220     1.0  0.36135  0.75663  0.57572  1.0000
  H   H1221     1.0  0.22864  0.95079  0.50467  1.0000
  H   H1222     1.0  0.99542  0.69512  0.70514  1.0000
  C   C691      1.0  0.00476  0.78316  0.70429  1.0000
  C   C692      1.0  0.35892  0.70718  0.52765  1.0000
  H   H1223     1.0  0.08167  0.95420  0.60094  1.0000
  H   H1224     1.0  0.30916  0.53903  0.62107  1.0000
  H   H1225     1.0  0.15378  0.72045  0.59205  1.0000
  H   H1226     1.0  0.39282  0.72598  0.52946  1.0000
  H   H1227     1.0  0.16595  0.72716  0.55385  1.0000
  H   H1228     1.0  0.19280  0.75416  0.59479  1.0000
  H   H1229     1.0  0.47660  0.87319  0.67747  1.0000
  C   C693      1.0  0.23167  0.94224  0.53968  1.0000
  H   H1230     1.0  0.21626  0.75587  0.62144  1.0000
  C   C694      1.0  0.44590  0.85494  0.68951  1.0000
  H   H1231     1.0  0.22342  0.74621  0.59140  1.0000
  H   H1232     1.0  0.24748  0.71869  0.53465  1.0000
  C   C695      1.0  0.24570  0.93920  0.55645  1.0000
  N   N38       1.0  0.27744  0.54666  0.60663  1.0000
  H   H1233     1.0  0.24947  0.56337  0.62256  1.0000
  C   C696      1.0  0.19509  0.92052  0.54966  1.0000
  H   H1234     1.0  0.21638  0.69567  0.58998  1.0000
  C   C697      1.0  0.99212  0.55555  0.63022  1.0000
  C   C698      1.0  0.15866  0.89733  0.56213  1.0000
  H   H1235     1.0  0.16634  0.61560  0.57706  1.0000
  H   H1236     1.0  0.22386  0.71915  0.61896  1.0000
  H   H1237     1.0  0.42387  0.70668  0.54458  1.0000
  H   H1238     1.0  0.21028  0.86509  0.55482  1.0000
  H   H1239     1.0  0.13720  0.76495  0.58068  1.0000
  H   H1240     1.0  0.40485  0.83231  0.68227  1.0000
  H   H1241     1.0  0.22292  0.96335  0.53975  1.0000
  H   H1242     1.0  0.25764  0.92068  0.55569  1.0000
  H   H1243     1.0  0.44717  0.81728  0.70489  1.0000
  H   H1244     1.0  0.21582  0.87761  0.52498  1.0000
  H   H1245     1.0  0.23836  0.66110  0.53441  1.0000
  H   H1246     1.0  0.15683  0.63539  0.55866  1.0000
  H   H1247     1.0  0.09189  0.90421  0.59590  1.0000
  H   H1248     1.0  0.05916  0.95225  0.64265  1.0000
  H   H1249     1.0  0.40207  0.92329  0.71023  1.0000
  C   C699      1.0  0.37975  0.71782  0.55558  1.0000
  H   H1250     1.0  0.15503  0.53415  0.64009  1.0000
  C   C700      1.0  0.37872  0.76313  0.57058  1.0000
  H   H1251     1.0  0.23014  0.73259  0.51737  1.0000
  H   H1252     1.0  0.22961  0.71122  0.56293  1.0000
  H   H1253     1.0  0.19233  0.65310  0.58612  1.0000
  N   N39       1.0  0.39384  0.73771  0.56656  1.0000
  H   H1254     1.0  0.44154  0.71416  0.56298  1.0000
  H   H1255     1.0  0.25419  0.63085  0.52648  1.0000
  H   H1256     1.0  0.24422  0.83446  0.55971  1.0000
  H   H1257     1.0  0.35680  0.79912  0.59484  1.0000
  C   C701      1.0  0.17169  0.72841  0.56740  1.0000
  C   C702      1.0  0.28994  0.72477  0.50962  1.0000
  H   H1258     1.0  0.24774  0.54770  0.58968  1.0000
  C   C703      1.0  0.23871  0.65739  0.50668  1.0000
  H   H1259     1.0  0.46213  0.75200  0.54686  1.0000
  S   S162      1.0  0.18094  0.49555  0.61392  1.0000
  H   H1260     1.0  0.19361  0.72959  0.62249  1.0000
  H   H1261     1.0  0.28704  0.63540  0.60763  1.0000
  H   H1262     1.0  0.09124  0.95961  0.56250  1.0000
  H   H1263     1.0  0.29759  0.57940  0.59416  1.0000
  H   H1264     1.0  0.04433  0.68670  0.73669  1.0000
  C   C704      1.0  0.08258  0.52512  0.64480  1.0000
  C   C705      1.0  0.38085  0.71430  0.59488  1.0000
  H   H1265     1.0  0.37573  0.77424  0.68252  1.0000
  H   H1266     1.0  0.20596  0.67071  0.55935  1.0000
  H   H1267     1.0  0.33412  0.78625  0.50909  1.0000
  H   H1268     1.0  0.99512  0.64446  0.69634  1.0000
  H   H1269     1.0  0.22230  0.64506  0.50673  1.0000
  H   H1270     1.0  0.17961  0.52666  0.65401  1.0000
  H   H1271     1.0  0.37539  0.69167  0.61858  1.0000
  H   H1272     1.0  0.35595  0.71462  0.51437  1.0000
  H   H1273     1.0  0.01303  0.95908  0.57397  1.0000
  C   C706      1.0  0.08289  0.94650  0.58761  1.0000
  C   C707      1.0  0.40106  0.72251  0.58263  1.0000
  C   C708      1.0  0.14459  0.97393  0.51186  1.0000
  H   H1274     1.0  0.02557  0.50044  0.61957  1.0000
  C   C709      1.0  0.30019  0.53092  0.60951  1.0000
  H   H1275     1.0  0.23393  0.93704  0.56756  1.0000
  H   H1276     1.0  0.24525  0.94289  0.52949  1.0000
  C   C710      1.0  0.40877  0.81823  0.72518  1.0000
  C   C711      1.0  0.29118  0.59432  0.61985  1.0000
  H   H1277     1.0  0.43612  0.87508  0.68839  1.0000
  C   C712      1.0  0.00647  0.63984  0.70751  1.0000
  H   H1278     1.0  0.24334  0.89329  0.52869  1.0000
  H   H1279     1.0  0.36793  0.70074  0.58829  1.0000
  H   H1280     1.0  0.11081  0.97305  0.57801  1.0000
  H   H1281     1.0  0.41159  0.79985  0.69238  1.0000
  H   H1282     1.0  0.36197  0.71491  0.56121  1.0000
  H   H1283     1.0  0.34173  0.70715  0.53437  1.0000
  H   H1284     1.0  0.41040  0.70256  0.57933  1.0000
  H   H1285     1.0  0.99729  0.79038  0.69195  1.0000
  H   H1286     1.0  0.23144  0.91301  0.50256  1.0000
  H   H1287     1.0  0.27613  0.59778  0.62867  1.0000
  C   C713      1.0  0.23276  0.51737  0.64048  1.0000
  H   H1288     1.0  0.45395  0.62429  0.68455  1.0000
  H   H1289     1.0  0.19560  0.73672  0.53633  1.0000
  N   N40       1.0  0.41298  0.83585  0.70935  1.0000
  C   C714      1.0  0.43894  0.83858  0.70589  1.0000
  C   C715      1.0  0.37165  0.80811  0.58753  1.0000
  C   C716      1.0  0.16063  0.53198  0.65362  1.0000
  C   C717      1.0  0.40094  0.86416  0.71095  1.0000
  C   C718      1.0  0.32170  0.76914  0.50928  1.0000
  C   C719      1.0  0.09784  0.51513  0.63180  1.0000
  H   H1290     1.0  0.00704  0.75758  0.73446  1.0000
  H   H1291     1.0  0.15788  0.55259  0.66009  1.0000
  C   C720      1.0  0.09184  0.96954  0.57533  1.0000
  H   H1292     1.0  0.26094  0.50439  0.56081  1.0000
  H   H1293     1.0  0.00421  0.51798  0.64275  1.0000
  H   H1294     1.0  0.36553  0.83469  0.69453  1.0000
  H   H1295     1.0  0.44796  0.84885  0.71674  1.0000
  H   H1296     1.0  0.37202  0.80428  0.66855  1.0000
  H   H1297     1.0  0.06541  0.93909  0.58338  1.0000
  H   H1298     1.0  0.45994  0.65475  0.69751  1.0000
  H   H1299     1.0  0.37443  0.77481  0.55868  1.0000
  H   H1300     1.0  0.40011  0.87478  0.69831  1.0000
  H   H1301     1.0  0.38227  0.86144  0.71474  1.0000
  H   H1302     1.0  0.43034  0.88851  0.72200  1.0000
  S   S163      1.0  0.46536  0.67864  0.73253  1.0000
  H   H1303     1.0  0.40845  0.87714  0.73726  1.0000
  H   H1304     1.0  0.40232  0.71123  0.61785  1.0000
  C   C721      1.0  0.37608  0.72678  0.53670  1.0000
  C   C722      1.0  0.26104  0.96495  0.55969  1.0000
  H   H1305     1.0  0.40668  0.92812  0.73281  1.0000
  H   H1306     1.0  0.43981  0.63023  0.74461  1.0000
  H   H1307     1.0  0.23396  0.68001  0.50547  1.0000
  H   H1308     1.0  0.13198  0.95707  0.51275  1.0000
  H   H1309     1.0  0.00658  0.83150  0.73805  1.0000
  C   C723      1.0  0.38943  0.78501  0.58308  1.0000
  H   H1310     1.0  0.31269  0.53500  0.59887  1.0000
  H   H1311     1.0  0.99907  0.87942  0.72639  1.0000
  H   H1312     1.0  0.47635  0.87591  0.70047  1.0000
  H   H1313     1.0  0.42609  0.76143  0.56585  1.0000
  H   H1314     1.0  0.23061  0.52139  0.61334  1.0000
  N   N41       1.0  0.19306  0.71007  0.57015  1.0000
  C   C724      1.0  0.20059  0.70944  0.58864  1.0000
  C   C725      1.0  0.18903  0.68038  0.56367  1.0000
  C   C726      1.0  0.21298  0.72254  0.55996  1.0000
  S   S164      1.0  0.14437  0.97314  0.54707  1.0000
  H   H1315     1.0  0.39959  0.67850  0.60602  1.0000
  H   H1316     1.0  0.28096  0.56214  0.57068  1.0000
  C   C727      1.0  0.00591  0.69122  0.71689  1.0000
  H   H1317     1.0  0.40479  0.79542  0.57718  1.0000
  H   H1318     1.0  0.15313  0.91771  0.56791  1.0000
  H   H1319     1.0  0.27195  0.54545  0.63403  1.0000
  H   H1320     1.0  0.36484  0.81836  0.57578  1.0000
  C   C728      1.0  0.17307  0.90241  0.54597  1.0000
  C   C729      1.0  0.45212  0.73534  0.54012  1.0000
  H   H1321     1.0  0.16154  0.91352  0.53670  1.0000
  C   C730      1.0  0.26385  0.52729  0.55890  1.0000
  C   C731      1.0  0.26146  0.54471  0.62205  1.0000
  C   C732      1.0  0.26482  0.53635  0.59090  1.0000
  H   H1322     1.0  0.99585  0.59591  0.64296  1.0000
  H   H1323     1.0  0.26800  0.58881  0.59845  1.0000
  H   H1324     1.0  0.30525  0.58334  0.62699  1.0000
  H   H1325     1.0  0.17792  0.88169  0.54036  1.0000
  C   C733      1.0  0.22546  0.89104  0.53428  1.0000
  H   H1326     1.0  0.11180  0.52836  0.62710  1.0000
  H   H1327     1.0  0.41405  0.73503  0.59000  1.0000
  C   C734      1.0  0.27803  0.53960  0.57366  1.0000
  S   S165      1.0  0.21236  0.49994  0.57951  1.0000
  H   H1328     1.0  0.12757  0.51610  0.66202  1.0000
  C   C735      1.0  0.15409  0.49836  0.51633  1.0000
  Fe  Fe81      1.0  0.01446  0.50771  0.68435  1.0000
  C   C736      1.0  0.00116  0.66027  0.72217  1.0000
  Fe  Fe82      1.0  0.16154  0.98840  0.57157  1.0000
  H   H1329     1.0  0.25347  0.49871  0.62049  1.0000
  H   H1330     1.0  0.46234  0.61986  0.70659  1.0000
  H   H1331     1.0  0.00291  0.61794  0.71173  1.0000
  C   C737      1.0  0.40236  0.82042  0.69435  1.0000
  C   C738      1.0  0.45772  0.62752  0.74886  1.0000
  H   H1332     1.0  0.02519  0.64115  0.70365  1.0000
  C   C739      1.0  0.98961  0.87237  0.73757  1.0000
  H   H1333     1.0  0.04389  0.50429  0.58387  1.0000
  C   C740      1.0  0.20219  0.92717  0.51920  1.0000
  C   C741      1.0  0.03636  0.98824  0.58708  1.0000
  H   H1334     1.0  0.01466  0.52522  0.60478  1.0000
  C   C742      1.0  0.98908  0.52384  0.63449  1.0000
  H   H1335     1.0  0.24601  0.51463  0.65073  1.0000
  C   C743      1.0  0.01187  0.70646  0.74706  1.0000
  H   H1336     1.0  0.02831  0.74028  0.72172  1.0000
  N   N42       1.0  0.00027  0.71325  0.73025  1.0000
  S   S166      1.0  0.03001  0.97918  0.66811  1.0000
  H   H1337     1.0  0.15137  0.50908  0.67621  1.0000
  H   H1338     1.0  0.22081  0.49900  0.64074  1.0000
  H   H1339     1.0  0.02450  0.69278  0.71263  1.0000
  C   C744      1.0  0.29859  0.49867  0.61207  1.0000
  H   H1340     1.0  0.43131  0.84205  0.74327  1.0000
  H   H1341     1.0  0.01228  0.65389  0.73313  1.0000
  H   H1342     1.0  0.46449  0.71814  0.53650  1.0000
  H   H1343     1.0  0.27774  0.70751  0.50984  1.0000
  C   C745      1.0  0.08865  0.97939  0.63745  1.0000
  C   C746      1.0  0.15376  0.98581  0.52690  1.0000
  Fe  Fe83      1.0  0.00263  0.99114  0.68898  1.0000
  Fe  Fe84      1.0  0.97975  0.53174  0.71174  1.0000
  H   H1344     1.0  0.99769  0.79692  0.71463  1.0000
  S   S167      1.0  0.98081  0.53305  0.68279  1.0000
  C   C747      1.0  0.01202  0.97937  0.58106  1.0000
  H   H1345     1.0  0.27062  0.96216  0.57193  1.0000
  H   H1346     1.0  0.27405  0.96751  0.54923  1.0000
  C   C748      1.0  0.99285  0.57355  0.64640  1.0000
  Fe  Fe85      1.0  0.47777  0.71770  0.71697  1.0000
  C   C749      1.0  0.47201  0.86206  0.68947  1.0000
  C   C750      1.0  0.99795  0.75254  0.70745  1.0000
  C   C751      1.0  0.03890  0.70225  0.74653  1.0000
  H   H1347     1.0  0.05084  0.97588  0.56232  1.0000
  H   H1348     1.0  0.00739  0.56654  0.65486  1.0000
  C   C752      1.0  0.99378  0.84504  0.74422  1.0000
  H   H1349     1.0  0.14398  0.50038  0.52799  1.0000
  C   C753      1.0  0.46527  0.63260  0.69489  1.0000
  H   H1350     1.0  0.25011  0.98433  0.56075  1.0000
  H   H1351     1.0  0.00880  0.55910  0.62327  1.0000
  N   N43       1.0  0.98765  0.50420  0.61931  1.0000
  H   H1352     1.0  0.04774  0.72252  0.74387  1.0000
  H   H1353     1.0  0.36601  0.68535  0.52715  1.0000
  C   C754      1.0  0.05694  0.98985  0.65810  1.0000
  H   H1354     1.0  0.00033  0.97652  0.59230  1.0000
  C   C755      1.0  0.05304  0.99346  0.57164  1.0000
  H   H1355     1.0  0.29092  0.49415  0.62481  1.0000
  S   S168      1.0  0.01004  0.74086  0.79587  1.0000
  H   H1356     1.0  0.25280  0.79773  0.96581  1.0000
  Fe  Fe86      1.0  0.00239  0.74884  0.82373  1.0000
  S   S169      1.0  0.02831  0.76473  0.84441  1.0000
  Fe  Fe87      1.0  0.26786  0.51951  0.90938  1.0000
  S   S170      1.0  0.30573  0.52795  0.91539  1.0000
  S   S171      1.0  0.24032  0.55136  0.90022  1.0000
  Fe  Fe88      1.0  0.26580  0.96952  0.91980  1.0000
  S   S172      1.0  0.30257  0.95351  0.92226  1.0000
  S   S173      1.0  0.23286  0.94186  0.92142  1.0000
  S   S174      1.0  0.31134  0.52079  0.96458  1.0000
  H   H1357     1.0  0.23697  0.62972  0.96116  1.0000
  H   H1358     1.0  0.22890  0.70341  0.96956  1.0000
  H   H1359     1.0  0.20965  0.53516  0.98596  1.0000
  C   C756      1.0  0.26416  0.58229  0.96114  1.0000
  S   S175      1.0  0.43083  0.52302  0.84015  1.0000
  Fe  Fe89      1.0  0.14972  0.73837  0.90386  1.0000
  S   S176      1.0  0.18911  0.73688  0.89944  1.0000
  S   S177      1.0  0.12667  0.73084  0.87990  1.0000
  Fe  Fe90      1.0  0.15662  0.74700  0.94231  1.0000
  S   S178      1.0  0.19562  0.74610  0.94007  1.0000
  S   S179      1.0  0.14029  0.75760  0.96818  1.0000
  Fe  Fe91      1.0  0.19105  0.77419  0.91738  1.0000
  S   S180      1.0  0.21897  0.80836  0.91345  1.0000
  Fe  Fe92      1.0  0.19113  0.70889  0.92256  1.0000
  S   S181      1.0  0.21952  0.67569  0.92845  1.0000
  S   S182      1.0  0.15184  0.77747  0.92036  1.0000
  S   S183      1.0  0.15180  0.70796  0.92622  1.0000
  H   H1360     1.0  0.26981  0.61809  0.97857  1.0000
  C   C757      1.0  0.17903  0.82441  0.95925  1.0000
  H   H1361     1.0  0.40995  0.62765  0.79349  1.0000
  C   C758      1.0  0.42289  0.97744  0.91925  1.0000
  H   H1362     1.0  0.22127  0.64799  0.98871  1.0000
  H   H1363     1.0  0.37984  0.61124  0.86094  1.0000
  H   H1364     1.0  0.00838  0.72341  0.75659  1.0000
  C   C759      1.0  0.23905  0.80304  0.99229  1.0000
  C   C760      1.0  0.24326  0.74506  0.97437  1.0000
  H   H1365     1.0  0.42574  0.96830  0.97644  1.0000
  C   C761      1.0  0.43091  0.57605  0.79892  1.0000
  H   H1366     1.0  0.20985  0.93377  0.95788  1.0000
  H   H1367     1.0  0.20542  0.52893  0.92625  1.0000
  C   C762      1.0  0.36500  0.93747  0.92726  1.0000
  H   H1368     1.0  0.44068  0.62773  0.79116  1.0000
  C   C763      1.0  0.20922  0.64158  0.97830  1.0000
  H   H1369     1.0  0.40215  0.57253  0.82258  1.0000
  C   C764      1.0  0.14971  0.74210  0.98758  1.0000
  C   C765      1.0  0.22852  0.56221  0.95023  1.0000
  C   C766      1.0  0.16530  0.71923  0.98780  1.0000
  C   C767      1.0  0.40467  0.60678  0.83999  1.0000
  H   H1370     1.0  0.17162  0.71039  0.97586  1.0000
  H   H1371     1.0  0.26099  0.75409  0.97629  1.0000
  C   C768      1.0  0.37356  0.51413  0.92076  1.0000
  C   C769      1.0  0.20517  0.54615  0.95213  1.0000
  H   H1372     1.0  0.41636  0.59380  0.84822  1.0000
  H   H1373     1.0  0.31294  0.58471  0.96594  1.0000
  H   H1374     1.0  0.20464  0.93875  0.99155  1.0000
  H   H1375     1.0  0.31282  0.61610  0.97892  1.0000
  H   H1376     1.0  0.16796  0.84365  0.96028  1.0000
  H   H1377     1.0  0.19004  0.77147  0.97443  1.0000
  S   S184      1.0  0.99384  0.66364  0.78436  1.0000
  N   N44       1.0  0.24073  0.94798  0.98531  1.0000
  H   H1378     1.0  0.17418  0.91766  0.97297  1.0000
  H   H1379     1.0  0.44465  0.67949  0.79153  1.0000
  H   H1380     1.0  0.41058  0.95062  0.94860  1.0000
  C   C770      1.0  0.41076  0.57274  0.78570  1.0000
  C   C771      1.0  0.22952  0.90464  0.91935  1.0000
  C   C772      1.0  0.20736  0.89270  0.92245  1.0000
  C   C773      1.0  0.20378  0.86337  0.92099  1.0000
  C   C774      1.0  0.22232  0.84551  0.91616  1.0000
  C   C775      1.0  0.24446  0.85748  0.91305  1.0000
  C   C776      1.0  0.24809  0.88678  0.91468  1.0000
  H   H1381     1.0  0.19282  0.90632  0.92592  1.0000
  H   H1382     1.0  0.18664  0.85470  0.92347  1.0000
  H   H1383     1.0  0.25895  0.84399  0.90925  1.0000
  H   H1384     1.0  0.26520  0.89557  0.91213  1.0000
  C   C777      1.0  0.23549  0.58670  0.90712  1.0000
  C   C778      1.0  0.25236  0.60166  0.91630  1.0000
  C   C779      1.0  0.24730  0.62909  0.92238  1.0000
  C   C780      1.0  0.22547  0.64207  0.91918  1.0000
  C   C781      1.0  0.20884  0.62741  0.90958  1.0000
  C   C782      1.0  0.21387  0.59992  0.90358  1.0000
  H   H1385     1.0  0.26922  0.59198  0.91884  1.0000
  H   H1386     1.0  0.26037  0.64034  0.92964  1.0000
  H   H1387     1.0  0.19197  0.63705  0.90700  1.0000
  H   H1388     1.0  0.20075  0.58866  0.89635  1.0000
  C   C783      1.0  0.05515  0.75389  0.85456  1.0000
  C   C784      1.0  0.06330  0.76917  0.86884  1.0000
  C   C785      1.0  0.08465  0.76202  0.87707  1.0000
  C   C786      1.0  0.09849  0.73960  0.87100  1.0000
  C   C787      1.0  0.09043  0.72449  0.85663  1.0000
  C   C788      1.0  0.06895  0.73142  0.84854  1.0000
  H   H1389     1.0  0.05291  0.78661  0.87367  1.0000
  H   H1390     1.0  0.09048  0.77403  0.88801  1.0000
  H   H1391     1.0  0.10092  0.70719  0.85171  1.0000
  H   H1392     1.0  0.06316  0.71945  0.83757  1.0000
  H   H1393     1.0  0.40962  0.98813  0.89359  1.0000
  N   N45       1.0  0.02966  0.84912  0.80378  1.0000
  C   C789      1.0  0.03481  0.81822  0.80654  1.0000
  C   C790      1.0  0.00381  0.85440  0.80677  1.0000
  C   C791      1.0  0.03477  0.85553  0.78522  1.0000
  C   C792      1.0  0.04444  0.86809  0.81494  1.0000
  C   C793      1.0  0.05195  0.85635  0.83267  1.0000
  C   C794      1.0  0.05977  0.80834  0.80098  1.0000
  H   H1394     1.0  0.44865  0.53076  0.94707  1.0000
  H   H1395     1.0  0.40606  0.51419  0.95134  1.0000
  C   C795      1.0  0.98581  0.63816  0.76835  1.0000
  C   C796      1.0  0.06277  0.87935  0.84378  1.0000
  C   C797      1.0  0.06762  0.78168  0.81028  1.0000
  Fe  Fe93      1.0  0.98293  0.70627  0.79697  1.0000
  H   H1396     1.0  0.02210  0.80509  0.79926  1.0000
  H   H1397     1.0  0.03186  0.81208  0.82003  1.0000
  H   H1398     1.0  0.99887  0.87629  0.80327  1.0000
  C   C798      1.0  0.47402  0.86246  0.77488  1.0000
  H   H1399     1.0  0.02573  0.84015  0.77675  1.0000
  H   H1400     1.0  0.05381  0.85279  0.78247  1.0000
  H   H1401     1.0  0.06107  0.87379  0.80832  1.0000
  H   H1402     1.0  0.03520  0.88857  0.81706  1.0000
  H   H1403     1.0  0.06533  0.83946  0.83111  1.0000
  H   H1404     1.0  0.03713  0.84720  0.83987  1.0000
  H   H1405     1.0  0.05976  0.80373  0.78703  1.0000
  H   H1406     1.0  0.07308  0.82481  0.80335  1.0000
  H   H1407     1.0  0.03260  0.90189  0.78847  1.0000
  C   C799      1.0  0.04810  0.69148  0.76365  1.0000
  H   H1408     1.0  0.99898  0.82983  0.83047  1.0000
  H   H1409     1.0  0.00277  0.86719  0.83372  1.0000
  C   C800      1.0  0.42818  0.68031  0.79917  1.0000
  H   H1410     1.0  0.41480  0.78270  0.75317  1.0000
  C   C801      1.0  0.19367  0.54149  0.93474  1.0000
  H   H1411     1.0  0.04968  0.89623  0.84649  1.0000
  H   H1412     1.0  0.06849  0.87016  0.85614  1.0000
  H   H1413     1.0  0.07828  0.88860  0.83734  1.0000
  H   H1414     1.0  0.05451  0.76469  0.80876  1.0000
  H   H1415     1.0  0.08462  0.77413  0.80498  1.0000
  H   H1416     1.0  0.06999  0.78610  0.82411  1.0000
  H   H1417     1.0  0.35215  0.95505  0.92803  1.0000
  C   C802      1.0  0.44922  0.60013  0.82296  1.0000
  H   H1418     1.0  0.37323  0.58291  0.84639  1.0000
  N   N46       1.0  0.42815  0.60038  0.81128  1.0000
  H   H1419     1.0  0.34941  0.92097  0.90386  1.0000
  C   C803      1.0  0.38832  0.94763  0.91922  1.0000
  H   H1420     1.0  0.20865  0.61587  0.95589  1.0000
  H   H1421     1.0  0.44212  0.65628  0.81989  1.0000
  S   S185      1.0  0.34091  0.97374  0.88405  1.0000
  S   S186      1.0  0.32484  0.97168  0.96773  1.0000
  H   H1422     1.0  0.41018  0.96378  0.84640  1.0000
  C   C804      1.0  0.04005  0.89268  0.76211  1.0000
  H   H1423     1.0  0.18892  0.88506  0.97858  1.0000
  C   C805      1.0  0.37378  0.51717  0.87210  1.0000
  H   H1424     1.0  0.20941  0.58362  0.98024  1.0000
  C   C806      1.0  0.24576  0.54425  0.97708  1.0000
  C   C807      1.0  0.24610  0.71315  0.97250  1.0000
  H   H1425     1.0  0.21302  0.78864  0.96377  1.0000
  H   H1426     1.0  0.30238  0.61769  0.95719  1.0000
  H   H1427     1.0  0.35705  0.50584  0.91513  1.0000
  Fe  Fe94      1.0  0.29904  0.50228  0.93917  1.0000
  H   H1428     1.0  0.99327  0.84040  0.79832  1.0000
  H   H1429     1.0  0.19363  0.82843  0.95019  1.0000
  C   C808      1.0  0.99484  0.85099  0.82532  1.0000
  H   H1430     1.0  0.28002  0.58520  0.98703  1.0000
  H   H1431     1.0  0.41295  0.68064  0.79034  1.0000
  H   H1432     1.0  0.43178  0.80649  0.76606  1.0000
  C   C809      1.0  0.40691  0.50882  0.85232  1.0000
  H   H1433     1.0  0.38482  0.95040  0.90531  1.0000
  C   C810      1.0  0.40786  0.50125  0.93949  1.0000
  H   H1434     1.0  0.41147  0.59000  0.77617  1.0000
  H   H1435     1.0  0.36701  0.89570  0.91554  1.0000
  H   H1436     1.0  0.19958  0.83417  0.98155  1.0000
  H   H1437     1.0  0.42477  0.50965  0.91428  1.0000
  H   H1438     1.0  0.46577  0.85560  0.78659  1.0000
  H   H1439     1.0  0.40112  0.92985  0.92021  1.0000
  C   C811      1.0  0.42649  0.62715  0.80099  1.0000
  H   H1440     1.0  0.47254  0.82107  0.76310  1.0000
  H   H1441     1.0  0.20444  0.66057  0.97076  1.0000
  H   H1442     1.0  0.17349  0.81399  0.98554  1.0000
  H   H1443     1.0  0.35053  0.54175  0.93595  1.0000
  C   C812      1.0  0.39310  0.52713  0.86249  1.0000
  C   C813      1.0  0.36736  0.54320  0.92880  1.0000
  C   C814      1.0  0.36436  0.56585  0.91512  1.0000
  H   H1444     1.0  0.38097  0.55023  0.93793  1.0000
  H   H1445     1.0  0.38110  0.56907  0.90811  1.0000
  H   H1446     1.0  0.35053  0.55972  0.90588  1.0000
  H   H1447     1.0  0.35906  0.58606  0.92123  1.0000
  N   N47       1.0  0.17069  0.81055  0.86259  1.0000
  C   C815      1.0  0.16301  0.78439  0.85318  1.0000
  C   C816      1.0  0.19368  0.80465  0.87150  1.0000
  C   C817      1.0  0.15250  0.81659  0.87625  1.0000
  C   C818      1.0  0.17269  0.83606  0.85115  1.0000
  C   C819      1.0  0.18023  0.83078  0.83230  1.0000
  C   C820      1.0  0.13765  0.78537  0.84598  1.0000
  C   C821      1.0  0.15890  0.83976  0.88943  1.0000
  C   C822      1.0  0.21475  0.79575  0.86016  1.0000
  C   C823      1.0  0.23595  0.78760  0.87106  1.0000
  C   C824      1.0  0.18631  0.85838  0.82338  1.0000
  C   C825      1.0  0.13339  0.76133  0.83337  1.0000
  C   C826      1.0  0.13746  0.84936  0.89973  1.0000
  H   H1448     1.0  0.16403  0.76575  0.86183  1.0000
  H   H1449     1.0  0.17503  0.77918  0.84247  1.0000
  H   H1450     1.0  0.19976  0.82359  0.87860  1.0000
  H   H1451     1.0  0.19113  0.78810  0.88134  1.0000
  H   H1452     1.0  0.14856  0.79705  0.88360  1.0000
  H   H1453     1.0  0.13556  0.82308  0.87036  1.0000
  H   H1454     1.0  0.15565  0.84763  0.85045  1.0000
  H   H1455     1.0  0.18510  0.85150  0.85684  1.0000
  H   H1456     1.0  0.16574  0.82095  0.82502  1.0000
  H   H1457     1.0  0.19558  0.81656  0.83118  1.0000
  H   H1458     1.0  0.12481  0.78309  0.85655  1.0000
  H   H1459     1.0  0.13381  0.80562  0.83953  1.0000
  H   H1460     1.0  0.16650  0.85850  0.88311  1.0000
  H   H1461     1.0  0.17190  0.83122  0.89861  1.0000
  H   H1462     1.0  0.21064  0.77733  0.85201  1.0000
  H   H1463     1.0  0.22031  0.81368  0.85211  1.0000
  H   H1464     1.0  0.23158  0.76987  0.87972  1.0000
  H   H1465     1.0  0.25071  0.78088  0.86267  1.0000
  H   H1466     1.0  0.24180  0.80584  0.87885  1.0000
  H   H1467     1.0  0.20157  0.86849  0.82967  1.0000
  H   H1468     1.0  0.19100  0.85411  0.80983  1.0000
  H   H1469     1.0  0.17110  0.87314  0.82369  1.0000
  H   H1470     1.0  0.13707  0.74070  0.83953  1.0000
  H   H1471     1.0  0.11474  0.76159  0.82930  1.0000
  H   H1472     1.0  0.14471  0.76357  0.82190  1.0000
  H   H1473     1.0  0.14293  0.86480  0.90962  1.0000
  H   H1474     1.0  0.12436  0.85963  0.89128  1.0000
  H   H1475     1.0  0.12918  0.83118  0.90623  1.0000
  C   C827      1.0  0.44868  0.52083  0.93420  1.0000
  C   C828      1.0  0.31379  0.98321  0.98778  1.0000
  C   C829      1.0  0.21994  0.92835  0.98521  1.0000
  H   H1476     1.0  0.43273  0.55590  0.80612  1.0000
  H   H1477     1.0  0.43468  0.96046  0.92411  1.0000
  H   H1478     1.0  0.00871  0.88670  0.77668  1.0000
  C   C830      1.0  0.25823  0.94153  0.97129  1.0000
  C   C831      1.0  0.40047  0.97025  0.94579  1.0000
  H   H1479     1.0  0.38277  0.96741  0.95158  1.0000
  H   H1480     1.0  0.16802  0.80713  0.95413  1.0000
  C   C832      1.0  0.21170  0.91701  0.96755  1.0000
  C   C833      1.0  0.27144  0.91298  0.97295  1.0000
  H   H1481     1.0  0.25335  0.70377  0.98436  1.0000
  H   H1482     1.0  0.25821  0.70830  0.96172  1.0000
  H   H1483     1.0  0.40983  0.52699  0.78460  1.0000
  H   H1484     1.0  0.01709  0.49646  0.78012  1.0000
  C   C834      1.0  0.28446  0.90536  0.95650  1.0000
  H   H1485     1.0  0.46251  0.97684  0.89835  1.0000
  H   H1486     1.0  0.27195  0.95812  0.97087  1.0000
  H   H1487     1.0  0.24997  0.94234  0.95849  1.0000
  H   H1488     1.0  0.39325  0.57321  0.79189  1.0000
  H   H1489     1.0  0.47849  0.58792  0.80610  1.0000
  H   H1490     1.0  0.23674  0.82967  0.96933  1.0000
  H   H1491     1.0  0.37437  0.94717  0.86147  1.0000
  H   H1492     1.0  0.17701  0.52982  0.93637  1.0000
  C   C835      1.0  0.37982  0.60485  0.84727  1.0000
  H   H1493     1.0  0.22446  0.90140  0.96238  1.0000
  C   C836      1.0  0.41385  0.98677  0.97497  1.0000
  H   H1494     1.0  0.98948  0.53386  0.78303  1.0000
  H   H1495     1.0  0.25925  0.89569  0.97613  1.0000
  C   C837      1.0  0.30314  0.60445  0.96887  1.0000
  H   H1496     1.0  0.26203  0.59740  0.95047  1.0000
  H   H1497     1.0  0.26956  0.84788  0.98741  1.0000
  C   C838      1.0  0.41827  0.80527  0.75589  1.0000
  H   H1498     1.0  0.36338  0.53164  0.87971  1.0000
  H   H1499     1.0  0.03669  0.87617  0.75236  1.0000
  N   N48       1.0  0.39858  0.97426  0.92670  1.0000
  H   H1500     1.0  0.28579  0.81558  0.98338  1.0000
  H   H1501     1.0  0.19289  0.63288  0.98386  1.0000
  H   H1502     1.0  0.39034  0.60435  0.81439  1.0000
  H   H1503     1.0  0.27206  0.90380  0.94562  1.0000
  H   H1504     1.0  0.29784  0.92155  0.95366  1.0000
  H   H1505     1.0  0.29363  0.88485  0.95798  1.0000
  H   H1506     1.0  0.24848  0.99240  0.98413  1.0000
  C   C839      1.0  0.41277  0.54502  0.77586  1.0000
  H   H1507     1.0  0.02005  0.52206  0.76348  1.0000
  H   H1508     1.0  0.04335  0.70626  0.77414  1.0000
  H   H1509     1.0  0.41043  0.65734  0.81875  1.0000
  N   N49       1.0  0.24078  0.57044  0.96656  1.0000
  C   C840      1.0  0.30380  0.50638  0.98476  1.0000
  N   N50       1.0  0.21877  0.78280  0.99099  1.0000
  H   H1510     1.0  0.45941  0.53398  0.92548  1.0000
  H   H1511     1.0  0.41027  0.62899  0.84095  1.0000
  C   C841      1.0  0.22101  0.61992  0.96655  1.0000
  C   C842      1.0  0.27841  0.59777  0.97518  1.0000
  H   H1512     1.0  0.22662  0.97855  0.95574  1.0000
  H   H1513     1.0  0.23619  0.75285  0.96212  1.0000
  C   C843      1.0  0.22662  0.59220  0.97630  1.0000
  C   C844      1.0  0.18872  0.81655  0.97678  1.0000
  H   H1514     1.0  0.44730  0.57794  0.79133  1.0000
  C   C845      1.0  0.47333  0.60577  0.81441  1.0000
  C   C846      1.0  0.42683  0.65507  0.81121  1.0000
  C   C847      1.0  0.23375  0.50875  0.99967  1.0000
  Fe  Fe95      1.0  0.31346  0.98818  0.90418  1.0000
  H   H1515     1.0  0.40200  0.81555  0.76074  1.0000
  H   H1516     1.0  0.19252  0.55799  0.96023  1.0000
  H   H1517     1.0  0.36799  0.92913  0.94032  1.0000
  H   H1518     1.0  0.00398  0.68736  0.75272  1.0000
  C   C848      1.0  0.46406  0.60289  0.75803  1.0000
  S   S187      1.0  0.98860  0.80054  0.76679  1.0000
  C   C849      1.0  0.24924  0.81458  0.97527  1.0000
  H   H1519     1.0  0.22515  0.58094  0.94215  1.0000
  C   C850      1.0  0.35438  0.91349  0.91680  1.0000
  H   H1520     1.0  0.26288  0.54545  0.98376  1.0000
  H   H1521     1.0  0.24030  0.54886  0.94217  1.0000
  H   H1522     1.0  0.03310  0.91305  0.75723  1.0000
  H   H1523     1.0  0.44738  0.61599  0.83329  1.0000
  H   H1524     1.0  0.36771  0.61905  0.84022  1.0000
  C   C851      1.0  0.18803  0.90234  0.96908  1.0000
  C   C852      1.0  0.27221  0.83017  0.97828  1.0000
  H   H1525     1.0  0.33835  0.90568  0.92327  1.0000
  Fe  Fe96      1.0  0.46008  0.50521  0.82242  1.0000
  H   H1526     1.0  0.36615  0.51020  0.95506  1.0000
  H   H1527     1.0  0.27867  0.83875  0.96597  1.0000
  C   C853      1.0  0.01612  0.49956  0.76610  1.0000
  H   H1528     1.0  0.31915  0.54066  0.99889  1.0000
  H   H1529     1.0  0.20840  0.52503  0.95772  1.0000
  H   H1530     1.0  0.24826  0.52556  0.96857  1.0000
  C   C854      1.0  0.40574  0.59556  0.82135  1.0000
  C   C855      1.0  0.20303  0.78870  0.97592  1.0000
  H   H1531     1.0  0.47817  0.86795  0.81841  1.0000
  H   H1532     1.0  0.27541  0.56509  0.95569  1.0000
  H   H1533     1.0  0.18310  0.89326  0.95652  1.0000
  H   H1534     1.0  0.39742  0.54923  0.86297  1.0000
  H   H1535     1.0  0.18969  0.56197  0.92851  1.0000
  C   C856      1.0  0.47765  0.84277  0.76147  1.0000
  H   H1536     1.0  0.23558  0.59758  0.98848  1.0000
  H   H1537     1.0  0.45110  0.58695  0.76051  1.0000
  S   S188      1.0  0.45530  0.50143  0.79381  1.0000
  H   H1538     1.0  0.45045  0.57944  0.82964  1.0000
  C   C857      1.0  0.22763  0.53676  0.99116  1.0000
  C   C858      1.0  0.37970  0.96887  0.86284  1.0000
  H   H1539     1.0  0.41676  0.54046  0.92600  1.0000
  H   H1540     1.0  0.42803  0.70016  0.80672  1.0000
  C   C859      1.0  0.40008  0.97825  0.85423  1.0000
  C   C860      1.0  0.98191  0.83526  0.75887  1.0000
  H   H1541     1.0  0.47311  0.62518  0.80659  1.0000
  H   H1542     1.0  0.43030  0.54292  0.76973  1.0000
  C   C861      1.0  0.00197  0.61670  0.76384  1.0000
  H   H1543     1.0  0.39920  0.54433  0.76572  1.0000
  H   H1544     1.0  0.42303  0.95404  0.89497  1.0000
  H   H1545     1.0  0.01887  0.61605  0.77008  1.0000
  Fe  Fe97      1.0  0.30668  0.98549  0.94323  1.0000
  H   H1546     1.0  0.38512  0.51762  0.90957  1.0000
  C   C862      1.0  0.22734  0.75268  0.98980  1.0000
  C   C863      1.0  0.02791  0.88550  0.77897  1.0000
  H   H1547     1.0  0.06750  0.68946  0.76315  1.0000
  C   C864      1.0  0.44730  0.98815  0.89270  1.0000
  H   H1548     1.0  0.22359  0.90929  0.99306  1.0000
  H   H1549     1.0  0.25370  0.79311  0.99954  1.0000
  H   H1550     1.0  0.23397  0.82199  0.99994  1.0000
  H   H1551     1.0  0.22164  0.98473  0.99463  1.0000
  H   H1552     1.0  0.44804  0.98558  0.87859  1.0000
  H   H1553     1.0  0.04068  0.67043  0.76654  1.0000
  H   H1554     1.0  0.20056  0.97652  0.96870  1.0000
  C   C865      1.0  0.42370  0.51869  0.92729  1.0000
  Fe  Fe98      1.0  0.98030  0.77079  0.78962  1.0000
  S   S189      1.0  0.47639  0.91442  0.79115  1.0000
  H   H1555     1.0  0.28481  0.91435  0.98323  1.0000
  H   H1556     1.0  0.05926  0.89467  0.76400  1.0000
  C   C866      1.0  0.31015  0.52074  0.99981  1.0000
  C   C867      1.0  0.42425  0.97623  0.89944  1.0000
  S   S190      1.0  0.26093  0.49625  0.93377  1.0000
  C   C868      1.0  0.36617  0.98724  0.87316  1.0000
  C   C869      1.0  0.23292  0.97833  0.98369  1.0000
  H   H1557     1.0  0.39643  0.98176  0.98058  1.0000
  H   H1558     1.0  0.45695  0.49962  0.93496  1.0000
  C   C870      1.0  0.99655  0.59602  0.75136  1.0000
  C   C871      1.0  0.21827  0.98598  0.96771  1.0000
  H   H1559     1.0  0.21205  0.73818  0.98976  1.0000
  H   H1560     1.0  0.62679  0.39359  0.07996  1.0000
  Fe  Fe99      1.0  0.95445  0.23151  0.18484  1.0000
  C   C872      1.0  0.82660  0.34654  0.12755  1.0000
  S   S191      1.0  0.92953  0.22094  0.16225  1.0000
  H   H1561     1.0  0.51216  0.07679  0.15943  1.0000
  H   H1562     1.0  0.62491  0.04638  0.14422  1.0000
  S   S192      1.0  0.94808  0.22776  0.21337  1.0000
  H   H1563     1.0  0.83842  0.33655  0.09414  1.0000
  C   C873      1.0  0.96027  0.12555  0.24691  1.0000
  C   C874      1.0  0.68311  0.49263  0.00643  1.0000
  H   H1564     1.0  0.75120  0.40115  0.14346  1.0000
  C   C875      1.0  0.73282  0.44983  0.04140  1.0000
  H   H1565     1.0  0.57042  0.15047  0.17665  1.0000
  H   H1566     1.0  0.85179  0.32760  0.16659  1.0000
  H   H1567     1.0  0.82885  0.33135  0.06365  1.0000
  H   H1568     1.0  0.57910  0.37268  0.21165  1.0000
  Fe  Fe100     1.0  0.81048  0.24153  0.10075  1.0000
  S   S193      1.0  0.77197  0.25111  0.10483  1.0000
  S   S194      1.0  0.83215  0.25304  0.12482  1.0000
  Fe  Fe101     1.0  0.80064  0.22599  0.06290  1.0000
  S   S195      1.0  0.76203  0.23485  0.06496  1.0000
  S   S196      1.0  0.81645  0.21039  0.03780  1.0000
  Fe  Fe102     1.0  0.77260  0.27369  0.07970  1.0000
  S   S197      1.0  0.76078  0.31852  0.07252  1.0000
  Fe  Fe103     1.0  0.76470  0.21129  0.08988  1.0000
  S   S198      1.0  0.73598  0.18164  0.09954  1.0000
  S   S199      1.0  0.81139  0.26596  0.07608  1.0000
  S   S200      1.0  0.80296  0.20030  0.08720  1.0000
  H   H1569     1.0  0.63180  0.07685  0.15717  1.0000
  H   H1570     1.0  0.75046  0.16182  0.01734  1.0000
  H   H1571     1.0  0.67842  0.06345  0.06205  1.0000
  C   C876      1.0  0.62956  0.39376  0.06591  1.0000
  C   C877      1.0  0.85199  0.33486  0.15311  1.0000
  H   H1572     1.0  0.54244  0.45978  0.11486  1.0000
  Fe  Fe104     1.0  0.68059  0.45447  0.09719  1.0000
  S   S201      1.0  0.69510  0.41244  0.10723  1.0000
  Fe  Fe105     1.0  0.69438  0.01422  0.09225  1.0000
  S   S202      1.0  0.72137  0.04926  0.08730  1.0000
  S   S203      1.0  0.64174  0.45519  0.09174  1.0000
  S   S204      1.0  0.65505  0.01551  0.08959  1.0000
  C   C878      1.0  0.73223  0.14481  0.09594  1.0000
  C   C879      1.0  0.71186  0.13160  0.10214  1.0000
  C   C880      1.0  0.70811  0.10248  0.09962  1.0000
  C   C881      1.0  0.72482  0.08611  0.09094  1.0000
  C   C882      1.0  0.74511  0.09937  0.08463  1.0000
  C   C883      1.0  0.74879  0.12850  0.08706  1.0000
  H   H1573     1.0  0.69889  0.14399  0.10900  1.0000
  H   H1574     1.0  0.69241  0.09267  0.10453  1.0000
  H   H1575     1.0  0.75817  0.08695  0.07788  1.0000
  H   H1576     1.0  0.76449  0.13828  0.08215  1.0000
  C   C884      1.0  0.74261  0.34427  0.08260  1.0000
  C   C885      1.0  0.72771  0.33779  0.09623  1.0000
  C   C886      1.0  0.71323  0.35888  0.10352  1.0000
  C   C887      1.0  0.71329  0.38663  0.09721  1.0000
  C   C888      1.0  0.72845  0.39319  0.08374  1.0000
  C   C889      1.0  0.74296  0.37211  0.07647  1.0000
  H   H1577     1.0  0.72714  0.31647  0.10103  1.0000
  H   H1578     1.0  0.70177  0.35364  0.11406  1.0000
  H   H1579     1.0  0.72918  0.41459  0.07911  1.0000
  H   H1580     1.0  0.75459  0.37742  0.06604  1.0000
  H   H1581     1.0  0.63198  0.44523  0.19690  1.0000
  H   H1582     1.0  0.92643  0.47533  0.20042  1.0000
  H   H1583     1.0  0.55206  0.32042  0.24218  1.0000
  C   C890      1.0  0.55613  0.43172  0.23023  1.0000
  C   C891      1.0  0.56888  0.38315  0.22207  1.0000
  C   C892      1.0  0.50331  0.46851  0.13526  1.0000
  C   C893      1.0  0.80811  0.22670  0.01837  1.0000
  C   C894      1.0  0.79108  0.24801  0.01811  1.0000
  C   C895      1.0  0.49542  0.11399  0.24545  1.0000
  H   H1584     1.0  0.78302  0.25497  0.02993  1.0000
  H   H1585     1.0  0.53692  0.09737  0.17679  1.0000
  C   C896      1.0  0.50625  0.04378  0.14131  1.0000
  H   H1586     1.0  0.70748  0.02394  0.03030  1.0000
  H   H1587     1.0  0.65816  0.41486  0.00938  1.0000
  H   H1588     1.0  0.92293  0.21327  0.24480  1.0000
  C   C897      1.0  0.62154  0.06929  0.14604  1.0000
  H   H1589     1.0  0.73391  0.45073  0.05556  1.0000
  H   H1590     1.0  0.49175  0.32567  0.23742  1.0000
  H   H1591     1.0  0.59721  0.45525  0.13280  1.0000
  C   C898      1.0  0.78664  0.32924  0.12064  1.0000
  C   C899      1.0  0.56937  0.45984  0.15163  1.0000
  H   H1592     1.0  0.67967  0.12265  0.04403  1.0000
  C   C900      1.0  0.68335  0.05772  0.00953  1.0000
  H   H1593     1.0  0.51021  0.36546  0.17503  1.0000
  H   H1594     1.0  0.55772  0.10740  0.16129  1.0000
  C   C901      1.0  0.90272  0.23117  0.15183  1.0000
  C   C902      1.0  0.88630  0.24962  0.15927  1.0000
  C   C903      1.0  0.86500  0.25601  0.15079  1.0000
  C   C904      1.0  0.85982  0.24461  0.13457  1.0000
  C   C905      1.0  0.87635  0.22645  0.12702  1.0000
  C   C906      1.0  0.89743  0.21959  0.13567  1.0000
  H   H1595     1.0  0.88988  0.25865  0.17170  1.0000
  H   H1596     1.0  0.85237  0.26982  0.15692  1.0000
  H   H1597     1.0  0.87289  0.21757  0.11455  1.0000
  H   H1598     1.0  0.90990  0.20535  0.12970  1.0000
  C   C907      1.0  0.68665  0.38661  0.01782  1.0000
  H   H1599     1.0  0.59874  0.44986  0.21647  1.0000
  H   H1600     1.0  0.72476  0.07170  0.05347  1.0000
  H   H1601     1.0  0.67607  0.36808  0.01393  1.0000
  H   H1602     1.0  0.76334  0.19626  0.01783  1.0000
  C   C908      1.0  0.56986  0.10824  0.18760  1.0000
  H   H1603     1.0  0.58190  0.05834  0.20258  1.0000
  C   C909      1.0  0.55559  0.09455  0.17305  1.0000
  H   H1604     1.0  0.62774  0.08043  0.13444  1.0000
  H   H1605     1.0  0.56579  0.44258  0.19705  1.0000
  H   H1606     1.0  0.52036  0.41607  0.14580  1.0000
  Fe  Fe106     1.0  0.50225  0.48107  0.19148  1.0000
  H   H1607     1.0  0.59797  0.06405  0.17526  1.0000
  H   H1608     1.0  0.77117  0.27667  0.00254  1.0000
  H   H1609     1.0  0.51201  0.02182  0.13852  1.0000
  H   H1610     1.0  0.49697  0.39503  0.18586  1.0000
  C   C910      1.0  0.96905  0.33200  0.24586  1.0000
  Fe  Fe107     1.0  0.48268  0.01818  0.21754  1.0000
  C   C911      1.0  0.61429  0.43870  0.19256  1.0000
  H   H1611     1.0  0.54600  0.14401  0.19098  1.0000
  H   H1612     1.0  0.65007  0.37465  0.03661  1.0000
  H   H1613     1.0  0.73492  0.40484  0.04031  1.0000
  C   C912      1.0  0.67722  0.41166  0.00709  1.0000
  H   H1614     1.0  0.56676  0.46380  0.08901  1.0000
  H   H1615     1.0  0.52217  0.46646  0.13838  1.0000
  H   H1616     1.0  0.52375  0.41551  0.24206  1.0000
  H   H1617     1.0  0.50983  0.11746  0.23670  1.0000
  H   H1618     1.0  0.75074  0.45260  0.03612  1.0000
  H   H1619     1.0  0.58899  0.10538  0.18573  1.0000
  C   C913      1.0  0.63132  0.06174  0.05732  1.0000
  H   H1620     1.0  0.64303  0.07639  0.03297  1.0000
  H   H1621     1.0  0.58197  0.38751  0.23227  1.0000
  H   H1622     1.0  0.70765  0.02585  0.05310  1.0000
  S   S205      1.0  0.50556  0.49042  0.21969  1.0000
  H   H1623     1.0  0.61636  0.42035  0.18383  1.0000
  H   H1624     1.0  0.63141  0.03900  0.05398  1.0000
  H   H1625     1.0  0.72160  0.46748  0.03682  1.0000
  H   H1626     1.0  0.65205  0.41165  0.03748  1.0000
  H   H1627     1.0  0.60782  0.41341  0.21483  1.0000
  C   C914      1.0  0.72296  0.42156  0.03555  1.0000
  C   C915      1.0  0.55166  0.36041  0.22886  1.0000
  C   C916      1.0  0.55543  0.47852  0.16143  1.0000
  H   H1628     1.0  0.50082  0.43079  0.11877  1.0000
  C   C917      1.0  0.50095  0.41782  0.14496  1.0000
  C   C918      1.0  0.76399  0.17537  0.01142  1.0000
  H   H1629     1.0  0.67145  0.04282  0.01602  1.0000
  C   C919      1.0  0.56496  0.13990  0.18865  1.0000
  H   H1630     1.0  0.50381  0.36316  0.19755  1.0000
  C   C920      1.0  0.54124  0.42302  0.24587  1.0000
  H   H1631     1.0  0.61339  0.07021  0.05506  1.0000
  H   H1632     1.0  0.58896  0.03604  0.16202  1.0000
  H   H1633     1.0  0.78164  0.16601  0.01364  1.0000
  H   H1634     1.0  0.66860  0.33606  0.04691  1.0000
  C   C921      1.0  0.53434  0.40662  0.20788  1.0000
  H   H1635     1.0  0.48705  0.04360  0.14374  1.0000
  C   C922      1.0  0.48685  0.10523  0.19174  1.0000
  C   C923      1.0  0.53410  0.38894  0.19111  1.0000
  C   C924      1.0  0.49387  0.43885  0.13110  1.0000
  C   C925      1.0  0.50972  0.37747  0.18722  1.0000
  H   H1636     1.0  0.52633  0.42749  0.20483  1.0000
  H   H1637     1.0  0.52185  0.39708  0.21699  1.0000
  H   H1638     1.0  0.58680  0.02511  0.19225  1.0000
  H   H1639     1.0  0.48666  0.37521  0.22764  1.0000
  H   H1640     1.0  0.54165  0.35095  0.21818  1.0000
  C   C926      1.0  0.58679  0.46989  0.14031  1.0000
  H   H1641     1.0  0.53940  0.40236  0.18017  1.0000
  H   H1642     1.0  0.54654  0.37093  0.19170  1.0000
  H   H1643     1.0  0.76990  0.43006  0.13706  1.0000
  C   C927      1.0  0.57313  0.03915  0.19790  1.0000
  H   H1644     1.0  0.75910  0.37703  0.11572  1.0000
  C   C928      1.0  0.82047  0.34830  0.07140  1.0000
  H   H1645     1.0  0.75126  0.02693  0.02998  1.0000
  H   H1646     1.0  0.57363  0.43657  0.23564  1.0000
  H   H1647     1.0  0.49610  0.08526  0.19491  1.0000
  N   N51       1.0  0.82435  0.16535  0.14319  1.0000
  C   C929      1.0  0.80584  0.18700  0.14779  1.0000
  C   C930      1.0  0.84619  0.17116  0.15348  1.0000
  C   C931      1.0  0.83049  0.16946  0.12455  1.0000
  C   C932      1.0  0.81621  0.13536  0.14564  1.0000
  C   C933      1.0  0.79842  0.12992  0.16032  1.0000
  C   C934      1.0  0.78399  0.18766  0.13599  1.0000
  C   C935      1.0  0.85178  0.15228  0.11767  1.0000
  C   C936      1.0  0.84409  0.16907  0.17314  1.0000
  C   C937      1.0  0.86649  0.17947  0.18178  1.0000
  C   C938      1.0  0.79466  0.09838  0.16294  1.0000
  C   C939      1.0  0.76383  0.20446  0.14404  1.0000
  C   C940      1.0  0.85329  0.15379  0.09818  1.0000
  H   H1648     1.0  0.81349  0.20856  0.14750  1.0000
  H   H1649     1.0  0.79965  0.18438  0.16112  1.0000
  H   H1650     1.0  0.86051  0.15619  0.15002  1.0000
  H   H1651     1.0  0.85285  0.19253  0.15040  1.0000
  H   H1652     1.0  0.83403  0.19207  0.12191  1.0000
  H   H1653     1.0  0.81530  0.16376  0.11636  1.0000
  H   H1654     1.0  0.80755  0.12733  0.13383  1.0000
  H   H1655     1.0  0.83160  0.12115  0.14754  1.0000
  H   H1656     1.0  0.78108  0.13935  0.15723  1.0000
  H   H1657     1.0  0.80416  0.13904  0.17261  1.0000
  H   H1658     1.0  0.78849  0.19808  0.12377  1.0000
  H   H1659     1.0  0.77769  0.16615  0.13296  1.0000
  H   H1660     1.0  0.85056  0.12979  0.12136  1.0000
  H   H1661     1.0  0.86842  0.16102  0.12271  1.0000
  H   H1662     1.0  0.82938  0.18194  0.17824  1.0000
  H   H1663     1.0  0.84178  0.14675  0.17692  1.0000
  H   H1664     1.0  0.86916  0.20220  0.17913  1.0000
  H   H1665     1.0  0.86509  0.17669  0.19583  1.0000
  H   H1666     1.0  0.88207  0.16747  0.17713  1.0000
  H   H1667     1.0  0.78149  0.09508  0.17321  1.0000
  H   H1668     1.0  0.78802  0.08846  0.15102  1.0000
  H   H1669     1.0  0.81131  0.08788  0.16675  1.0000
  H   H1670     1.0  0.75779  0.19426  0.15601  1.0000
  H   H1671     1.0  0.76943  0.22636  0.14684  1.0000
  H   H1672     1.0  0.74885  0.20533  0.13500  1.0000
  H   H1673     1.0  0.85497  0.17602  0.09396  1.0000
  H   H1674     1.0  0.86895  0.14187  0.09364  1.0000
  H   H1675     1.0  0.83746  0.14444  0.09224  1.0000
  C   C941      1.0  0.75878  0.29841  0.13782  1.0000
  H   H1676     1.0  0.69975  0.36936  0.05922  1.0000
  H   H1677     1.0  0.59289  0.09798  0.15019  1.0000
  H   H1678     1.0  0.70212  0.09587  0.01365  1.0000
  H   H1679     1.0  0.58637  0.06781  0.13690  1.0000
  C   C942      1.0  0.71536  0.15689  0.04961  1.0000
  C   C943      1.0  0.74151  0.02100  0.04172  1.0000
  S   S206      1.0  0.63537  0.46900  0.04245  1.0000
  H   H1680     1.0  0.62022  0.37553  0.06026  1.0000
  H   H1681     1.0  0.55121  0.03386  0.14978  1.0000
  N   N52       1.0  0.68572  0.39043  0.03695  1.0000
  S   S207      1.0  0.69038  0.47633  0.07282  1.0000
  H   H1682     1.0  0.73198  0.16835  0.04727  1.0000
  C   C944      1.0  0.79342  0.38001  0.12873  1.0000
  C   C945      1.0  0.59534  0.07492  0.14870  1.0000
  C   C946      1.0  0.77068  0.32704  0.13674  1.0000
  C   C947      1.0  0.59913  0.43106  0.20801  1.0000
  C   C948      1.0  0.82684  0.33840  0.14668  1.0000
  N   N53       1.0  0.56068  0.06394  0.16934  1.0000
  C   C949      1.0  0.80730  0.36192  0.10139  1.0000
  H   H1683     1.0  0.69539  0.10743  0.06135  1.0000
  H   H1684     1.0  0.78911  0.37575  0.14228  1.0000
  H   H1685     1.0  0.80246  0.35182  0.06645  1.0000
  H   H1686     1.0  0.62199  0.41363  0.06076  1.0000
  H   H1687     1.0  0.75658  0.34325  0.13632  1.0000
  H   H1688     1.0  0.78048  0.33016  0.14875  1.0000
  C   C950      1.0  0.54752  0.46756  0.08823  1.0000
  H   H1689     1.0  0.60624  0.45648  0.18538  1.0000
  H   H1690     1.0  0.81821  0.35455  0.15483  1.0000
  H   H1691     1.0  0.81803  0.31781  0.14842  1.0000
  H   H1692     1.0  0.86149  0.35518  0.15251  1.0000
  C   C951      1.0  0.68703  0.33654  0.04236  1.0000
  C   C952      1.0  0.58606  0.05889  0.16455  1.0000
  H   H1693     1.0  0.74724  0.29777  0.14926  1.0000
  C   C953      1.0  0.69522  0.10941  0.04713  1.0000
  H   H1694     1.0  0.68688  0.43601  0.03890  1.0000
  H   H1695     1.0  0.76434  0.35928  0.01354  1.0000
  H   H1696     1.0  0.51402  0.04174  0.16796  1.0000
  H   H1697     1.0  0.68742  0.33069  0.02863  1.0000
  C   C954      1.0  0.57395  0.42312  0.20235  1.0000
  H   H1698     1.0  0.54898  0.06950  0.14314  1.0000
  H   H1699     1.0  0.61985  0.46376  0.00766  1.0000
  H   H1700     1.0  0.76555  0.32170  0.01599  1.0000
  H   H1701     1.0  0.72929  0.07255  0.03102  1.0000
  H   H1702     1.0  0.67214  0.09888  0.01884  1.0000
  H   H1703     1.0  0.54904  0.45204  0.22522  1.0000
  N   N54       1.0  0.55819  0.41051  0.21586  1.0000
  C   C955      1.0  0.63749  0.47199  0.00736  1.0000
  H   H1704     1.0  0.83073  0.36792  0.06982  1.0000
  C   C956      1.0  0.69817  0.36589  0.04522  1.0000
  C   C957      1.0  0.66035  0.39204  0.04243  1.0000
  C   C958      1.0  0.69765  0.41725  0.04242  1.0000
  H   H1705     1.0  0.74317  0.42293  0.12561  1.0000
  H   H1706     1.0  0.80703  0.39673  0.12928  1.0000
  C   C959      1.0  0.65581  0.39197  0.06201  1.0000
  N   N55       1.0  0.69332  0.08059  0.03889  1.0000
  C   C960      1.0  0.70055  0.31376  0.05205  1.0000
  C   C961      1.0  0.75822  0.41307  0.13241  1.0000
  H   H1707     1.0  0.74779  0.29474  0.12634  1.0000
  C   C962      1.0  0.68765  0.08471  0.02023  1.0000
  H   H1708     1.0  0.81067  0.31917  0.09118  1.0000
  H   H1709     1.0  0.71654  0.36421  0.04051  1.0000
  H   H1710     1.0  0.72352  0.42139  0.02140  1.0000
  H   H1711     1.0  0.70486  0.38162  0.01356  1.0000
  H   H1712     1.0  0.83918  0.36414  0.12561  1.0000
  S   S208      1.0  0.53255  0.46446  0.17454  1.0000
  H   H1713     1.0  0.69885  0.41825  0.05658  1.0000
  H   H1714     1.0  0.69255  0.29287  0.04966  1.0000
  C   C963      1.0  0.81989  0.33950  0.09018  1.0000
  H   H1715     1.0  0.56652  0.43741  0.15263  1.0000
  H   H1716     1.0  0.70033  0.04700  0.00683  1.0000
  H   H1717     1.0  0.66429  0.41025  0.06825  1.0000
  H   H1718     1.0  0.66256  0.37245  0.06806  1.0000
  H   H1719     1.0  0.57503  0.14915  0.19941  1.0000
  S   S209      1.0  0.49212  0.06192  0.22923  1.0000
  H   H1720     1.0  0.77675  0.40597  0.10891  1.0000
  H   H1721     1.0  0.70000  0.31798  0.06602  1.0000
  C   C964      1.0  0.67200  0.48808  0.02226  1.0000
  H   H1722     1.0  0.49643  0.11564  0.18118  1.0000
  C   C965      1.0  0.67408  0.06501  0.04817  1.0000
  H   H1723     1.0  0.75103  0.02878  0.05316  1.0000
  H   H1724     1.0  0.63544  0.06431  0.07109  1.0000
  H   H1725     1.0  0.56454  0.09918  0.20006  1.0000
  N   N56       1.0  0.80311  0.35410  0.11988  1.0000
  H   H1726     1.0  0.83433  0.32781  0.12099  1.0000
  H   H1727     1.0  0.64826  0.09998  0.05065  1.0000
  C   C966      1.0  0.64923  0.47736  0.02281  1.0000
  H   H1728     1.0  0.86162  0.31890  0.14532  1.0000
  H   H1729     1.0  0.50978  0.05713  0.12997  1.0000
  C   C967      1.0  0.71668  0.06568  0.04105  1.0000
  H   H1730     1.0  0.57607  0.40837  0.19138  1.0000
  H   H1731     1.0  0.81768  0.38169  0.10055  1.0000
  H   H1732     1.0  0.71232  0.15628  0.06362  1.0000
  C   C968      1.0  0.71713  0.12706  0.04225  1.0000
  H   H1733     1.0  0.71915  0.31289  0.04778  1.0000
  Fe  Fe108     1.0  0.65174  0.47968  0.06820  1.0000
  C   C969      1.0  0.75662  0.33913  0.00909  1.0000
  C   C970      1.0  0.64901  0.07771  0.04643  1.0000
  S   S210      1.0  0.96108  0.29815  0.23716  1.0000
  C   C971      1.0  0.51894  0.05520  0.15703  1.0000
  C   C972      1.0  0.55388  0.04571  0.18442  1.0000
  H   H1734     1.0  0.79673  0.30912  0.11930  1.0000
  H   H1735     1.0  0.57684  0.01981  0.22285  1.0000
  H   H1736     1.0  0.71914  0.12892  0.02823  1.0000
  C   C973      1.0  0.71662  0.03307  0.04136  1.0000
  H   H1737     1.0  0.53838  0.05486  0.19122  1.0000
  C   C974      1.0  0.77141  0.39338  0.12021  1.0000
  H   H1738     1.0  0.73337  0.11735  0.04745  1.0000
  H   H1739     1.0  0.79031  0.36635  0.09489  1.0000
  H   H1740     1.0  0.77212  0.28135  0.13896  1.0000
  C   C975      1.0  0.48414  0.37009  0.24094  1.0000
  C   C976      1.0  0.54593  0.05532  0.15418  1.0000
  H   H1741     1.0  0.70077  0.16874  0.04352  1.0000
  C   C977      1.0  0.56480  0.33651  0.23779  1.0000
  H   H1742     1.0  0.77454  0.32924  0.10952  1.0000
  H   H1743     1.0  0.67269  0.04283  0.04378  1.0000
  H   H1744     1.0  0.73768  0.33873  0.01246  1.0000
  H   H1745     1.0  0.57748  0.32625  0.22891  1.0000
  Fe  Fe109     1.0  0.97187  0.26590  0.21601  1.0000
  H   H1746     1.0  0.48707  0.11939  0.20308  1.0000
  H   H1747     1.0  0.53867  0.36901  0.23803  1.0000
  C   C978      1.0  0.56286  0.02383  0.21330  1.0000
  C   C979      1.0  0.51139  0.48295  0.10511  1.0000
  H   H1748     1.0  0.95566  0.49005  0.22315  1.0000
  H   H1749     1.0  0.54805  0.02462  0.17995  1.0000
  H   H1750     1.0  0.68115  0.49252  0.03405  1.0000
  H   H1751     1.0  0.54879  0.03665  0.21947  1.0000
  H   H1752     1.0  0.49390  0.42461  0.15758  1.0000
  H   H1753     1.0  0.49377  0.39673  0.14188  1.0000
  H   H1754     1.0  0.68634  0.43152  0.01021  1.0000
  H   H1755     1.0  0.94642  0.13851  0.24164  1.0000
  H   H1756     1.0  0.54431  0.48420  0.07854  1.0000
  H   H1757     1.0  0.49468  0.47484  0.14746  1.0000
  H   H1758     1.0  0.74073  0.99766  0.04242  1.0000
  C   C980      1.0  0.53825  0.47686  0.10571  1.0000
  H   H1759     1.0  0.83159  0.20143  0.00295  1.0000
  C   C981      1.0  0.48334  0.08814  0.24480  1.0000
  H   H1760     1.0  0.57429  0.34458  0.24916  1.0000
  H   H1761     1.0  0.50329  0.46398  0.09941  1.0000
  C   C982      1.0  0.78445  0.26039  0.00255  1.0000
  S   S211      1.0  0.97667  0.27089  0.18733  1.0000
  C   C983      1.0  0.81835  0.21786  0.00285  1.0000
  H   H1762     1.0  0.53903  0.44771  0.08406  1.0000
  C   C984      1.0  0.48694  0.34187  0.24655  1.0000
  N   N57       1.0  0.49978  0.49084  0.12186  1.0000
  H   H1763     1.0  0.55557  0.00323  0.20926  1.0000
  C   C985      1.0  0.86846  0.41713  0.41270  1.0000
  H   H1764     1.0  0.71348  0.15928  0.47885  1.0000
  H   H1765     1.0  0.73031  0.37756  0.45408  1.0000
  H   H1766     1.0  0.88394  0.42867  0.40775  1.0000
  H   H1767     1.0  0.71952  0.12333  0.45561  1.0000
  C   C986      1.0  0.65924  0.35753  0.45469  1.0000
  Fe  Fe110     1.0  0.50554  0.23124  0.32218  1.0000
  H   H1768     1.0  0.81793  0.12620  0.42201  1.0000
  S   S212      1.0  0.53372  0.21762  0.34199  1.0000
  H   H1769     1.0  0.95666  0.49256  0.37325  1.0000
  C   C987      1.0  0.86113  0.00175  0.31488  1.0000
  C   C988      1.0  0.71890  0.16528  0.46575  1.0000
  H   H1770     1.0  0.73076  0.08582  0.47971  1.0000
  S   S213      1.0  0.50669  0.22623  0.29329  1.0000
  H   H1771     1.0  0.48615  0.31690  0.34764  1.0000
  H   H1772     1.0  0.78297  0.07814  0.42782  1.0000
  S   S214      1.0  0.97413  0.44875  0.31964  1.0000
  C   C989      1.0  0.90726  0.00394  0.35925  1.0000
  H   H1773     1.0  0.91792  0.38804  0.34821  1.0000
  H   H1774     1.0  0.50318  0.22532  0.37146  1.0000
  Fe  Fe111     1.0  0.77288  0.45429  0.40512  1.0000
  S   S215      1.0  0.75616  0.41608  0.39230  1.0000
  Fe  Fe112     1.0  0.76611  0.01388  0.41561  1.0000
  S   S216      1.0  0.73564  0.04535  0.41930  1.0000
  S   S217      1.0  0.80513  0.45299  0.42136  1.0000
  S   S218      1.0  0.80253  0.01963  0.42620  1.0000
  Fe  Fe113     1.0  0.66693  0.22483  0.44296  1.0000
  S   S219      1.0  0.70494  0.22843  0.43612  1.0000
  S   S220      1.0  0.65691  0.20564  0.46868  1.0000
  Fe  Fe114     1.0  0.65044  0.24383  0.40706  1.0000
  S   S221      1.0  0.68809  0.24870  0.39816  1.0000
  S   S222      1.0  0.62055  0.25792  0.38878  1.0000
  Fe  Fe115     1.0  0.69509  0.20732  0.41154  1.0000
  S   S223      1.0  0.71935  0.17449  0.39912  1.0000
  Fe  Fe116     1.0  0.69499  0.26953  0.42353  1.0000
  S   S224      1.0  0.71897  0.30643  0.43079  1.0000
  S   S225      1.0  0.65732  0.20122  0.41883  1.0000
  S   S226      1.0  0.65713  0.26716  0.43197  1.0000
  C   C990      1.0  0.66533  0.22080  0.48847  1.0000
  N   N58       1.0  0.84000  0.40409  0.36797  1.0000
  C   C991      1.0  0.67731  0.24635  0.48917  1.0000
  H   H1775     1.0  0.73651  0.14876  0.44389  1.0000
  H   H1776     1.0  0.68180  0.25708  0.47744  1.0000
  H   H1777     1.0  0.76262  0.12113  0.43342  1.0000
  H   H1778     1.0  0.82478  0.10812  0.49553  1.0000
  H   H1779     1.0  0.48623  0.16571  0.37872  1.0000
  H   H1780     1.0  0.71820  0.03613  0.48018  1.0000
  H   H1781     1.0  0.77167  0.09670  0.49589  1.0000
  C   C992      1.0  0.74676  0.38485  0.40271  1.0000
  C   C993      1.0  0.75653  0.37601  0.41818  1.0000
  C   C994      1.0  0.74837  0.35131  0.42613  1.0000
  C   C995      1.0  0.73012  0.33539  0.41897  1.0000
  C   C996      1.0  0.72073  0.34384  0.40329  1.0000
  C   C997      1.0  0.72920  0.36828  0.39514  1.0000
  H   H1782     1.0  0.77043  0.38812  0.42396  1.0000
  H   H1783     1.0  0.75611  0.34447  0.43802  1.0000
  H   H1784     1.0  0.70676  0.33177  0.39756  1.0000
  H   H1785     1.0  0.72173  0.37469  0.38306  1.0000
  C   C998      1.0  0.73101  0.08088  0.41282  1.0000
  C   C999      1.0  0.74606  0.09465  0.40151  1.0000
  C   C1000     1.0  0.74212  0.12322  0.39739  1.0000
  C   C1001     1.0  0.72332  0.13848  0.40468  1.0000
  C   C1002     1.0  0.70812  0.12464  0.41586  1.0000
  C   C1003     1.0  0.71183  0.09596  0.41975  1.0000
  H   H1786     1.0  0.76078  0.08330  0.39599  1.0000
  H   H1787     1.0  0.75389  0.13366  0.38863  1.0000
  H   H1788     1.0  0.69354  0.13603  0.42153  1.0000
  H   H1789     1.0  0.70000  0.08550  0.42845  1.0000
  C   C1004     1.0  0.59646  0.24607  0.37588  1.0000
  C   C1005     1.0  0.58526  0.26531  0.36481  1.0000
  C   C1006     1.0  0.56622  0.25712  0.35434  1.0000
  C   C1007     1.0  0.55798  0.22940  0.35472  1.0000
  C   C1008     1.0  0.56912  0.21018  0.36584  1.0000
  C   C1009     1.0  0.58813  0.21840  0.37633  1.0000
  H   H1790     1.0  0.59143  0.28679  0.36429  1.0000
  H   H1791     1.0  0.55797  0.27227  0.34595  1.0000
  H   H1792     1.0  0.56290  0.18873  0.36640  1.0000
  H   H1793     1.0  0.59616  0.20341  0.38490  1.0000
  H   H1794     1.0  0.93644  0.09702  0.25954  1.0000
  C   C1010     1.0  0.80646  0.46443  0.34416  1.0000
  H   H1795     1.0  0.69168  0.45733  0.43061  1.0000
  H   H1796     1.0  0.81607  0.09334  0.41049  1.0000
  H   H1797     1.0  0.81708  0.36051  0.34931  1.0000
  H   H1798     1.0  0.75817  0.41892  0.44937  1.0000
  H   H1799     1.0  0.94494  0.07641  0.31247  1.0000
  C   C1011     1.0  0.79020  0.48490  0.48568  1.0000
  H   H1800     1.0  0.97076  0.27344  0.29677  1.0000
  H   H1801     1.0  0.77353  0.37268  0.45976  1.0000
  H   H1802     1.0  0.91783  0.08454  0.32341  1.0000
  H   H1803     1.0  0.72438  0.39003  0.47488  1.0000
  H   H1804     1.0  0.52703  0.44058  0.26934  1.0000
  C   C1012     1.0  0.88972  0.01368  0.37074  1.0000
  C   C1013     1.0  0.70787  0.44367  0.46305  1.0000
  C   C1014     1.0  0.68567  0.40007  0.45862  1.0000
  H   H1805     1.0  0.95840  0.23891  0.25480  1.0000
  H   H1806     1.0  0.89117  0.03451  0.37626  1.0000
  H   H1807     1.0  0.90954  0.21958  0.26544  1.0000
  H   H1808     1.0  0.69636  0.35700  0.45070  1.0000
  H   H1809     1.0  0.86451  0.01985  0.34052  1.0000
  C   C1015     1.0  0.95527  0.34392  0.25909  1.0000
  H   H1810     1.0  0.74792  0.12730  0.48011  1.0000
  H   H1811     1.0  0.83859  0.06480  0.27019  1.0000
  H   H1812     1.0  0.69653  0.41336  0.40194  1.0000
  C   C1016     1.0  0.96114  0.37003  0.26681  1.0000
  H   H1813     1.0  0.83825  0.05330  0.30114  1.0000
  C   C1017     1.0  0.48815  0.22440  0.38054  1.0000
  Fe  Fe117     1.0  0.95085  0.48712  0.31670  1.0000
  H   H1814     1.0  0.91067  0.06094  0.29562  1.0000
  H   H1815     1.0  0.72842  0.42972  0.43309  1.0000
  C   C1018     1.0  0.95465  0.10187  0.25710  1.0000
  H   H1816     1.0  0.67037  0.41418  0.45620  1.0000
  H   H1817     1.0  0.78574  0.01792  0.47506  1.0000
  H   H1818     1.0  0.68953  0.43524  0.48727  1.0000
  H   H1819     1.0  0.48544  0.31314  0.37908  1.0000
  C   C1019     1.0  0.89691  0.49079  0.34619  1.0000
  C   C1020     1.0  0.89562  0.03326  0.31547  1.0000
  H   H1820     1.0  0.68207  0.44711  0.40068  1.0000
  H   H1821     1.0  0.95953  0.44112  0.37735  1.0000
  H   H1822     1.0  0.54324  0.27016  0.41174  1.0000
  S   S227      1.0  0.96374  0.05437  0.27670  1.0000
  C   C1021     1.0  0.95781  0.22939  0.26783  1.0000
  C   C1022     1.0  0.87027  0.99689  0.37507  1.0000
  C   C1023     1.0  0.85884  0.38507  0.36060  1.0000
  H   H1823     1.0  0.70284  0.17074  0.45840  1.0000
  H   H1824     1.0  0.73284  0.34409  0.48910  1.0000
  H   H1825     1.0  0.74028  0.08575  0.44741  1.0000
  H   H1826     1.0  0.80491  0.11467  0.46681  1.0000
  H   H1827     1.0  0.73009  0.18432  0.46640  1.0000
  H   H1828     1.0  0.83829  0.09586  0.28350  1.0000
  H   H1829     1.0  0.80743  0.08696  0.44121  1.0000
  C   C1024     1.0  0.49878  0.26663  0.39667  1.0000
  H   H1830     1.0  0.78548  0.13018  0.49288  1.0000
  Fe  Fe118     1.0  0.48335  0.26555  0.29235  1.0000
  H   H1831     1.0  0.69296  0.48720  0.48483  1.0000
  H   H1832     1.0  0.90782  0.00225  0.28709  1.0000
  H   H1833     1.0  0.87431  0.40304  0.42318  1.0000
  H   H1834     1.0  0.84584  0.04022  0.32708  1.0000
  H   H1835     1.0  0.69237  0.45587  0.45859  1.0000
  S   S228      1.0  0.48431  0.27167  0.32112  1.0000
  H   H1836     1.0  0.71396  0.39767  0.42948  1.0000
  H   H1837     1.0  0.82959  0.41559  0.34227  1.0000
  H   H1838     1.0  0.71428  0.31345  0.49001  1.0000
  C   C1025     1.0  0.86918  0.03291  0.28992  1.0000
  H   H1839     1.0  0.86516  0.08496  0.27317  1.0000
  H   H1840     1.0  0.85340  0.37707  0.34784  1.0000
  H   H1841     1.0  0.76735  0.38337  0.48157  1.0000
  H   H1842     1.0  0.89108  0.40496  0.37056  1.0000
  H   H1843     1.0  0.76493  0.06450  0.45184  1.0000
  C   C1026     1.0  0.81356  0.44637  0.35946  1.0000
  C   C1027     1.0  0.69215  0.43501  0.42638  1.0000
  H   H1844     1.0  0.53074  0.25126  0.38361  1.0000
  H   H1845     1.0  0.78875  0.40203  0.46907  1.0000
  H   H1846     1.0  0.96501  0.22508  0.29991  1.0000
  C   C1028     1.0  0.71181  0.41849  0.43582  1.0000
  H   H1847     1.0  0.84912  0.43948  0.35194  1.0000
  H   H1848     1.0  0.66032  0.35214  0.46847  1.0000
  C   C1029     1.0  0.94467  0.20105  0.26650  1.0000
  C   C1030     1.0  0.47974  0.17681  0.36717  1.0000
  Fe  Fe119     1.0  0.81517  0.99447  0.40309  1.0000
  C   C1031     1.0  0.77166  0.39095  0.46853  1.0000
  H   H1849     1.0  0.72338  0.45617  0.45894  1.0000
  C   C1032     1.0  0.90702  0.48045  0.36121  1.0000
  H   H1850     1.0  0.68455  0.39494  0.47246  1.0000
  S   S229      1.0  0.91261  0.49246  0.32634  1.0000
  C   C1033     1.0  0.70643  0.44415  0.48286  1.0000
  H   H1851     1.0  0.73685  0.02812  0.46213  1.0000
  C   C1034     1.0  0.91653  0.04789  0.30654  1.0000
  H   H1852     1.0  0.93991  0.33281  0.26347  1.0000
  S   S230      1.0  0.84781  0.01134  0.38874  1.0000
  C   C1035     1.0  0.73194  0.14110  0.45683  1.0000
  C   C1036     1.0  0.75277  0.41129  0.46215  1.0000
  S   S231      1.0  0.75364  0.48255  0.42324  1.0000
  H   H1853     1.0  0.64371  0.37127  0.45246  1.0000
  N   N59       1.0  0.87986  0.01585  0.30419  1.0000
  N   N60       1.0  0.65948  0.15603  0.36692  1.0000
  C   C1037     1.0  0.65782  0.18764  0.36890  1.0000
  C   C1038     1.0  0.65596  0.14252  0.38418  1.0000
  C   C1039     1.0  0.68420  0.14913  0.36107  1.0000
  C   C1040     1.0  0.64233  0.14450  0.35396  1.0000
  C   C1041     1.0  0.61867  0.16069  0.35187  1.0000
  C   C1042     1.0  0.66542  0.20471  0.35292  1.0000
  C   C1043     1.0  0.69136  0.11753  0.36111  1.0000
  C   C1044     1.0  0.63167  0.14663  0.39271  1.0000
  C   C1045     1.0  0.63105  0.13282  0.41035  1.0000
  C   C1046     1.0  0.60146  0.14421  0.34081  1.0000
  C   C1047     1.0  0.65550  0.23466  0.35318  1.0000
  C   C1048     1.0  0.71476  0.11280  0.35194  1.0000
  H   H1854     1.0  0.66917  0.19476  0.37965  1.0000
  H   H1855     1.0  0.63992  0.19450  0.37273  1.0000
  H   H1856     1.0  0.65822  0.11930  0.38331  1.0000
  H   H1857     1.0  0.66964  0.15007  0.39325  1.0000
  H   H1858     1.0  0.69720  0.16043  0.36909  1.0000
  H   H1859     1.0  0.68717  0.15694  0.34785  1.0000
  H   H1860     1.0  0.65031  0.14390  0.34095  1.0000
  H   H1861     1.0  0.63834  0.12209  0.35688  1.0000
  H   H1862     1.0  0.62150  0.18129  0.34556  1.0000
  H   H1863     1.0  0.60999  0.16507  0.36423  1.0000
  H   H1864     1.0  0.68487  0.20618  0.35256  1.0000
  H   H1865     1.0  0.65970  0.19443  0.34091  1.0000
  H   H1866     1.0  0.67784  0.10445  0.35478  1.0000
  H   H1867     1.0  0.69383  0.11003  0.37444  1.0000
  H   H1868     1.0  0.62721  0.16922  0.39434  1.0000
  H   H1869     1.0  0.61793  0.13620  0.38500  1.0000
  H   H1870     1.0  0.61379  0.13702  0.41651  1.0000
  H   H1871     1.0  0.63353  0.10966  0.40919  1.0000
  H   H1872     1.0  0.64498  0.14136  0.41874  1.0000
  H   H1873     1.0  0.59698  0.12388  0.34696  1.0000
  H   H1874     1.0  0.58503  0.15669  0.33925  1.0000
  H   H1875     1.0  0.60904  0.14013  0.32794  1.0000
  H   H1876     1.0  0.66198  0.24643  0.34190  1.0000
  H   H1877     1.0  0.63604  0.23434  0.35271  1.0000
  H   H1878     1.0  0.66114  0.24596  0.36489  1.0000
  H   H1879     1.0  0.71983  0.09021  0.35274  1.0000
  H   H1880     1.0  0.71338  0.11870  0.33826  1.0000
  H   H1881     1.0  0.72875  0.12546  0.35809  1.0000
  C   C1049     1.0  0.69634  0.43517  0.40710  1.0000
  H   H1882     1.0  0.78683  0.13759  0.44354  1.0000
  C   C1050     1.0  0.81904  0.38646  0.37271  1.0000
  H   H1883     1.0  0.79270  0.11891  0.40876  1.0000
  C   C1051     1.0  0.80535  0.37342  0.35755  1.0000
  C   C1052     1.0  0.78570  0.35436  0.36392  1.0000
  C   C1053     1.0  0.48352  0.33427  0.26383  1.0000
  H   H1884     1.0  0.86497  0.07321  0.30401  1.0000
  H   H1885     1.0  0.82457  0.36866  0.38103  1.0000
  H   H1886     1.0  0.80637  0.39879  0.38068  1.0000
  H   H1887     1.0  0.55041  0.40615  0.25309  1.0000
  H   H1888     1.0  0.71213  0.05181  0.45964  1.0000
  H   H1889     1.0  0.65691  0.33765  0.44735  1.0000
  H   H1890     1.0  0.81946  0.46083  0.36970  1.0000
  H   H1891     1.0  0.49885  0.15498  0.25761  1.0000
  H   H1892     1.0  0.79712  0.39009  0.34962  1.0000
  H   H1893     1.0  0.85571  0.43263  0.41804  1.0000
  H   H1894     1.0  0.77623  0.34519  0.35286  1.0000
  H   H1895     1.0  0.79287  0.33686  0.37176  1.0000
  H   H1896     1.0  0.77289  0.36661  0.37170  1.0000
  C   C1054     1.0  0.54037  0.28441  0.40069  1.0000
  H   H1897     1.0  0.92940  0.03200  0.30190  1.0000
  H   H1898     1.0  0.83417  0.43221  0.38940  1.0000
  H   H1899     1.0  0.90241  0.47296  0.38826  1.0000
  H   H1900     1.0  0.94619  0.24338  0.27556  1.0000
  H   H1901     1.0  0.81494  0.00374  0.32883  1.0000
  H   H1902     1.0  0.67468  0.42560  0.42862  1.0000
  H   H1903     1.0  0.86111  0.36583  0.36854  1.0000
  N   N61       1.0  0.70841  0.41491  0.45481  1.0000
  H   H1904     1.0  0.67989  0.37581  0.43481  1.0000
  C   C1055     1.0  0.83379  0.42585  0.35469  1.0000
  H   H1905     1.0  0.81162  0.07383  0.49792  1.0000
  S   S232      1.0  0.95707  0.48933  0.28801  1.0000
  H   H1906     1.0  0.91187  0.18422  0.25705  1.0000
  H   H1907     1.0  0.92200  0.01721  0.35615  1.0000
  C   C1056     1.0  0.84845  0.41899  0.38380  1.0000
  C   C1057     1.0  0.85507  0.05952  0.29514  1.0000
  H   H1908     1.0  0.88568  0.04986  0.32241  1.0000
  H   H1909     1.0  0.55456  0.45582  0.26283  1.0000
  C   C1058     1.0  0.52302  0.27147  0.38810  1.0000
  H   H1910     1.0  0.85688  0.01977  0.28238  1.0000
  H   H1911     1.0  0.89420  0.37153  0.33690  1.0000
  H   H1912     1.0  0.88246  0.41746  0.34985  1.0000
  H   H1913     1.0  0.86255  0.43403  0.38051  1.0000
  C   C1059     1.0  0.90055  0.37785  0.34976  1.0000
  H   H1914     1.0  0.90281  0.35881  0.35781  1.0000
  S   S233      1.0  0.85548  0.48997  0.39748  1.0000
  C   C1060     1.0  0.68165  0.37203  0.44874  1.0000
  C   C1061     1.0  0.72833  0.39719  0.46169  1.0000
  N   N62       1.0  0.76846  0.10804  0.45969  1.0000
  C   C1062     1.0  0.75413  0.13215  0.46702  1.0000
  C   C1063     1.0  0.78960  0.10173  0.47083  1.0000
  C   C1064     1.0  0.77737  0.11719  0.44236  1.0000
  C   C1065     1.0  0.75396  0.08195  0.45716  1.0000
  C   C1066     1.0  0.74191  0.06986  0.47321  1.0000
  C   C1067     1.0  0.79358  0.09583  0.43285  1.0000
  H   H1915     1.0  0.93576  0.05500  0.33022  1.0000
  H   H1916     1.0  0.95028  0.37863  0.27693  1.0000
  C   C1068     1.0  0.72631  0.04498  0.46847  1.0000
  C   C1069     1.0  0.80577  0.10953  0.41760  1.0000
  H   H1917     1.0  0.76541  0.15112  0.46835  1.0000
  H   H1918     1.0  0.75258  0.42930  0.47112  1.0000
  H   H1919     1.0  0.79541  0.07941  0.46906  1.0000
  C   C1070     1.0  0.78718  0.10721  0.49035  1.0000
  C   C1071     1.0  0.88339  0.39859  0.35814  1.0000
  C   C1072     1.0  0.85719  0.39975  0.39849  1.0000
  C   C1073     1.0  0.71493  0.33656  0.49222  1.0000
  H   H1920     1.0  0.52162  0.28591  0.37703  1.0000
  H   H1921     1.0  0.50214  0.25285  0.40789  1.0000
  H   H1922     1.0  0.84225  0.38814  0.40417  1.0000
  H   H1923     1.0  0.87045  0.38423  0.39402  1.0000
  H   H1924     1.0  0.79768  0.43523  0.36394  1.0000
  H   H1925     1.0  0.90318  0.01965  0.32564  1.0000
  C   C1074     1.0  0.84894  0.07728  0.27949  1.0000
  C   C1075     1.0  0.68471  0.11028  0.49932  1.0000
  C   C1076     1.0  0.92948  0.06715  0.31899  1.0000
  C   C1077     1.0  0.97225  0.08425  0.26403  1.0000
  H   H1926     1.0  0.94116  0.19260  0.27943  1.0000
  C   C1078     1.0  0.92081  0.20489  0.25792  1.0000
  H   H1927     1.0  0.55753  0.28756  0.39423  1.0000
  H   H1928     1.0  0.75530  0.06178  0.48218  1.0000
  H   H1929     1.0  0.70220  0.34671  0.48344  1.0000
  H   H1930     1.0  0.82401  0.01510  0.34981  1.0000
  Fe  Fe120     1.0  0.78669  0.48415  0.43867  1.0000
  C   C1079     1.0  0.85105  0.01848  0.33037  1.0000
  C   C1080     1.0  0.53750  0.44770  0.25818  1.0000
  C   C1081     1.0  0.80890  0.09680  0.49994  1.0000
  H   H1931     1.0  0.53387  0.30517  0.40534  1.0000
  H   H1932     1.0  0.88298  0.03925  0.28062  1.0000
  H   H1933     1.0  0.95472  0.18538  0.25888  1.0000
  C   C1082     1.0  0.48924  0.13542  0.25736  1.0000
  H   H1934     1.0  0.92469  0.47219  0.36081  1.0000
  H   H1935     1.0  0.49255  0.26855  0.36071  1.0000
  C   C1083     1.0  0.70789  0.47433  0.48963  1.0000
  Fe  Fe121     1.0  0.97835  0.01629  0.29230  1.0000
  H   H1936     1.0  0.82174  0.47634  0.33922  1.0000
  C   C1084     1.0  0.82972  0.00380  0.33804  1.0000
  S   S234      1.0  0.48777  0.29803  0.27015  1.0000
  H   H1937     1.0  0.71326  0.44549  0.40405  1.0000
  N   N63       1.0  0.48027  0.25379  0.38538  1.0000
  S   S235      1.0  0.78468  0.49101  0.38904  1.0000
  H   H1938     1.0  0.52761  0.46496  0.25184  1.0000
  C   C1085     1.0  0.97701  0.28083  0.28414  1.0000
  H   H1939     1.0  0.49251  0.28694  0.40224  1.0000
  H   H1940     1.0  0.49447  0.17919  0.35796  1.0000
  Fe  Fe122     1.0  0.81660  0.49105  0.40605  1.0000
  H   H1941     1.0  0.79930  0.45102  0.33378  1.0000
  H   H1942     1.0  0.72085  0.43192  0.48881  1.0000
  H   H1943     1.0  0.68981  0.11464  0.48588  1.0000
  C   C1086     1.0  0.87075  0.49034  0.37741  1.0000
  S   S236      1.0  0.77482  0.47997  0.46632  1.0000
  C   C1087     1.0  0.89419  0.48064  0.37672  1.0000
  H   H1944     1.0  0.72460  0.48422  0.48557  1.0000
  H   H1945     1.0  0.49511  0.21293  0.39185  1.0000
  C   C1088     1.0  0.79006  0.00681  0.48669  1.0000
  H   H1946     1.0  0.79268  0.47977  0.34813  1.0000
  H   H1947     1.0  0.96070  0.18326  0.31837  1.0000
  H   H1948     1.0  0.96152  0.28661  0.27628  1.0000
  H   H1949     1.0  0.84618  0.99520  0.30668  1.0000
  H   H1950     1.0  0.97343  0.17312  0.28845  1.0000
  C   C1089     1.0  0.97886  0.44310  0.37611  1.0000
  H   H1951     1.0  0.66553  0.11413  0.50062  1.0000
  H   H1952     1.0  0.91139  0.10286  0.65428  1.0000
  H   H1953     1.0  0.89975  0.13753  0.65007  1.0000
  C   C1090     1.0  0.67642  0.12070  0.56697  1.0000
  H   H1954     1.0  0.96799  0.14434  0.68811  1.0000
  H   H1955     1.0  0.71743  0.19332  0.56044  1.0000
  H   H1956     1.0  0.97606  0.43409  0.65067  1.0000
  Fe  Fe123     1.0  0.76532  0.01719  0.59750  1.0000
  S   S237      1.0  0.79930  0.03208  0.58652  1.0000
  S   S238      1.0  0.73804  0.04794  0.60851  1.0000
  Fe  Fe124     1.0  0.78574  0.45787  0.58771  1.0000
  S   S239      1.0  0.82346  0.46940  0.58208  1.0000
  S   S240      1.0  0.77956  0.41000  0.58797  1.0000
  H   H1957     1.0  0.88325  0.11343  0.66306  1.0000
  C   C1091     1.0  0.68314  0.25830  0.50507  1.0000
  H   H1958     1.0  0.66285  0.37126  0.56377  1.0000
  S   S241      1.0  0.78949  0.02404  0.53764  1.0000
  Fe  Fe125     1.0  0.94881  0.99829  0.69132  1.0000
  C   C1092     1.0  0.73423  0.36744  0.54414  1.0000
  Fe  Fe126     1.0  0.65456  0.23560  0.60170  1.0000
  S   S242      1.0  0.68753  0.23905  0.61744  1.0000
  S   S243      1.0  0.61652  0.22939  0.61101  1.0000
  Fe  Fe127     1.0  0.68120  0.24867  0.56790  1.0000
  S   S244      1.0  0.71526  0.25349  0.58188  1.0000
  S   S245      1.0  0.68481  0.26166  0.53996  1.0000
  Fe  Fe128     1.0  0.70476  0.21404  0.59598  1.0000
  S   S246      1.0  0.73442  0.18103  0.59621  1.0000
  Fe  Fe129     1.0  0.69522  0.27796  0.60170  1.0000
  S   S247      1.0  0.70136  0.32244  0.61235  1.0000
  S   S248      1.0  0.67140  0.20833  0.58103  1.0000
  S   S249      1.0  0.66159  0.27539  0.58698  1.0000
  S   S250      1.0  0.52416  0.24860  0.72315  1.0000
  H   H1959     1.0  0.64977  0.11238  0.58615  1.0000
  H   H1960     1.0  0.82765  0.11136  0.65600  1.0000
  H   H1961     1.0  0.64485  0.14425  0.57417  1.0000
  Fe  Fe130     1.0  0.52598  0.24005  0.69466  1.0000
  S   S251      1.0  0.56369  0.23677  0.68379  1.0000
  H   H1962     1.0  0.76836  0.36032  0.53091  1.0000
  H   H1963     1.0  0.68894  0.10652  0.57365  1.0000
  H   H1964     1.0  0.75665  0.03070  0.65858  1.0000
  H   H1965     1.0  0.73695  0.09865  0.52701  1.0000
  S   S252      1.0  0.49872  0.20571  0.69627  1.0000
  C   C1093     1.0  0.60220  0.23094  0.63142  1.0000
  C   C1094     1.0  0.57752  0.23309  0.63211  1.0000
  C   C1095     1.0  0.56540  0.23480  0.64790  1.0000
  C   C1096     1.0  0.57778  0.23421  0.66333  1.0000
  C   C1097     1.0  0.60245  0.23192  0.66263  1.0000
  C   C1098     1.0  0.61457  0.23027  0.64684  1.0000
  H   H1966     1.0  0.56767  0.23344  0.62031  1.0000
  H   H1967     1.0  0.54647  0.23645  0.64812  1.0000
  H   H1968     1.0  0.61228  0.23129  0.67442  1.0000
  H   H1969     1.0  0.63347  0.22827  0.64662  1.0000
  C   C1099     1.0  0.75737  0.38646  0.59504  1.0000
  C   C1100     1.0  0.73631  0.39565  0.60252  1.0000
  C   C1101     1.0  0.71937  0.37586  0.60781  1.0000
  C   C1102     1.0  0.72315  0.34672  0.60555  1.0000
  C   C1103     1.0  0.74426  0.33761  0.59825  1.0000
  C   C1104     1.0  0.76117  0.35732  0.59295  1.0000
  H   H1970     1.0  0.73313  0.41796  0.60425  1.0000
  H   H1971     1.0  0.70319  0.38318  0.61360  1.0000
  H   H1972     1.0  0.74764  0.31528  0.59685  1.0000
  H   H1973     1.0  0.77746  0.34993  0.58734  1.0000
  C   C1105     1.0  0.73658  0.08463  0.60398  1.0000
  C   C1106     1.0  0.71693  0.10040  0.60942  1.0000
  C   C1107     1.0  0.71562  0.12978  0.60676  1.0000
  C   C1108     1.0  0.73418  0.14381  0.59886  1.0000
  C   C1109     1.0  0.75381  0.12801  0.59338  1.0000
  C   C1110     1.0  0.75489  0.09859  0.59570  1.0000
  H   H1974     1.0  0.70269  0.08986  0.61590  1.0000
  H   H1975     1.0  0.70057  0.14165  0.61129  1.0000
  H   H1976     1.0  0.76829  0.13864  0.58727  1.0000
  H   H1977     1.0  0.77008  0.08679  0.59137  1.0000
  C   C1111     1.0  0.66553  0.21909  0.51981  1.0000
  C   C1112     1.0  0.67724  0.24488  0.52046  1.0000
  N   N64       1.0  0.72396  0.33835  0.54170  1.0000
  H   H1978     1.0  0.66066  0.20868  0.53156  1.0000
  H   H1979     1.0  0.93451  0.10047  0.73101  1.0000
  C   C1113     1.0  0.91339  0.13222  0.67576  1.0000
  H   H1980     1.0  0.68882  0.35589  0.54014  1.0000
  H   H1981     1.0  0.69010  0.10183  0.53265  1.0000
  H   H1982     1.0  0.76312  0.16701  0.63875  1.0000
  C   C1114     1.0  0.86741  0.07012  0.61310  1.0000
  C   C1115     1.0  0.66805  0.35121  0.57001  1.0000
  H   H1983     1.0  0.74077  0.36991  0.55749  1.0000
  H   H1984     1.0  0.75600  0.07489  0.55178  1.0000
  H   H1985     1.0  0.83063  0.07029  0.68916  1.0000
  H   H1986     1.0  0.75003  0.22249  0.55133  1.0000
  H   H1987     1.0  0.93060  0.14050  0.67176  1.0000
  C   C1116     1.0  0.72483  0.32804  0.52343  1.0000
  H   H1988     1.0  0.88150  0.08410  0.60834  1.0000
  C   C1117     1.0  0.79253  0.00581  0.51795  1.0000
  C   C1118     1.0  0.86831  0.99639  0.63135  1.0000
  H   H1989     1.0  0.74335  0.17220  0.55652  1.0000
  H   H1990     1.0  0.66722  0.14301  0.59051  1.0000
  H   H1991     1.0  0.88723  0.47727  0.69892  1.0000
  C   C1119     1.0  0.84589  0.07537  0.68089  1.0000
  H   H1992     1.0  0.65678  0.33388  0.56525  1.0000
  H   H1993     1.0  0.68967  0.31911  0.54384  1.0000
  H   H1994     1.0  0.87493  0.05618  0.62309  1.0000
  C   C1120     1.0  0.72920  0.18466  0.55039  1.0000
  C   C1121     1.0  0.69093  0.12495  0.53031  1.0000
  S   S253      1.0  0.49876  0.32746  0.72666  1.0000
  H   H1995     1.0  0.73516  0.32286  0.56635  1.0000
  C   C1122     1.0  0.80202  0.46546  0.67912  1.0000
  C   C1123     1.0  0.68958  0.14598  0.55892  1.0000
  H   H1996     1.0  0.96657  0.10762  0.71335  1.0000
  H   H1997     1.0  0.69820  0.32526  0.57390  1.0000
  H   H1998     1.0  0.69966  0.15550  0.56962  1.0000
  H   H1999     1.0  0.70045  0.18025  0.53276  1.0000
  C   C1124     1.0  0.94478  0.15587  0.72517  1.0000
  H   H2000     1.0  0.77815  0.15827  0.61920  1.0000
  H   H2001     1.0  0.83367  0.04938  0.63184  1.0000
  H   H2002     1.0  0.86089  0.06171  0.68473  1.0000
  H   H2003     1.0  0.81731  0.06229  0.61465  1.0000
  H   H2004     1.0  0.77890  0.41056  0.52812  1.0000
  C   C1125     1.0  0.89496  0.00024  0.66222  1.0000
  H   H2005     1.0  0.77691  0.08804  0.53659  1.0000
  H   H2006     1.0  0.80727  0.47457  0.69161  1.0000
  H   H2007     1.0  0.66687  0.10825  0.55725  1.0000
  C   C1126     1.0  0.95594  0.10608  0.70155  1.0000
  H   H2008     1.0  0.90274  0.15028  0.68061  1.0000
  H   H2009     1.0  0.66527  0.35342  0.58402  1.0000
  C   C1127     1.0  0.92202  0.09921  0.72013  1.0000
  C   C1128     1.0  0.74420  0.11181  0.53744  1.0000
  C   C1129     1.0  0.76306  0.31292  0.54944  1.0000
  C   C1130     1.0  0.77294  0.28883  0.56021  1.0000
  H   H2010     1.0  0.77943  0.06239  0.62760  1.0000
  H   H2011     1.0  0.84124  0.10235  0.61023  1.0000
  H   H2012     1.0  0.86113  0.05700  0.60228  1.0000
  H   H2013     1.0  0.76689  0.30785  0.53589  1.0000
  H   H2014     1.0  0.77261  0.33224  0.55323  1.0000
  H   H2015     1.0  0.76412  0.26876  0.55698  1.0000
  H   H2016     1.0  0.79201  0.28635  0.55767  1.0000
  H   H2017     1.0  0.77049  0.29327  0.57404  1.0000
  H   H2018     1.0  0.83546  0.04744  0.66088  1.0000
  C   C1131     1.0  0.72460  0.11971  0.55031  1.0000
  C   C1132     1.0  0.77554  0.47212  0.67733  1.0000
  C   C1133     1.0  0.81133  0.46380  0.64784  1.0000
  H   H2019     1.0  0.77967  0.48248  0.52873  1.0000
  C   C1134     1.0  0.84251  0.46559  0.66908  1.0000
  S   S254      1.0  0.78217  0.49083  0.60849  1.0000
  H   H2020     1.0  0.69205  0.27825  0.50543  1.0000
  C   C1135     1.0  0.81172  0.43124  0.64624  1.0000
  C   C1136     1.0  0.74062  0.20980  0.54163  1.0000
  H   H2021     1.0  0.96227  0.11422  0.67448  1.0000
  Fe  Fe131     1.0  0.79062  0.00405  0.56413  1.0000
  C   C1137     1.0  0.90040  0.47122  0.63918  1.0000
  C   C1138     1.0  0.80381  0.42195  0.62846  1.0000
  N   N65       1.0  0.81792  0.47579  0.66505  1.0000
  H   H2022     1.0  0.82337  0.47219  0.63785  1.0000
  H   H2023     1.0  0.79359  0.47083  0.64392  1.0000
  C   C1139     1.0  0.90628  0.99865  0.64634  1.0000
  H   H2024     1.0  0.76695  0.46083  0.70364  1.0000
  H   H2025     1.0  0.90523  0.10860  0.72487  1.0000
  H   H2026     1.0  0.84247  0.44274  0.67223  1.0000
  H   H2027     1.0  0.80415  0.44233  0.68081  1.0000
  H   H2028     1.0  0.74293  0.32850  0.51826  1.0000
  H   H2029     1.0  0.76872  0.46656  0.66453  1.0000
  H   H2030     1.0  0.48286  0.35217  0.68410  1.0000
  H   H2031     1.0  0.82970  0.42275  0.64815  1.0000
  H   H2032     1.0  0.79971  0.42148  0.65564  1.0000
  S   S255      1.0  0.97843  0.02945  0.68924  1.0000
  C   C1140     1.0  0.87023  0.99937  0.66252  1.0000
  H   H2033     1.0  0.55240  0.00748  0.74362  1.0000
  H   H2034     1.0  0.85400  0.46750  0.65763  1.0000
  C   C1141     1.0  0.49244  0.35174  0.74375  1.0000
  H   H2035     1.0  0.93520  0.16007  0.69884  1.0000
  Fe  Fe132     1.0  0.49632  0.28101  0.71723  1.0000
  N   N66       1.0  0.93108  0.11565  0.70497  1.0000
  H   H2036     1.0  0.91907  0.48043  0.73466  1.0000
  H   H2037     1.0  0.80459  0.39863  0.62741  1.0000
  H   H2038     1.0  0.78543  0.42879  0.62605  1.0000
  H   H2039     1.0  0.81537  0.43094  0.61844  1.0000
  H   H2040     1.0  0.80368  0.02258  0.63966  1.0000
  H   H2041     1.0  0.72670  0.16337  0.52622  1.0000
  H   H2042     1.0  0.76297  0.43272  0.68820  1.0000
  H   H2043     1.0  0.85084  0.09771  0.68292  1.0000
  C   C1142     1.0  0.65961  0.20712  0.50386  1.0000
  H   H2044     1.0  0.80668  0.10064  0.51385  1.0000
  H   H2045     1.0  0.91121  0.15263  0.71236  1.0000
  H   H2046     1.0  0.95642  0.08337  0.69823  1.0000
  S   S256      1.0  0.91052  0.00460  0.68195  1.0000
  H   H2047     1.0  0.85426  0.10086  0.63105  1.0000
  S   S257      1.0  0.49948  0.27397  0.68856  1.0000
  S   S258      1.0  0.97656  0.06357  0.73801  1.0000
  H   H2048     1.0  0.93928  0.14502  0.73703  1.0000
  H   H2049     1.0  0.75978  0.01801  0.63695  1.0000
  H   H2050     1.0  0.67626  0.16205  0.55505  1.0000
  H   H2051     1.0  0.89702  0.10608  0.69420  1.0000
  H   H2052     1.0  0.90403  0.06368  0.70724  1.0000
  H   H2053     1.0  0.74727  0.37959  0.51870  1.0000
  H   H2054     1.0  0.69437  0.15164  0.50760  1.0000
  H   H2055     1.0  0.71724  0.12560  0.50927  1.0000
  H   H2056     1.0  0.90555  0.03060  0.73099  1.0000
  H   H2057     1.0  0.75266  0.13072  0.53199  1.0000
  C   C1143     1.0  0.76339  0.09438  0.54612  1.0000
  H   H2058     1.0  0.76410  0.11613  0.63597  1.0000
  H   H2059     1.0  0.78302  0.12644  0.65332  1.0000
  H   H2060     1.0  0.92094  0.08910  0.68369  1.0000
  Fe  Fe133     1.0  0.49530  0.21617  0.72426  1.0000
  N   N67       1.0  0.70551  0.13918  0.54398  1.0000
  H   H2061     1.0  0.54596  0.14302  0.74822  1.0000
  H   H2062     1.0  0.77194  0.99801  0.65433  1.0000
  H   H2063     1.0  0.79899  0.03685  0.66099  1.0000
  H   H2064     1.0  0.49673  0.08236  0.73696  1.0000
  H   H2065     1.0  0.93385  0.05627  0.71305  1.0000
  H   H2066     1.0  0.73291  0.12856  0.56194  1.0000
  C   C1144     1.0  0.49340  0.09881  0.74628  1.0000
  H   H2067     1.0  0.53096  0.03535  0.74593  1.0000
  H   H2068     1.0  0.80606  0.09037  0.66576  1.0000
  C   C1145     1.0  0.70855  0.34373  0.51073  1.0000
  C   C1146     1.0  0.79184  0.03537  0.64789  1.0000
  C   C1147     1.0  0.91128  0.48888  0.65128  1.0000
  H   H2069     1.0  0.81644  0.12567  0.62954  1.0000
  H   H2070     1.0  0.71980  0.30537  0.52286  1.0000
  C   C1148     1.0  0.76862  0.01965  0.64952  1.0000
  S   S259      1.0  0.93574  0.47555  0.66312  1.0000
  S   S260      1.0  0.85265  0.99591  0.61146  1.0000
  N   N68       1.0  0.61442  0.31987  0.63940  1.0000
  C   C1149     1.0  0.61626  0.30874  0.62133  1.0000
  C   C1150     1.0  0.63090  0.30388  0.65109  1.0000
  C   C1151     1.0  0.58956  0.31483  0.64545  1.0000
  C   C1152     1.0  0.61908  0.35107  0.64028  1.0000
  C   C1153     1.0  0.64316  0.36094  0.63340  1.0000
  C   C1154     1.0  0.59923  0.32192  0.60810  1.0000
  C   C1155     1.0  0.58456  0.32020  0.66473  1.0000
  C   C1156     1.0  0.65428  0.29280  0.64331  1.0000
  C   C1157     1.0  0.67058  0.28135  0.65715  1.0000
  C   C1158     1.0  0.64443  0.39306  0.63286  1.0000
  C   C1159     1.0  0.60420  0.31057  0.59015  1.0000
  C   C1160     1.0  0.55878  0.31475  0.66898  1.0000
  H   H2071     1.0  0.61301  0.28571  0.62133  1.0000
  H   H2072     1.0  0.63424  0.31092  0.61610  1.0000
  H   H2073     1.0  0.63503  0.31672  0.66262  1.0000
  H   H2074     1.0  0.62226  0.28465  0.65608  1.0000
  H   H2075     1.0  0.58446  0.29261  0.64270  1.0000
  H   H2076     1.0  0.57696  0.32834  0.63832  1.0000
  H   H2077     1.0  0.60503  0.36305  0.63359  1.0000
  H   H2078     1.0  0.61818  0.35857  0.65373  1.0000
  H   H2079     1.0  0.64669  0.35318  0.62027  1.0000
  H   H2080     1.0  0.65737  0.35364  0.64201  1.0000
  H   H2081     1.0  0.58079  0.31655  0.61119  1.0000
  H   H2082     1.0  0.60100  0.34513  0.60764  1.0000
  H   H2083     1.0  0.58837  0.34228  0.66834  1.0000
  H   H2084     1.0  0.59518  0.30603  0.67294  1.0000
  H   H2085     1.0  0.65065  0.27531  0.63425  1.0000
  H   H2086     1.0  0.66380  0.30925  0.63625  1.0000
  H   H2087     1.0  0.66214  0.26368  0.66405  1.0000
  H   H2088     1.0  0.68707  0.27345  0.65118  1.0000
  H   H2089     1.0  0.67517  0.29824  0.66639  1.0000
  H   H2090     1.0  0.63105  0.40171  0.62396  1.0000
  H   H2091     1.0  0.64163  0.40217  0.64580  1.0000
  H   H2092     1.0  0.66204  0.39948  0.62824  1.0000
  H   H2093     1.0  0.60328  0.28717  0.58995  1.0000
  H   H2094     1.0  0.59095  0.31898  0.58108  1.0000
  H   H2095     1.0  0.62183  0.31724  0.58576  1.0000
  H   H2096     1.0  0.55398  0.29277  0.66564  1.0000
  H   H2097     1.0  0.55574  0.31773  0.68290  1.0000
  H   H2098     1.0  0.54717  0.32952  0.66192  1.0000
  H   H2099     1.0  0.75189  0.42107  0.53841  1.0000
  H   H2100     1.0  0.96365  0.15150  0.72285  1.0000
  H   H2101     1.0  0.79467  0.16920  0.63773  1.0000
  C   C1161     1.0  0.73646  0.31697  0.55270  1.0000
  H   H2102     1.0  0.56999  0.13461  0.73409  1.0000
  C   C1162     1.0  0.90118  0.12070  0.65985  1.0000
  H   H2103     1.0  0.69007  0.33717  0.51279  1.0000
  H   H2104     1.0  0.74233  0.46157  0.68923  1.0000
  H   H2105     1.0  0.49978  0.13251  0.72824  1.0000
  C   C1163     1.0  0.75423  0.37633  0.53177  1.0000
  H   H2106     1.0  0.92374  0.19316  0.73138  1.0000
  H   H2107     1.0  0.77388  0.40148  0.55013  1.0000
  H   H2108     1.0  0.96564  0.47630  0.63394  1.0000
  H   H2109     1.0  0.95815  0.40988  0.73514  1.0000
  C   C1164     1.0  0.69387  0.34451  0.56649  1.0000
  C   C1165     1.0  0.89305  0.99693  0.63108  1.0000
  H   H2110     1.0  0.70453  0.36227  0.57135  1.0000
  H   H2111     1.0  0.79611  0.10685  0.61679  1.0000
  C   C1166     1.0  0.77922  0.15707  0.63334  1.0000
  C   C1167     1.0  0.84731  0.08783  0.62046  1.0000
  H   H2112     1.0  0.70946  0.36689  0.51251  1.0000
  C   C1168     1.0  0.76531  0.40404  0.53748  1.0000
  C   C1169     1.0  0.78098  0.12645  0.63923  1.0000
  H   H2113     1.0  0.87261  0.46656  0.62048  1.0000
  H   H2114     1.0  0.77202  0.10679  0.55635  1.0000
  H   H2115     1.0  0.87210  0.44446  0.69562  1.0000
  H   H2116     1.0  0.95314  0.19343  0.73972  1.0000
  C   C1170     1.0  0.69850  0.33918  0.54720  1.0000
  H   H2117     1.0  0.50937  0.38626  0.73095  1.0000
  H   H2118     1.0  0.72043  0.38403  0.54287  1.0000
  H   H2119     1.0  0.72774  0.29607  0.55156  1.0000
  H   H2120     1.0  0.72710  0.22339  0.53554  1.0000
  H   H2121     1.0  0.77466  0.07532  0.64868  1.0000
  C   C1171     1.0  0.90909  0.05319  0.73354  1.0000
  H   H2122     1.0  0.71704  0.09936  0.55457  1.0000
  C   C1172     1.0  0.91934  0.46514  0.74536  1.0000
  C   C1173     1.0  0.87715  0.46463  0.68953  1.0000
  S   S261      1.0  0.77105  0.48625  0.56728  1.0000
  H   H2123     1.0  0.85627  0.07310  0.65462  1.0000
  C   C1174     1.0  0.65849  0.13080  0.58024  1.0000
  N   N69       1.0  0.80943  0.08336  0.63849  1.0000
  C   C1175     1.0  0.82654  0.06922  0.62642  1.0000
  C   C1176     1.0  0.78799  0.06506  0.64029  1.0000
  C   C1177     1.0  0.80158  0.11065  0.63028  1.0000
  C   C1178     1.0  0.82004  0.08981  0.65579  1.0000
  C   C1179     1.0  0.84000  0.06989  0.66214  1.0000
  H   H2124     1.0  0.90719  0.45013  0.63718  1.0000
  H   H2125     1.0  0.92523  0.99934  0.64577  1.0000
  H   H2126     1.0  0.75345  0.20263  0.53181  1.0000
  C   C1180     1.0  0.76116  0.45576  0.69044  1.0000
  H   H2127     1.0  0.84401  0.48402  0.69523  1.0000
  C   C1181     1.0  0.91544  0.10936  0.68984  1.0000
  C   C1182     1.0  0.71513  0.16671  0.53744  1.0000
  C   C1183     1.0  0.94227  0.18749  0.72851  1.0000
  C   C1184     1.0  0.91760  0.06728  0.71714  1.0000
  H   H2128     1.0  0.67236  0.13254  0.53092  1.0000
  C   C1185     1.0  0.96927  0.12113  0.68702  1.0000
  C   C1186     1.0  0.92977  0.14654  0.70964  1.0000
  Fe  Fe134     1.0  0.81564  0.99391  0.59919  1.0000
  C   C1187     1.0  0.97028  0.39743  0.74260  1.0000
  H   H2129     1.0  0.89266  0.06329  0.73822  1.0000
  C   C1188     1.0  0.85536  0.48104  0.68387  1.0000
  C   C1189     1.0  0.88076  0.48049  0.62965  1.0000
  C   C1190     1.0  0.49499  0.12738  0.74123  1.0000
  H   H2130     1.0  0.97628  0.46122  0.61481  1.0000
  S   S262      1.0  0.95096  0.99778  0.72001  1.0000
  C   C1191     1.0  0.49963  0.38000  0.74218  1.0000
  H   H2131     1.0  0.92275  0.05453  0.74362  1.0000
  H   H2132     1.0  0.88876  0.45999  0.67845  1.0000
  C   C1192     1.0  0.69830  0.12954  0.51138  1.0000
  H   H2133     1.0  0.55589  0.09206  0.74835  1.0000
  H   H2134     1.0  0.94845  0.19973  0.71732  1.0000
  H   H2135     1.0  0.90209  0.99627  0.61890  1.0000
  S   S263      1.0  0.95882  0.49120  0.71193  1.0000
  H   H2136     1.0  0.95655  0.45813  0.74574  1.0000
  H   H2137     1.0  0.65021  0.18742  0.50343  1.0000
  H   H2138     1.0  0.91643  0.44372  0.74003  1.0000
  C   C1193     1.0  0.78910  0.48585  0.51692  1.0000
  Fe  Fe135     1.0  0.96234  0.49136  0.68311  1.0000
  S   S264      1.0  0.49126  0.18584  0.74737  1.0000
  H   H2139     1.0  0.70726  0.47424  0.50382  1.0000
  H   H2140     1.0  0.86118  0.00044  0.67467  1.0000
  H   H2141     1.0  0.68865  0.08781  0.50210  1.0000
  H   H2142     1.0  0.77936  0.04084  0.50345  1.0000
  C   C1194     1.0  0.56452  0.13567  0.74772  1.0000
  C   C1195     1.0  0.78651  0.01976  0.50274  1.0000
  C   C1196     1.0  0.85703  0.99716  0.64727  1.0000
  H   H2143     1.0  0.83812  0.99627  0.64783  1.0000
  C   C1197     1.0  0.77830  0.48019  0.50115  1.0000
  H   H2144     1.0  0.76055  0.47240  0.50099  1.0000
  C   C1198     1.0  0.52712  0.09603  0.80446  1.0000
  Fe  Fe136     1.0  0.95339  0.24911  0.81655  1.0000
  H   H2145     1.0  0.92179  0.13960  0.85808  1.0000
  S   S265      1.0  0.91848  0.23721  0.82996  1.0000
  C   C1199     1.0  0.48581  0.39503  0.83577  1.0000
  H   H2146     1.0  0.53986  0.11297  0.77386  1.0000
  S   S266      1.0  0.95163  0.25184  0.78767  1.0000
  H   H2147     1.0  0.67141  0.38692  0.98393  1.0000
  Fe  Fe137     1.0  0.81711  0.26110  0.90483  1.0000
  S   S267      1.0  0.78477  0.24660  0.89078  1.0000
  S   S268      1.0  0.85323  0.27336  0.89374  1.0000
  Fe  Fe138     1.0  0.79186  0.25769  0.94015  1.0000
  S   S269      1.0  0.75871  0.24237  0.92809  1.0000
  S   S270      1.0  0.78635  0.26957  0.96812  1.0000
  Fe  Fe139     1.0  0.78143  0.21434  0.91190  1.0000
  S   S271      1.0  0.77869  0.16640  0.90889  1.0000
  Fe  Fe140     1.0  0.76473  0.27625  0.90848  1.0000
  S   S272      1.0  0.73228  0.30390  0.90381  1.0000
  S   S273      1.0  0.81471  0.22758  0.92523  1.0000
  S   S274      1.0  0.79702  0.29265  0.92118  1.0000
  Fe  Fe141     1.0  0.69687  0.46814  0.91020  1.0000
  S   S275      1.0  0.66600  0.45572  0.92625  1.0000
  S   S276      1.0  0.72497  0.43798  0.89977  1.0000
  Fe  Fe142     1.0  0.68832  0.03479  0.91593  1.0000
  S   S277      1.0  0.65621  0.02444  0.93139  1.0000
  S   S278      1.0  0.69118  0.08284  0.91296  1.0000
  C   C1200     1.0  0.79942  0.16974  0.96056  1.0000
  H   H2148     1.0  0.90474  0.47025  0.75429  1.0000
  C   C1201     1.0  0.75741  0.14982  0.98323  1.0000
  H   H2149     1.0  0.71923  0.07497  0.96698  1.0000
  C   C1202     1.0  0.48753  0.09128  0.76318  1.0000
  N   N70       1.0  0.54524  0.39378  0.81042  1.0000
  H   H2150     1.0  0.57321  0.38959  0.86015  1.0000
  H   H2151     1.0  0.55437  0.06684  0.81075  1.0000
  C   C1203     1.0  0.74288  0.12494  0.95777  1.0000
  S   S279      1.0  0.60813  0.47928  0.90104  1.0000
  H   H2152     1.0  0.79446  0.19920  0.86305  1.0000
  H   H2153     1.0  0.74962  0.17653  0.94227  1.0000
  H   H2154     1.0  0.83093  0.12932  0.88474  1.0000
  C   C1204     1.0  0.74660  0.17606  0.95634  1.0000
  H   H2155     1.0  0.95561  0.09547  0.76573  1.0000
  H   H2156     1.0  0.61989  0.02814  0.78269  1.0000
  S   S280      1.0  0.96548  0.32869  0.77420  1.0000
  H   H2157     1.0  0.75211  0.31507  0.98612  1.0000
  H   H2158     1.0  0.57354  0.43805  0.76852  1.0000
  H   H2159     1.0  0.55588  0.37088  0.83318  1.0000
  H   H2160     1.0  0.58769  0.42315  0.85956  1.0000
  H   H2161     1.0  0.65194  0.39790  0.90019  1.0000
  H   H2162     1.0  0.78104  0.14271  0.94276  1.0000
  C   C1205     1.0  0.71178  0.20997  0.95567  1.0000
  H   H2163     1.0  0.56327  0.33433  0.81121  1.0000
  H   H2164     1.0  0.59556  0.06849  0.77370  1.0000
  C   C1206     1.0  0.79486  0.25193  0.98707  1.0000
  C   C1207     1.0  0.81185  0.23053  0.98724  1.0000
  H   H2165     1.0  0.52605  0.36913  0.79179  1.0000
  H   H2166     1.0  0.82026  0.22412  0.97544  1.0000
  H   H2167     1.0  0.61882  0.06656  0.94081  1.0000
  C   C1208     1.0  0.75401  0.14367  0.90978  1.0000
  C   C1209     1.0  0.75777  0.11432  0.90943  1.0000
  C   C1210     1.0  0.73885  0.09538  0.91049  1.0000
  C   C1211     1.0  0.71583  0.10559  0.91180  1.0000
  C   C1212     1.0  0.71206  0.13495  0.91216  1.0000
  C   C1213     1.0  0.73100  0.15389  0.91119  1.0000
  H   H2168     1.0  0.77545  0.10612  0.90831  1.0000
  H   H2169     1.0  0.74205  0.07289  0.91013  1.0000
  H   H2170     1.0  0.69436  0.14311  0.91316  1.0000
  H   H2171     1.0  0.72779  0.17638  0.91145  1.0000
  C   C1214     1.0  0.72723  0.40091  0.90256  1.0000
  C   C1215     1.0  0.70862  0.38483  0.90881  1.0000
  C   C1216     1.0  0.71058  0.35518  0.90941  1.0000
  C   C1217     1.0  0.73134  0.34134  0.90423  1.0000
  C   C1218     1.0  0.75019  0.35751  0.89852  1.0000
  C   C1219     1.0  0.74804  0.38707  0.89754  1.0000
  H   H2172     1.0  0.69255  0.39517  0.91279  1.0000
  H   H2173     1.0  0.69585  0.34287  0.91377  1.0000
  H   H2174     1.0  0.76620  0.34718  0.89435  1.0000
  H   H2175     1.0  0.76255  0.39928  0.89267  1.0000
  C   C1220     1.0  0.90022  0.25017  0.84701  1.0000
  C   C1221     1.0  0.87643  0.24222  0.84749  1.0000
  C   C1222     1.0  0.86156  0.25026  0.86120  1.0000
  C   C1223     1.0  0.87036  0.26575  0.87498  1.0000
  C   C1224     1.0  0.89405  0.27408  0.87440  1.0000
  C   C1225     1.0  0.90884  0.26650  0.86052  1.0000
  H   H2176     1.0  0.86944  0.22977  0.83711  1.0000
  H   H2177     1.0  0.84334  0.24426  0.86118  1.0000
  H   H2178     1.0  0.90116  0.28615  0.88490  1.0000
  H   H2179     1.0  0.92704  0.27278  0.86046  1.0000
  C   C1226     1.0  0.71890  0.32133  0.95829  1.0000
  H   H2180     1.0  0.90586  0.22855  0.92953  1.0000
  H   H2181     1.0  0.63543  0.42168  0.86578  1.0000
  H   H2182     1.0  0.67353  0.42435  0.98062  1.0000
  C   C1227     1.0  0.58780  0.07365  0.78632  1.0000
  H   H2183     1.0  0.81797  0.12181  0.91478  1.0000
  H   H2184     1.0  0.74042  0.12597  0.94369  1.0000
  S   S281      1.0  0.48922  0.03602  0.81999  1.0000
  H   H2185     1.0  0.87705  0.23968  0.92280  1.0000
  Fe  Fe143     1.0  0.51390  0.49343  0.81979  1.0000
  C   C1228     1.0  0.73464  0.07233  0.95842  1.0000
  H   H2186     1.0  0.75833  0.09366  0.97539  1.0000
  H   H2187     1.0  0.66687  0.06432  0.84995  1.0000
  H   H2188     1.0  0.75673  0.37976  0.98518  1.0000
  H   H2189     1.0  0.66983  0.37522  0.84785  1.0000
  N   N71       1.0  0.75726  0.14967  0.96388  1.0000
  C   C1229     1.0  0.56863  0.99927  0.84993  1.0000
  C   C1230     1.0  0.55711  0.99915  0.86576  1.0000
  H   H2190     1.0  0.52326  0.07938  0.83036  1.0000
  C   C1231     1.0  0.82258  0.16449  0.95114  1.0000
  H   H2191     1.0  0.50974  0.40802  0.80619  1.0000
  H   H2192     1.0  0.58747  0.06380  0.94295  1.0000
  H   H2193     1.0  0.80350  0.17044  0.97440  1.0000
  H   H2194     1.0  0.55902  0.47658  0.89280  1.0000
  C   C1232     1.0  0.50810  0.38195  0.82823  1.0000
  H   H2195     1.0  0.81676  0.17572  0.88578  1.0000
  C   C1233     1.0  0.64848  0.47701  0.99149  1.0000
  H   H2196     1.0  0.70599  0.42961  0.95487  1.0000
  C   C1234     1.0  0.55532  0.48192  0.86549  1.0000
  H   H2197     1.0  0.72864  0.07305  0.94493  1.0000
  H   H2198     1.0  0.71725  0.28884  0.93857  1.0000
  H   H2199     1.0  0.74249  0.05122  0.96078  1.0000
  H   H2200     1.0  0.79011  0.12652  0.96211  1.0000
  H   H2201     1.0  0.53011  0.11647  0.82936  1.0000
  H   H2202     1.0  0.71530  0.21552  0.94214  1.0000
  C   C1235     1.0  0.71981  0.17981  0.95924  1.0000
  H   H2203     1.0  0.50245  0.36385  0.82027  1.0000
  C   C1236     1.0  0.75283  0.09520  0.96183  1.0000
  H   H2204     1.0  0.82756  0.21049  0.88182  1.0000
  C   C1237     1.0  0.52005  0.09924  0.82324  1.0000
  H   H2205     1.0  0.85985  0.19179  0.86413  1.0000
  N   N72       1.0  0.56197  0.08043  0.78490  1.0000
  H   H2206     1.0  0.94120  0.45087  0.76554  1.0000
  H   H2207     1.0  0.93739  0.15117  0.87701  1.0000
  H   H2208     1.0  0.62149  0.42211  0.81381  1.0000
  C   C1238     1.0  0.97146  0.48156  0.78694  1.0000
  H   H2209     1.0  0.63978  0.40349  0.83996  1.0000
  C   C1239     1.0  0.67235  0.06481  0.99226  1.0000
  H   H2210     1.0  0.53235  0.00731  0.76142  1.0000
  H   H2211     1.0  0.57264  0.02281  0.76976  1.0000
  H   H2212     1.0  0.82074  0.20344  0.85048  1.0000
  S   S282      1.0  0.48555  0.05456  0.76861  1.0000
  H   H2213     1.0  0.62596  0.44977  0.82921  1.0000
  H   H2214     1.0  0.91219  0.19409  0.87832  1.0000
  H   H2215     1.0  0.85845  0.11211  0.88923  1.0000
  H   H2216     1.0  0.76818  0.09049  0.95350  1.0000
  C   C1240     1.0  0.96914  0.10856  0.76027  1.0000
  H   H2217     1.0  0.55483  0.43759  0.80705  1.0000
  C   C1241     1.0  0.65097  0.41495  0.83083  1.0000
  S   S283      1.0  0.48243  0.46584  0.82420  1.0000
  H   H2218     1.0  0.80955  0.16856  0.85487  1.0000
  H   H2219     1.0  0.83063  0.14422  0.95519  1.0000
  N   N73       1.0  0.68448  0.41642  0.85372  1.0000
  C   C1242     1.0  0.68706  0.38537  0.84969  1.0000
  C   C1243     1.0  0.67094  0.43145  0.83978  1.0000
  C   C1244     1.0  0.70894  0.42856  0.85422  1.0000
  C   C1245     1.0  0.67310  0.42142  0.87090  1.0000
  C   C1246     1.0  0.64824  0.40917  0.87332  1.0000
  C   C1247     1.0  0.69999  0.36727  0.86329  1.0000
  C   C1248     1.0  0.71061  0.46107  0.85615  1.0000
  C   C1249     1.0  0.54805  0.05665  0.77714  1.0000
  C   C1250     1.0  0.55303  0.08621  0.80279  1.0000
  C   C1251     1.0  0.64045  0.41105  0.89195  1.0000
  C   C1252     1.0  0.70157  0.33641  0.85779  1.0000
  C   C1253     1.0  0.59407  0.04941  0.79888  1.0000
  H   H2220     1.0  0.69643  0.38259  0.83727  1.0000
  H   H2221     1.0  0.60339  0.03713  0.93125  1.0000
  H   H2222     1.0  0.53398  0.33702  0.81931  1.0000
  H   H2223     1.0  0.68293  0.43770  0.82919  1.0000
  H   H2224     1.0  0.71883  0.42251  0.84245  1.0000
  H   H2225     1.0  0.71909  0.41972  0.86507  1.0000
  H   H2226     1.0  0.68459  0.41359  0.88132  1.0000
  H   H2227     1.0  0.67125  0.44435  0.87349  1.0000
  H   H2228     1.0  0.64736  0.38673  0.86951  1.0000
  H   H2229     1.0  0.72100  0.22501  0.96420  1.0000
  H   H2230     1.0  0.71820  0.37450  0.86538  1.0000
  H   H2231     1.0  0.69043  0.36792  0.87564  1.0000
  H   H2232     1.0  0.55811  0.46544  0.78019  1.0000
  H   H2233     1.0  0.77915  0.33418  0.98722  1.0000
  H   H2234     1.0  0.88120  0.18755  0.92285  1.0000
  H   H2235     1.0  0.59942  0.39400  0.84733  1.0000
  H   H2236     1.0  0.69736  0.28392  0.95621  1.0000
  H   H2237     1.0  0.90598  0.18989  0.90858  1.0000
  H   H2238     1.0  0.55701  0.36775  0.78913  1.0000
  H   H2239     1.0  0.49022  0.41284  0.84441  1.0000
  H   H2240     1.0  0.64102  0.43321  0.89642  1.0000
  H   H2241     1.0  0.62212  0.40357  0.89323  1.0000
  H   H2242     1.0  0.74639  0.46069  0.86600  1.0000
  H   H2243     1.0  0.58570  0.10011  0.75470  1.0000
  H   H2244     1.0  0.55174  0.42318  0.84203  1.0000
  H   H2245     1.0  0.69966  0.40422  0.98494  1.0000
  H   H2246     1.0  0.96848  0.13067  0.81116  1.0000
  C   C1254     1.0  0.61872  0.03776  0.79563  1.0000
  H   H2247     1.0  0.97500  0.15917  0.82554  1.0000
  H   H2248     1.0  0.57781  0.42971  0.82961  1.0000
  H   H2249     1.0  0.90167  0.24226  0.90829  1.0000
  H   H2250     1.0  0.84542  0.10388  0.91925  1.0000
  H   H2251     1.0  0.71157  0.33428  0.84564  1.0000
  H   H2252     1.0  0.57412  0.41303  0.79688  1.0000
  C   C1255     1.0  0.55528  0.41738  0.79979  1.0000
  H   H2253     1.0  0.79272  0.19057  0.95639  1.0000
  H   H2254     1.0  0.60076  0.49168  0.83815  1.0000
  C   C1256     1.0  0.78178  0.14587  0.95686  1.0000
  H   H2255     1.0  0.54788  0.31560  0.78349  1.0000
  C   C1257     1.0  0.54289  0.36807  0.79904  1.0000
  H   H2256     1.0  0.96160  0.14396  0.77714  1.0000
  H   H2257     1.0  0.89676  0.18270  0.85958  1.0000
  H   H2258     1.0  0.95661  0.43053  0.80194  1.0000
  H   H2259     1.0  0.75545  0.19528  0.96110  1.0000
  H   H2260     1.0  0.52292  0.42358  0.82401  1.0000
  H   H2261     1.0  0.82518  0.08938  0.90394  1.0000
  H   H2262     1.0  0.72466  0.43239  0.93627  1.0000
  H   H2263     1.0  0.57919  0.38027  0.81946  1.0000
  H   H2264     1.0  0.59757  0.09263  0.79066  1.0000
  H   H2265     1.0  0.51884  0.37437  0.83906  1.0000
  H   H2266     1.0  0.53644  0.47996  0.86569  1.0000
  C   C1258     1.0  0.63504  0.43459  0.82056  1.0000
  H   H2267     1.0  0.93861  0.17156  0.85763  1.0000
  C   C1259     1.0  0.49416  0.40039  0.75486  1.0000
  H   H2268     1.0  0.72825  0.27675  0.95894  1.0000
  H   H2269     1.0  0.51828  0.31831  0.79178  1.0000
  N   N74       1.0  0.61852  0.08851  0.88864  1.0000
  C   C1260     1.0  0.64053  0.08251  0.87844  1.0000
  C   C1261     1.0  0.61741  0.11966  0.89241  1.0000
  C   C1262     1.0  0.61946  0.07159  0.90492  1.0000
  C   C1263     1.0  0.59685  0.08023  0.87887  1.0000
  C   C1264     1.0  0.59389  0.09400  0.86105  1.0000
  C   C1265     1.0  0.64241  0.05284  0.87021  1.0000
  C   C1266     1.0  0.59913  0.07700  0.91782  1.0000
  C   C1267     1.0  0.63687  0.13105  0.90440  1.0000
  C   C1268     1.0  0.63441  0.16285  0.90696  1.0000
  C   C1269     1.0  0.57327  0.08111  0.85145  1.0000
  C   C1270     1.0  0.66569  0.04918  0.86070  1.0000
  C   C1271     1.0  0.75953  0.17888  0.99229  1.0000
  H   H2270     1.0  0.65627  0.08481  0.88668  1.0000
  H   H2271     1.0  0.64290  0.09834  0.86814  1.0000
  H   H2272     1.0  0.61878  0.13185  0.88033  1.0000
  H   H2273     1.0  0.60003  0.12565  0.89788  1.0000
  H   H2274     1.0  0.63645  0.07474  0.91162  1.0000
  H   H2275     1.0  0.61916  0.04875  0.90194  1.0000
  H   H2276     1.0  0.59594  0.05688  0.87747  1.0000
  H   H2277     1.0  0.58079  0.08610  0.88616  1.0000
  H   H2278     1.0  0.60971  0.09128  0.85295  1.0000
  H   H2279     1.0  0.59032  0.11691  0.86248  1.0000
  H   H2280     1.0  0.64133  0.03625  0.88009  1.0000
  H   H2281     1.0  0.62822  0.04927  0.86081  1.0000
  H   H2282     1.0  0.58211  0.07047  0.91231  1.0000
  H   H2283     1.0  0.59793  0.09950  0.92154  1.0000
  H   H2284     1.0  0.63599  0.12116  0.91720  1.0000
  H   H2285     1.0  0.65454  0.12693  0.89894  1.0000
  H   H2286     1.0  0.64855  0.17036  0.91556  1.0000
  H   H2287     1.0  0.63607  0.17400  0.89456  1.0000
  H   H2288     1.0  0.61721  0.16814  0.91290  1.0000
  H   H2289     1.0  0.57076  0.09225  0.83917  1.0000
  H   H2290     1.0  0.57677  0.05853  0.84865  1.0000
  H   H2291     1.0  0.55682  0.08299  0.85903  1.0000
  H   H2292     1.0  0.87893  0.21481  0.88702  1.0000
  C   C1272     1.0  0.56824  0.47994  0.88089  1.0000
  H   H2293     1.0  0.85538  0.21019  0.90132  1.0000
  H   H2294     1.0  0.68379  0.32740  0.85615  1.0000
  C   C1273     1.0  0.56057  0.03798  0.76347  1.0000
  C   C1274     1.0  0.60252  0.06005  0.93418  1.0000
  H   H2295     1.0  0.54167  0.04193  0.78717  1.0000
  H   H2296     1.0  0.83500  0.18176  0.95408  1.0000
  H   H2297     1.0  0.81964  0.16404  0.93711  1.0000
  H   H2298     1.0  0.52469  0.43129  0.78472  1.0000
  N   N75       1.0  0.75106  0.35959  0.96074  1.0000
  C   C1275     1.0  0.77647  0.36444  0.95622  1.0000
  C   C1276     1.0  0.74861  0.36032  0.97995  1.0000
  C   C1277     1.0  0.74388  0.33145  0.95350  1.0000
  C   C1278     1.0  0.73541  0.38211  0.95328  1.0000
  C   C1279     1.0  0.74153  0.41289  0.95824  1.0000
  C   C1280     1.0  0.78191  0.36875  0.93696  1.0000
  H   H2299     1.0  0.71480  0.17436  0.97253  1.0000
  H   H2300     1.0  0.63933  0.47263  0.97969  1.0000
  H   H2301     1.0  0.66343  0.45161  0.84483  1.0000
  C   C1281     1.0  0.72414  0.43375  0.95040  1.0000
  C   C1282     1.0  0.80820  0.37232  0.93392  1.0000
  H   H2302     1.0  0.78739  0.34619  0.96042  1.0000
  H   H2303     1.0  0.78350  0.38291  0.96331  1.0000
  H   H2304     1.0  0.67090  0.04532  0.98445  1.0000
  H   H2305     1.0  0.74429  0.46522  0.84306  1.0000
  H   H2306     1.0  0.75679  0.31483  0.95707  1.0000
  H   H2307     1.0  0.74438  0.33181  0.93930  1.0000
  H   H2308     1.0  0.73511  0.38054  0.93910  1.0000
  H   H2309     1.0  0.71691  0.37880  0.95730  1.0000
  H   H2310     1.0  0.75932  0.41858  0.95371  1.0000
  H   H2311     1.0  0.74077  0.41603  0.97227  1.0000
  H   H2312     1.0  0.77629  0.35035  0.92932  1.0000
  H   H2313     1.0  0.77299  0.38780  0.93192  1.0000
  H   H2314     1.0  0.72491  0.12585  0.96334  1.0000
  S   S284      1.0  0.97646  0.28761  0.81909  1.0000
  C   C1283     1.0  0.53702  0.31543  0.79531  1.0000
  C   C1284     1.0  0.68071  0.40628  0.98799  1.0000
  C   C1285     1.0  0.56706  0.10657  0.75588  1.0000
  H   H2315     1.0  0.72982  0.36174  0.98376  1.0000
  H   H2316     1.0  0.72881  0.45555  0.95420  1.0000
  H   H2317     1.0  0.66698  0.02745  0.85547  1.0000
  H   H2318     1.0  0.70338  0.46797  0.86861  1.0000
  C   C1286     1.0  0.97590  0.43341  0.80103  1.0000
  H   H2319     1.0  0.81155  0.37525  0.92005  1.0000
  H   H2320     1.0  0.81481  0.39107  0.94088  1.0000
  H   H2321     1.0  0.81799  0.35327  0.93817  1.0000
  N   N76       1.0  0.86668  0.17198  0.88848  1.0000
  C   C1287     1.0  0.88899  0.15748  0.88270  1.0000
  C   C1288     1.0  0.85456  0.15375  0.90150  1.0000
  C   C1289     1.0  0.85141  0.17675  0.87302  1.0000
  C   C1290     1.0  0.87182  0.20005  0.89664  1.0000
  C   C1291     1.0  0.88885  0.19952  0.91206  1.0000
  C   C1292     1.0  0.90567  0.17534  0.87134  1.0000
  C   C1293     1.0  0.82652  0.18881  0.87658  1.0000
  C   C1294     1.0  0.84438  0.12564  0.89472  1.0000
  C   C1295     1.0  0.83256  0.10924  0.90911  1.0000
  C   C1296     1.0  0.89361  0.22934  0.91853  1.0000
  C   C1297     1.0  0.92715  0.15822  0.86573  1.0000
  C   C1298     1.0  0.81203  0.19005  0.86019  1.0000
  H   H2322     1.0  0.88478  0.13822  0.87521  1.0000
  H   H2323     1.0  0.89922  0.14977  0.89386  1.0000
  H   H2324     1.0  0.86692  0.14800  0.91192  1.0000
  H   H2325     1.0  0.84011  0.16568  0.90795  1.0000
  H   H2326     1.0  0.84965  0.15697  0.86547  1.0000
  C   C1299     1.0  0.52157  0.40324  0.81701  1.0000
  H   H2327     1.0  0.69263  0.21195  0.95802  1.0000
  C   C1300     1.0  0.54281  0.42353  0.78252  1.0000
  C   C1301     1.0  0.55596  0.44600  0.77242  1.0000
  H   H2328     1.0  0.51525  0.08057  0.79835  1.0000
  H   H2329     1.0  0.53907  0.29455  0.80151  1.0000
  C   C1302     1.0  0.49053  0.14911  0.75299  1.0000
  H   H2330     1.0  0.70547  0.33451  0.95180  1.0000
  H   H2331     1.0  0.62281  0.02123  0.80521  1.0000
  C   C1303     1.0  0.97733  0.35735  0.76200  1.0000
  C   C1304     1.0  0.59157  0.48832  0.85006  1.0000
  H   H2332     1.0  0.68071  0.05257  0.86948  1.0000
  H   H2333     1.0  0.52429  0.11696  0.79855  1.0000
  C   C1305     1.0  0.47985  0.34417  0.75842  1.0000
  C   C1306     1.0  0.54475  0.33867  0.80760  1.0000
  C   C1307     1.0  0.58301  0.40433  0.85182  1.0000
  H   H2334     1.0  0.71088  0.32409  0.86779  1.0000
  H   H2335     1.0  0.74303  0.19118  0.99087  1.0000
  H   H2336     1.0  0.70105  0.47229  0.84587  1.0000
  C   C1308     1.0  0.76002  0.33547  0.98980  1.0000
  H   H2337     1.0  0.71567  0.32226  0.97223  1.0000
  C   C1309     1.0  0.56788  0.41341  0.83668  1.0000
  C   C1310     1.0  0.56220  0.38804  0.82482  1.0000
  H   H2338     1.0  0.54179  0.40463  0.77421  1.0000
  H   H2339     1.0  0.68332  0.08007  0.98516  1.0000
  H   H2340     1.0  0.56408  0.10245  0.80911  1.0000
  C   C1311     1.0  0.55876  0.10718  0.77471  1.0000
  C   C1312     1.0  0.94285  0.46574  0.75473  1.0000
  H   H2341     1.0  0.50106  0.10449  0.82411  1.0000
  H   H2342     1.0  0.56757  0.12507  0.78129  1.0000
  C   C1313     1.0  0.71527  0.29084  0.95264  1.0000
  C   C1314     1.0  0.48104  0.39300  0.76930  1.0000
  C   C1315     1.0  0.73614  0.47068  0.85555  1.0000
  H   H2343     1.0  0.58145  0.03177  0.79794  1.0000
  H   H2344     1.0  0.65871  0.39920  0.82186  1.0000
  H   H2345     1.0  0.63194  0.05474  0.79678  1.0000
  H   H2346     1.0  0.59352  0.05736  0.81226  1.0000
  H   H2347     1.0  0.53189  0.06536  0.77128  1.0000
  H   H2348     1.0  0.97608  0.43974  0.77401  1.0000
  H   H2349     1.0  0.77182  0.13602  0.98805  1.0000
  H   H2350     1.0  0.74104  0.14034  0.98840  1.0000
  H   H2351     1.0  0.64536  0.44642  0.81093  1.0000
  H   H2352     1.0  0.71005  0.16574  0.95042  1.0000
  H   H2353     1.0  0.65445  0.07373  0.99407  1.0000
  H   H2354     1.0  0.77384  0.19175  0.98699  1.0000
  H   H2355     1.0  0.54589  0.45144  0.76074  1.0000
  C   C1316     1.0  0.97250  0.13614  0.76681  1.0000
  H   H2356     1.0  0.95335  0.47981  0.79221  1.0000
  H   H2357     1.0  0.57574  0.15127  0.75436  1.0000
  Fe  Fe144     1.0  0.97595  0.28919  0.79008  1.0000
  H   H2358     1.0  0.49960  0.42200  0.75324  1.0000
  C   C1317     1.0  0.59333  0.99712  0.84982  1.0000
  S   S285      1.0  0.68702  0.49171  0.97156  1.0000
  S   S286      1.0  0.55178  0.48710  0.82981  1.0000
  S   S287      1.0  0.71034  0.00356  0.93025  1.0000
  C   C1318     1.0  0.56689  0.48613  0.84991  1.0000
  H   H2359     1.0  0.53821  0.00123  0.86622  1.0000
  S   S288      1.0  0.55335  0.00299  0.83000  1.0000
  C   C1319     1.0  0.48505  0.14156  0.76996  1.0000
  Fe  Fe145     1.0  0.48374  0.02520  0.79228  1.0000
  Fe  Fe146     1.0  0.67613  0.49188  0.94345  1.0000
  S   S289      1.0  0.67990  0.00356  0.89495  1.0000
  Fe  Fe147     1.0  0.64580  0.48812  0.91055  1.0000
  C   C1320     1.0  0.59288  0.48255  0.88109  1.0000
  C   C1321     1.0  0.54296  0.02102  0.75301  1.0000
  H   H2360     1.0  0.57108  0.05036  0.75434  1.0000
  H   H2361     1.0  0.62334  0.48880  0.86533  1.0000
  C   C1322     1.0  0.60446  0.48674  0.86549  1.0000
  H   H2362     1.0  0.48165  0.15799  0.77926  1.0000
  C   C1323     1.0  0.48347  0.11299  0.77500  1.0000
  C   C1324     1.0  0.67145  0.48711  0.99097  1.0000
  H   H2363     1.0  0.60258  0.99727  0.83774  1.0000
  Fe  Fe148     1.0  0.51459  0.99944  0.82128  1.0000
  S   S290      1.0  0.51168  0.48973  0.79102  1.0000
  C   C1325     1.0  0.57003  0.99651  0.88111  1.0000
  C   C1326     1.0  0.96193  0.37467  0.75253  1.0000
  C   C1327     1.0  0.59471  0.99412  0.88102  1.0000
  H   H2364     1.0  0.56079  0.99632  0.89320  1.0000
  H   H2365     1.0  0.94336  0.37015  0.75270  1.0000
  C   C1328     1.0  0.60625  0.99442  0.86518  1.0000
  Fe  Fe149     1.0  0.47955  0.46332  0.79532  1.0000
  C   C1329     1.0  0.65420  0.98098  0.02566  1.0000
  Fe  Fe150     1.0  0.96043  0.72558  0.18561  1.0000
  H   H2366     1.0  0.85625  0.73007  0.20104  1.0000
  S   S291      1.0  0.93333  0.70969  0.16608  1.0000
  H   H2367     1.0  0.70049  0.58066  0.03434  1.0000
  H   H2368     1.0  0.70738  0.97683  0.00583  1.0000
  S   S292      1.0  0.95185  0.73327  0.21325  1.0000
  H   H2369     1.0  0.87526  0.69456  0.18195  1.0000
  C   C1330     1.0  0.55494  0.97680  0.15664  1.0000
  C   C1331     1.0  0.71423  0.56576  0.02970  1.0000
  H   H2370     1.0  0.85766  0.72783  0.02697  1.0000
  H   H2371     1.0  0.93323  0.81455  0.16132  1.0000
  Fe  Fe151     1.0  0.65338  0.98273  0.11056  1.0000
  C   C1332     1.0  0.72675  0.73964  0.13223  1.0000
  H   H2372     1.0  0.49740  0.76292  0.22614  1.0000
  H   H2373     1.0  0.73425  0.70976  0.11219  1.0000
  Fe  Fe152     1.0  0.82021  0.73769  0.10293  1.0000
  S   S293      1.0  0.78417  0.73487  0.11491  1.0000
  S   S294      1.0  0.85203  0.75700  0.11688  1.0000
  Fe  Fe153     1.0  0.80189  0.71865  0.06794  1.0000
  S   S295      1.0  0.76523  0.71425  0.07766  1.0000
  S   S296      1.0  0.80709  0.70455  0.04034  1.0000
  Fe  Fe154     1.0  0.77052  0.75565  0.09105  1.0000
  S   S297      1.0  0.73742  0.78297  0.08834  1.0000
  Fe  Fe155     1.0  0.78079  0.69366  0.10057  1.0000
  S   S298      1.0  0.76218  0.65695  0.11372  1.0000
  S   S299      1.0  0.80653  0.76144  0.07971  1.0000
  S   S300      1.0  0.81778  0.69502  0.09020  1.0000
  H   H2374     1.0  0.66408  0.87778  0.00584  1.0000
  C   C1333     1.0  0.57436  0.97748  0.16757  1.0000
  C   C1334     1.0  0.59738  0.97946  0.16083  1.0000
  H   H2375     1.0  0.72240  0.90334  0.03639  1.0000
  H   H2376     1.0  0.48841  0.84340  0.19321  1.0000
  H   H2377     1.0  0.70092  0.50031  0.00617  1.0000
  Fe  Fe156     1.0  0.69512  0.94862  0.09517  1.0000
  S   S301      1.0  0.72462  0.91587  0.09882  1.0000
  Fe  Fe157     1.0  0.68608  0.51722  0.08752  1.0000
  S   S302      1.0  0.70987  0.55308  0.07830  1.0000
  S   S303      1.0  0.65575  0.94559  0.09235  1.0000
  S   S304      1.0  0.64757  0.52132  0.08155  1.0000
  C   C1335     1.0  0.74793  0.62807  0.10365  1.0000
  C   C1336     1.0  0.73651  0.60791  0.11381  1.0000
  C   C1337     1.0  0.72478  0.58483  0.10634  1.0000
  C   C1338     1.0  0.72427  0.58169  0.08856  1.0000
  C   C1339     1.0  0.73574  0.60185  0.07841  1.0000
  C   C1340     1.0  0.74751  0.62486  0.08589  1.0000
  H   H2378     1.0  0.73679  0.61010  0.12757  1.0000
  H   H2379     1.0  0.71617  0.56947  0.11433  1.0000
  H   H2380     1.0  0.73564  0.59955  0.06466  1.0000
  H   H2381     1.0  0.75653  0.63991  0.07793  1.0000
  C   C1341     1.0  0.73371  0.81969  0.09209  1.0000
  C   C1342     1.0  0.75140  0.83604  0.09934  1.0000
  C   C1343     1.0  0.74814  0.86535  0.10139  1.0000
  C   C1344     1.0  0.72705  0.87865  0.09650  1.0000
  C   C1345     1.0  0.70916  0.86218  0.08955  1.0000
  C   C1346     1.0  0.71251  0.83287  0.08735  1.0000
  H   H2382     1.0  0.76767  0.82618  0.10324  1.0000
  H   H2383     1.0  0.76204  0.87785  0.10686  1.0000
  H   H2384     1.0  0.69283  0.87207  0.08578  1.0000
  H   H2385     1.0  0.69863  0.82040  0.08184  1.0000
  C   C1347     1.0  0.71834  0.68247  0.05430  1.0000
  H   H2386     1.0  0.70467  0.66380  0.11345  1.0000
  H   H2387     1.0  0.50435  0.56792  0.16063  1.0000
  H   H2388     1.0  0.62143  0.98742  0.01250  1.0000
  H   H2389     1.0  0.57954  0.53992  0.14745  1.0000
  H   H2390     1.0  0.93741  0.72118  0.09773  1.0000
  C   C1348     1.0  0.80449  0.72688  0.02238  1.0000
  C   C1349     1.0  0.80997  0.75550  0.02330  1.0000
  H   H2391     1.0  0.81349  0.82985  0.09112  1.0000
  H   H2392     1.0  0.81512  0.76457  0.03540  1.0000
  H   H2393     1.0  0.71159  0.67458  0.04189  1.0000
  H   H2394     1.0  0.81299  0.81351  0.06087  1.0000
  H   H2395     1.0  0.74249  0.81017  0.02882  1.0000
  C   C1350     1.0  0.57676  0.51747  0.14855  1.0000
  H   H2396     1.0  0.62480  0.73610  0.08288  1.0000
  H   H2397     1.0  0.75825  0.85445  0.01334  1.0000
  C   C1351     1.0  0.49963  0.87423  0.24868  1.0000
  H   H2398     1.0  0.91658  0.70518  0.11193  1.0000
  S   S305      1.0  0.64063  0.97938  0.04608  1.0000
  H   H2399     1.0  0.54437  0.97701  0.13021  1.0000
  H   H2400     1.0  0.68936  0.97441  0.03470  1.0000
  H   H2401     1.0  0.74280  0.73447  0.13962  1.0000
  H   H2402     1.0  0.71255  0.74523  0.14140  1.0000
  H   H2403     1.0  0.73051  0.75812  0.12401  1.0000
  H   H2404     1.0  0.73229  0.80792  0.05047  1.0000
  C   C1352     1.0  0.91120  0.72327  0.15213  1.0000
  C   C1353     1.0  0.91072  0.75135  0.14677  1.0000
  C   C1354     1.0  0.89253  0.76118  0.13604  1.0000
  C   C1355     1.0  0.87463  0.74310  0.13033  1.0000
  C   C1356     1.0  0.87529  0.71492  0.13552  1.0000
  C   C1357     1.0  0.89348  0.70511  0.14627  1.0000
  H   H2405     1.0  0.92446  0.76544  0.15076  1.0000
  H   H2406     1.0  0.89235  0.78296  0.13202  1.0000
  H   H2407     1.0  0.86176  0.70067  0.13125  1.0000
  H   H2408     1.0  0.89368  0.68327  0.15019  1.0000
  H   H2409     1.0  0.72176  0.68224  0.08867  1.0000
  C   C1358     1.0  0.86472  0.70805  0.02127  1.0000
  C   C1359     1.0  0.70684  0.69606  0.08474  1.0000
  H   H2410     1.0  0.64074  0.72652  0.06361  1.0000
  S   S306      1.0  0.47971  0.57040  0.22418  1.0000
  H   H2411     1.0  0.67563  0.67303  0.11989  1.0000
  H   H2412     1.0  0.89741  0.72685  0.01443  1.0000
  H   H2413     1.0  0.77332  0.82072  0.01282  1.0000
  C   C1360     1.0  0.66289  0.73669  0.08543  1.0000
  H   H2414     1.0  0.76552  0.90153  0.04011  1.0000
  C   C1361     1.0  0.48168  0.62335  0.23945  1.0000
  H   H2415     1.0  0.91686  0.54773  0.23976  1.0000
  H   H2416     1.0  0.51846  0.72005  0.23532  1.0000
  H   H2417     1.0  0.88044  0.72724  0.21573  1.0000
  S   S307      1.0  0.69287  0.98408  0.11441  1.0000
  S   S308      1.0  0.96581  0.80813  0.22674  1.0000
  C   C1362     1.0  0.64024  0.98519  0.01106  1.0000
  H   H2418     1.0  0.73875  0.59754  0.00642  1.0000
  H   H2419     1.0  0.81475  0.79394  0.00911  1.0000
  H   H2420     1.0  0.63933  0.76277  0.07046  1.0000
  H   H2421     1.0  0.73203  0.93003  0.05116  1.0000
  H   H2422     1.0  0.89195  0.69474  0.00369  1.0000
  C   C1363     1.0  0.64052  0.74064  0.07496  1.0000
  N   N77       1.0  0.68890  0.69790  0.09898  1.0000
  H   H2423     1.0  0.95709  0.81515  0.17640  1.0000
  H   H2424     1.0  0.66229  0.75225  0.09608  1.0000
  C   C1364     1.0  0.69657  0.72012  0.11167  1.0000
  H   H2425     1.0  0.94608  0.56964  0.22285  1.0000
  H   H2426     1.0  0.82751  0.86220  0.08454  1.0000
  C   C1365     1.0  0.88346  0.71465  0.00787  1.0000
  H   H2427     1.0  0.65182  0.70483  0.10334  1.0000
  H   H2428     1.0  0.97336  0.77875  0.14620  1.0000
  H   H2429     1.0  0.92882  0.76015  0.24485  1.0000
  N   N78       1.0  0.88430  0.77905  0.19594  1.0000
  C   C1366     1.0  0.85864  0.78595  0.19342  1.0000
  C   C1367     1.0  0.89060  0.78420  0.21440  1.0000
  C   C1368     1.0  0.89849  0.79742  0.18415  1.0000
  C   C1369     1.0  0.88940  0.74865  0.19170  1.0000
  C   C1370     1.0  0.87543  0.72653  0.20204  1.0000
  C   C1371     1.0  0.84794  0.77688  0.17599  1.0000
  C   C1372     1.0  0.92555  0.79528  0.18600  1.0000
  C   C1373     1.0  0.89031  0.81541  0.22034  1.0000
  C   C1374     1.0  0.88069  0.69676  0.19552  1.0000
  H   H2430     1.0  0.94070  0.85191  0.24502  1.0000
  C   C1375     1.0  0.82241  0.78654  0.17449  1.0000
  H   H2431     1.0  0.87249  0.69526  0.03170  1.0000
  H   H2432     1.0  0.85565  0.80906  0.19462  1.0000
  H   H2433     1.0  0.84779  0.77650  0.20374  1.0000
  H   H2434     1.0  0.87826  0.77284  0.22295  1.0000
  H   H2435     1.0  0.90821  0.77514  0.21734  1.0000
  H   H2436     1.0  0.89318  0.81992  0.18558  1.0000
  H   H2437     1.0  0.89468  0.79221  0.17060  1.0000
  H   H2438     1.0  0.88647  0.74463  0.17792  1.0000
  H   H2439     1.0  0.90821  0.74364  0.19383  1.0000
  C   C1376     1.0  0.69810  0.68566  0.06701  1.0000
  C   C1377     1.0  0.80984  0.77203  0.00838  1.0000
  H   H2440     1.0  0.85766  0.78606  0.16509  1.0000
  H   H2441     1.0  0.84813  0.75363  0.17450  1.0000
  H   H2442     1.0  0.93196  0.77426  0.18178  1.0000
  H   H2443     1.0  0.93126  0.79866  0.19934  1.0000
  H   H2444     1.0  0.90346  0.82800  0.21328  1.0000
  C   C1378     1.0  0.67844  0.97794  0.02363  1.0000
  H   H2445     1.0  0.65839  0.69161  0.08284  1.0000
  H   H2446     1.0  0.73156  0.57245  0.03469  1.0000
  H   H2447     1.0  0.87276  0.82506  0.21839  1.0000
  H   H2448     1.0  0.50848  0.50009  0.09562  1.0000
  C   C1379     1.0  0.67710  0.89455  0.00843  1.0000
  C   C1380     1.0  0.51090  0.55987  0.14814  1.0000
  H   H2449     1.0  0.81526  0.77962  0.16196  1.0000
  H   H2450     1.0  0.81157  0.77714  0.18479  1.0000
  H   H2451     1.0  0.82110  0.80987  0.17519  1.0000
  H   H2452     1.0  0.91415  0.80940  0.24178  1.0000
  C   C1381     1.0  0.93457  0.70321  0.10654  1.0000
  S   S309      1.0  0.61176  0.51315  0.12412  1.0000
  H   H2453     1.0  0.58488  0.98046  0.11845  1.0000
  H   H2454     1.0  0.53011  0.51403  0.13082  1.0000
  H   H2455     1.0  0.51047  0.53400  0.11797  1.0000
  H   H2456     1.0  0.48430  0.63081  0.22655  1.0000
  H   H2457     1.0  0.88337  0.80599  0.24719  1.0000
  H   H2458     1.0  0.75961  0.76213  0.03060  1.0000
  H   H2459     1.0  0.87086  0.68119  0.20324  1.0000
  H   H2460     1.0  0.49654  0.78286  0.24499  1.0000
  H   H2461     1.0  0.75077  0.75986  0.05277  1.0000
  C   C1382     1.0  0.68720  0.67032  0.10848  1.0000
  C   C1383     1.0  0.48870  0.73892  0.24880  1.0000
  H   H2462     1.0  0.95011  0.72377  0.12799  1.0000
  H   H2463     1.0  0.71827  0.89880  0.05918  1.0000
  C   C1384     1.0  0.95250  0.70358  0.12104  1.0000
  C   C1385     1.0  0.71980  0.71426  0.12132  1.0000
  H   H2464     1.0  0.94814  0.68597  0.12972  1.0000
  H   H2465     1.0  0.89974  0.69191  0.19655  1.0000
  H   H2466     1.0  0.93573  0.68312  0.09927  1.0000
  H   H2467     1.0  0.72895  0.76223  0.03625  1.0000
  H   H2468     1.0  0.85002  0.69602  0.01563  1.0000
  H   H2469     1.0  0.69325  0.63642  0.09000  1.0000
  H   H2470     1.0  0.82713  0.84518  0.05420  1.0000
  H   H2471     1.0  0.84239  0.82878  0.08185  1.0000
  H   H2472     1.0  0.66325  0.64879  0.09022  1.0000
  C   C1386     1.0  0.93026  0.51718  0.21170  1.0000
  H   H2473     1.0  0.95672  0.60387  0.20047  1.0000
  H   H2474     1.0  0.73157  0.66718  0.05907  1.0000
  H   H2475     1.0  0.71028  0.54462  0.03501  1.0000
  C   C1387     1.0  0.67873  0.64431  0.09826  1.0000
  C   C1388     1.0  0.77558  0.84383  0.01415  1.0000
  H   H2476     1.0  0.93268  0.83890  0.17922  1.0000
  H   H2477     1.0  0.51239  0.88470  0.24071  1.0000
  H   H2478     1.0  0.65565  0.62581  0.11740  1.0000
  C   C1389     1.0  0.96422  0.56226  0.22536  1.0000
  H   H2479     1.0  0.48310  0.66525  0.25061  1.0000
  C   C1390     1.0  0.55941  0.50743  0.15993  1.0000
  H   H2480     1.0  0.54909  0.52210  0.16746  1.0000
  H   H2481     1.0  0.68918  0.66514  0.06783  1.0000
  C   C1391     1.0  0.68859  0.97923  0.00722  1.0000
  C   C1392     1.0  0.66484  0.70636  0.09273  1.0000
  H   H2482     1.0  0.71472  0.71712  0.08240  1.0000
  H   H2483     1.0  0.68613  0.61582  0.11952  1.0000
  H   H2484     1.0  0.71801  0.69620  0.13018  1.0000
  C   C1393     1.0  0.67190  0.62032  0.11024  1.0000
  C   C1394     1.0  0.79862  0.71507  0.00648  1.0000
  H   H2485     1.0  0.66866  0.60087  0.10267  1.0000
  H   H2486     1.0  0.50522  0.57467  0.13797  1.0000
  H   H2487     1.0  0.68264  0.72372  0.12149  1.0000
  H   H2488     1.0  0.69913  0.74071  0.10515  1.0000
  H   H2489     1.0  0.67816  0.74186  0.07721  1.0000
  H   H2490     1.0  0.91756  0.51230  0.22201  1.0000
  H   H2491     1.0  0.72688  0.70310  0.05207  1.0000
  H   H2492     1.0  0.68557  0.70100  0.06141  1.0000
  N   N79       1.0  0.96467  0.53207  0.23142  1.0000
  N   N80       1.0  0.77514  0.84383  0.04735  1.0000
  C   C1395     1.0  0.75241  0.86024  0.04897  1.0000
  C   C1396     1.0  0.77050  0.81246  0.04854  1.0000
  C   C1397     1.0  0.79055  0.85203  0.06221  1.0000
  C   C1398     1.0  0.78818  0.85065  0.03112  1.0000
  C   C1399     1.0  0.93778  0.81734  0.17501  1.0000
  C   C1400     1.0  0.75436  0.89278  0.05038  1.0000
  C   C1401     1.0  0.81449  0.83630  0.06354  1.0000
  C   C1402     1.0  0.74668  0.80162  0.04159  1.0000
  C   C1403     1.0  0.74658  0.76949  0.04023  1.0000
  H   H2493     1.0  0.49529  0.80110  0.21088  1.0000
  C   C1404     1.0  0.73026  0.90696  0.04916  1.0000
  C   C1405     1.0  0.82506  0.83959  0.08136  1.0000
  H   H2494     1.0  0.74284  0.85325  0.06062  1.0000
  H   H2495     1.0  0.74049  0.85569  0.03817  1.0000
  H   H2496     1.0  0.78472  0.80030  0.04204  1.0000
  H   H2497     1.0  0.77095  0.80538  0.06212  1.0000
  H   H2498     1.0  0.78082  0.84905  0.07437  1.0000
  H   H2499     1.0  0.79503  0.87477  0.06175  1.0000
  H   H2500     1.0  0.79347  0.87314  0.03098  1.0000
  H   H2501     1.0  0.80495  0.83855  0.03057  1.0000
  C   C1406     1.0  0.59058  0.49886  0.13860  1.0000
  C   C1407     1.0  0.72044  0.59342  0.00233  1.0000
  H   H2502     1.0  0.76176  0.89883  0.06298  1.0000
  H   H2503     1.0  0.57166  0.97650  0.18123  1.0000
  H   H2504     1.0  0.92759  0.53912  0.20732  1.0000
  C   C1408     1.0  0.95912  0.85542  0.24728  1.0000
  H   H2505     1.0  0.69704  0.55670  0.00614  1.0000
  C   C1409     1.0  0.51347  0.72648  0.24850  1.0000
  C   C1410     1.0  0.71448  0.56437  0.01016  1.0000
  H   H2506     1.0  0.69139  0.88590  0.01651  1.0000
  C   C1411     1.0  0.97537  0.59959  0.20372  1.0000
  C   C1412     1.0  0.60155  0.98072  0.14306  1.0000
  H   H2507     1.0  0.53038  0.55921  0.14855  1.0000
  H   H2508     1.0  0.61215  0.98016  0.16948  1.0000
  H   H2509     1.0  0.89572  0.84024  0.24331  1.0000
  H   H2510     1.0  0.79463  0.69286  0.00566  1.0000
  Fe  Fe158     1.0  0.64074  0.49659  0.10576  1.0000
  Fe  Fe159     1.0  0.65997  0.97855  0.07165  1.0000
  C   C1413     1.0  0.95555  0.51193  0.21810  1.0000
  Fe  Fe160     1.0  0.50080  0.97937  0.18814  1.0000
  H   H2511     1.0  0.54826  0.49591  0.10935  1.0000
  C   C1414     1.0  0.51121  0.51759  0.12812  1.0000
  C   C1415     1.0  0.95103  0.52943  0.24798  1.0000
  C   C1416     1.0  0.89623  0.81776  0.23933  1.0000
  C   C1417     1.0  0.92927  0.54891  0.25055  1.0000
  S   S310      1.0  0.63109  0.98522  0.13549  1.0000
  H   H2512     1.0  0.97814  0.67847  0.14635  1.0000
  C   C1418     1.0  0.50103  0.53050  0.14486  1.0000
  S   S311      1.0  0.69907  0.97872  0.07330  1.0000
  S   S312      1.0  0.96951  0.67189  0.24161  1.0000
  H   H2513     1.0  0.92594  0.72307  0.24921  1.0000
  H   H2514     1.0  0.66817  0.91180  0.01562  1.0000
  H   H2515     1.0  0.72814  0.54870  0.00655  1.0000
  H   H2516     1.0  0.50602  0.51717  0.15591  1.0000
  C   C1419     1.0  0.97878  0.56888  0.20911  1.0000
  C   C1420     1.0  0.58215  0.97958  0.13212  1.0000
  H   H2517     1.0  0.48946  0.85219  0.21556  1.0000
  C   C1421     1.0  0.55912  0.97761  0.13887  1.0000
  C   C1422     1.0  0.97583  0.83727  0.23959  1.0000
  S   S313      1.0  0.50802  0.98096  0.21663  1.0000
  C   C1423     1.0  0.97788  0.70083  0.11400  1.0000
  S   S314      1.0  0.52517  0.97663  0.16434  1.0000
  H   H2518     1.0  0.70927  0.60960  0.00885  1.0000
  H   H2519     1.0  0.48165  0.53241  0.14456  1.0000
  C   C1424     1.0  0.48691  0.76615  0.23792  1.0000
  H   H2520     1.0  0.94543  0.50723  0.24995  1.0000
  H   H2521     1.0  0.90612  0.50147  0.19255  1.0000
  H   H2522     1.0  0.96751  0.51122  0.20685  1.0000
  H   H2523     1.0  0.97342  0.55537  0.19824  1.0000
  C   C1425     1.0  0.92453  0.49779  0.19666  1.0000
  H   H2524     1.0  0.97074  0.57629  0.23571  1.0000
  H   H2525     1.0  0.93629  0.50213  0.18565  1.0000
  S   S315      1.0  0.67937  0.49503  0.11263  1.0000
  C   C1426     1.0  0.47922  0.84094  0.20564  1.0000
  C   C1427     1.0  0.55300  0.65469  0.34194  1.0000
  H   H2526     1.0  0.71233  0.85608  0.47106  1.0000
  C   C1428     1.0  0.72686  0.81429  0.47091  1.0000
  H   H2527     1.0  0.75679  0.94141  0.46360  1.0000
  H   H2528     1.0  0.53058  0.59914  0.34498  1.0000
  H   H2529     1.0  0.92923  0.58176  0.36102  1.0000
  Fe  Fe161     1.0  0.50228  0.73552  0.32888  1.0000
  C   C1429     1.0  0.94391  0.53919  0.36083  1.0000
  S   S316      1.0  0.52644  0.72898  0.35240  1.0000
  H   H2530     1.0  0.55145  0.67809  0.34155  1.0000
  H   H2531     1.0  0.68859  0.62896  0.34373  1.0000
  C   C1430     1.0  0.79010  0.56460  0.46429  1.0000
  C   C1431     1.0  0.77310  0.65757  0.45799  1.0000
  S   S317      1.0  0.51032  0.73122  0.30075  1.0000
  H   H2532     1.0  0.57944  0.81450  0.41117  1.0000
  H   H2533     1.0  0.63186  0.67815  0.31303  1.0000
  C   C1432     1.0  0.93185  0.56396  0.35196  1.0000
  H   H2534     1.0  0.94699  0.77456  0.28161  1.0000
  H   H2535     1.0  0.83321  0.57201  0.44694  1.0000
  C   C1433     1.0  0.96593  0.87823  0.25788  1.0000
  Fe  Fe162     1.0  0.77540  0.95106  0.40739  1.0000
  S   S318      1.0  0.76273  0.90857  0.39704  1.0000
  Fe  Fe163     1.0  0.76792  0.51951  0.40892  1.0000
  S   S319      1.0  0.73854  0.55216  0.40540  1.0000
  S   S320      1.0  0.81253  0.95326  0.41706  1.0000
  S   S321      1.0  0.80051  0.52230  0.42503  1.0000
  Fe  Fe164     1.0  0.65876  0.72699  0.44330  1.0000
  S   S322      1.0  0.69610  0.74134  0.44284  1.0000
  S   S323      1.0  0.64095  0.71413  0.46809  1.0000
  Fe  Fe165     1.0  0.65268  0.73247  0.40419  1.0000
  S   S324      1.0  0.69015  0.74731  0.40152  1.0000
  S   S325      1.0  0.63370  0.72911  0.37813  1.0000
  Fe  Fe166     1.0  0.69959  0.71256  0.42001  1.0000
  S   S326      1.0  0.73257  0.68516  0.41712  1.0000
  Fe  Fe167     1.0  0.68350  0.77465  0.42450  1.0000
  S   S327      1.0  0.68930  0.82186  0.42883  1.0000
  S   S328      1.0  0.66283  0.69616  0.42139  1.0000
  S   S329      1.0  0.64556  0.76181  0.42633  1.0000
  C   C1434     1.0  0.65079  0.72798  0.48785  1.0000
  H   H2536     1.0  0.73614  0.71091  0.38096  1.0000
  C   C1435     1.0  0.66983  0.74633  0.48861  1.0000
  H   H2537     1.0  0.51556  0.55231  0.30870  1.0000
  H   H2538     1.0  0.67840  0.75288  0.47699  1.0000
  C   C1436     1.0  0.52650  0.65542  0.31765  1.0000
  C   C1437     1.0  0.71175  0.58539  0.36157  1.0000
  C   C1438     1.0  0.81327  0.49465  0.48609  1.0000
  C   C1439     1.0  0.76049  0.89956  0.49816  1.0000
  H   H2539     1.0  0.73086  0.89823  0.46015  1.0000
  C   C1440     1.0  0.74304  0.88441  0.40670  1.0000
  C   C1441     1.0  0.74231  0.85648  0.40063  1.0000
  C   C1442     1.0  0.72641  0.83684  0.40750  1.0000
  C   C1443     1.0  0.71071  0.84509  0.42036  1.0000
  C   C1444     1.0  0.71138  0.87302  0.42643  1.0000
  C   C1445     1.0  0.72754  0.89252  0.41973  1.0000
  H   H2540     1.0  0.75418  0.85000  0.39052  1.0000
  H   H2541     1.0  0.72616  0.81546  0.40273  1.0000
  H   H2542     1.0  0.69916  0.87972  0.43624  1.0000
  H   H2543     1.0  0.72766  0.91402  0.42433  1.0000
  C   C1446     1.0  0.73777  0.58870  0.41037  1.0000
  C   C1447     1.0  0.75786  0.60540  0.40978  1.0000
  C   C1448     1.0  0.75598  0.63485  0.41198  1.0000
  C   C1449     1.0  0.73413  0.64787  0.41514  1.0000
  C   C1450     1.0  0.71422  0.63101  0.41646  1.0000
  C   C1451     1.0  0.71599  0.60165  0.41387  1.0000
  H   H2544     1.0  0.77471  0.59580  0.40697  1.0000
  H   H2545     1.0  0.77153  0.64769  0.41098  1.0000
  H   H2546     1.0  0.69745  0.64069  0.41930  1.0000
  H   H2547     1.0  0.70035  0.58891  0.41441  1.0000
  C   C1452     1.0  0.60366  0.73131  0.37149  1.0000
  C   C1453     1.0  0.59855  0.73495  0.35401  1.0000
  C   C1454     1.0  0.57515  0.73505  0.34795  1.0000
  C   C1455     1.0  0.55639  0.73127  0.35930  1.0000
  C   C1456     1.0  0.56153  0.72786  0.37679  1.0000
  C   C1457     1.0  0.58490  0.72807  0.38288  1.0000
  H   H2548     1.0  0.61282  0.73755  0.34503  1.0000
  H   H2549     1.0  0.57164  0.73769  0.33447  1.0000
  H   H2550     1.0  0.54727  0.72487  0.38574  1.0000
  H   H2551     1.0  0.58836  0.72512  0.39634  1.0000
  C   C1458     1.0  0.87339  0.50014  0.34684  1.0000
  H   H2552     1.0  0.76779  0.92121  0.49739  1.0000
  H   H2553     1.0  0.79695  0.88494  0.42773  1.0000
  H   H2554     1.0  0.82270  0.49795  0.47429  1.0000
  C   C1459     1.0  0.72984  0.84613  0.46908  1.0000
  H   H2555     1.0  0.72472  0.69669  0.49711  1.0000
  C   C1460     1.0  0.86038  0.49983  0.36228  1.0000
  C   C1461     1.0  0.65306  0.66762  0.33517  1.0000
  H   H2556     1.0  0.55430  0.60502  0.33095  1.0000
  C   C1462     1.0  0.55906  0.64657  0.36062  1.0000
  C   C1463     1.0  0.62926  0.67083  0.32637  1.0000
  H   H2557     1.0  0.94519  0.52185  0.35132  1.0000
  H   H2558     1.0  0.73525  0.85030  0.45578  1.0000
  C   C1464     1.0  0.74762  0.85774  0.48234  1.0000
  H   H2559     1.0  0.78949  0.63307  0.47738  1.0000
  H   H2560     1.0  0.88469  0.93956  0.35059  1.0000
  H   H2561     1.0  0.91183  0.95721  0.27033  1.0000
  C   C1465     1.0  0.95046  0.52643  0.42245  1.0000
  H   H2562     1.0  0.78491  0.54132  0.49692  1.0000
  H   H2563     1.0  0.95423  0.72638  0.27262  1.0000
  H   H2564     1.0  0.71967  0.90365  0.48102  1.0000
  H   H2565     1.0  0.52130  0.67785  0.31974  1.0000
  H   H2566     1.0  0.72942  0.51055  0.45646  1.0000
  H   H2567     1.0  0.61995  0.65036  0.32599  1.0000
  N   N81       1.0  0.53126  0.64131  0.33454  1.0000
  N   N82       1.0  0.76926  0.57890  0.47273  1.0000
  H   H2568     1.0  0.74305  0.94795  0.48398  1.0000
  C   C1466     1.0  0.76345  0.60638  0.46396  1.0000
  C   C1467     1.0  0.74818  0.55992  0.47103  1.0000
  H   H2569     1.0  0.63900  0.67489  0.36044  1.0000
  H   H2570     1.0  0.72756  0.65877  0.49670  1.0000
  H   H2571     1.0  0.69563  0.65618  0.47502  1.0000
  C   C1468     1.0  0.73949  0.55426  0.45256  1.0000
  H   H2572     1.0  0.86523  0.50803  0.33533  1.0000
  C   C1469     1.0  0.96019  0.77190  0.27125  1.0000
  H   H2573     1.0  0.95074  0.81738  0.29207  1.0000
  C   C1470     1.0  0.83416  0.56096  0.45942  1.0000
  H   H2574     1.0  0.51417  0.70759  0.25683  1.0000
  C   C1471     1.0  0.53531  0.60987  0.33282  1.0000
  H   H2575     1.0  0.50907  0.67083  0.34828  1.0000
  H   H2576     1.0  0.71505  0.52774  0.43885  1.0000
  H   H2577     1.0  0.74695  0.61549  0.46941  1.0000
  H   H2578     1.0  0.54299  0.55571  0.31990  1.0000
  H   H2579     1.0  0.75207  0.53884  0.47664  1.0000
  Fe  Fe168     1.0  0.79711  0.97793  0.43912  1.0000
  H   H2580     1.0  0.51551  0.55553  0.33164  1.0000
  C   C1472     1.0  0.95194  0.52533  0.40295  1.0000
  S   S330      1.0  0.92636  0.96412  0.33625  1.0000
  H   H2581     1.0  0.71756  0.94443  0.44953  1.0000
  H   H2582     1.0  0.55472  0.66038  0.27778  1.0000
  H   H2583     1.0  0.94635  0.63548  0.26562  1.0000
  H   H2584     1.0  0.73079  0.57333  0.44729  1.0000
  H   H2585     1.0  0.71491  0.72593  0.36657  1.0000
  H   H2586     1.0  0.56862  0.64944  0.33396  1.0000
  H   H2587     1.0  0.71634  0.66506  0.37981  1.0000
  H   H2588     1.0  0.70395  0.95063  0.47016  1.0000
  H   H2589     1.0  0.81311  0.94470  0.50038  1.0000
  C   C1473     1.0  0.72139  0.53067  0.45215  1.0000
  C   C1474     1.0  0.58465  0.65294  0.36481  1.0000
  H   H2590     1.0  0.65828  0.60489  0.38465  1.0000
  C   C1475     1.0  0.89883  0.94760  0.27912  1.0000
  H   H2591     1.0  0.69190  0.69397  0.47606  1.0000
  S   S331      1.0  0.77868  0.99109  0.39182  1.0000
  H   H2592     1.0  0.78864  0.54123  0.46509  1.0000
  H   H2593     1.0  0.55929  0.67318  0.30798  1.0000
  C   C1476     1.0  0.52247  0.59454  0.31794  1.0000
  H   H2594     1.0  0.76541  0.65537  0.44505  1.0000
  H   H2595     1.0  0.65783  0.62439  0.41427  1.0000
  H   H2596     1.0  0.53043  0.60016  0.30547  1.0000
  N   N83       1.0  0.63685  0.82962  0.37842  1.0000
  C   C1477     1.0  0.64547  0.85958  0.37788  1.0000
  C   C1478     1.0  0.62243  0.82412  0.36262  1.0000
  C   C1479     1.0  0.62252  0.82584  0.39449  1.0000
  C   C1480     1.0  0.65706  0.80893  0.37869  1.0000
  C   C1481     1.0  0.67524  0.81201  0.36398  1.0000
  C   C1482     1.0  0.66344  0.86779  0.39190  1.0000
  C   C1483     1.0  0.60835  0.79810  0.39570  1.0000
  C   C1484     1.0  0.59917  0.84115  0.36117  1.0000
  C   C1485     1.0  0.58486  0.83125  0.34581  1.0000
  C   C1486     1.0  0.69513  0.79053  0.36563  1.0000
  C   C1487     1.0  0.67090  0.89848  0.39005  1.0000
  C   C1488     1.0  0.59309  0.79773  0.41178  1.0000
  H   H2597     1.0  0.63045  0.87454  0.37918  1.0000
  H   H2598     1.0  0.65334  0.86441  0.36520  1.0000
  H   H2599     1.0  0.63263  0.82927  0.35093  1.0000
  H   H2600     1.0  0.61848  0.80123  0.36137  1.0000
  H   H2601     1.0  0.61010  0.84380  0.39633  1.0000
  H   H2602     1.0  0.63409  0.82632  0.40594  1.0000
  H   H2603     1.0  0.66658  0.80996  0.39111  1.0000
  H   H2604     1.0  0.65041  0.78700  0.37799  1.0000
  H   H2605     1.0  0.68331  0.83319  0.36397  1.0000
  H   H2606     1.0  0.66693  0.80841  0.35138  1.0000
  H   H2607     1.0  0.65583  0.86523  0.40486  1.0000
  H   H2608     1.0  0.67957  0.85470  0.39106  1.0000
  H   H2609     1.0  0.62041  0.77980  0.39617  1.0000
  H   H2610     1.0  0.59643  0.79510  0.38469  1.0000
  H   H2611     1.0  0.58794  0.83885  0.37265  1.0000
  H   H2612     1.0  0.60291  0.86388  0.35943  1.0000
  H   H2613     1.0  0.59499  0.83379  0.33377  1.0000
  H   H2614     1.0  0.57993  0.80876  0.34729  1.0000
  H   H2615     1.0  0.56849  0.84396  0.34485  1.0000
  H   H2616     1.0  0.70772  0.79313  0.35490  1.0000
  H   H2617     1.0  0.70475  0.79380  0.37779  1.0000
  H   H2618     1.0  0.68810  0.76879  0.36514  1.0000
  H   H2619     1.0  0.68359  0.90387  0.40027  1.0000
  H   H2620     1.0  0.67965  0.90183  0.37752  1.0000
  H   H2621     1.0  0.65552  0.91285  0.39121  1.0000
  H   H2622     1.0  0.60389  0.80092  0.42341  1.0000
  H   H2623     1.0  0.66194  0.68831  0.33438  1.0000
  C   C1489     1.0  0.78262  0.62935  0.46436  1.0000
  H   H2624     1.0  0.63253  0.62561  0.37970  1.0000
  H   H2625     1.0  0.52377  0.84155  0.25674  1.0000
  C   C1490     1.0  0.79990  0.97978  0.48576  1.0000
  H   H2626     1.0  0.96666  0.79908  0.30868  1.0000
  H   H2627     1.0  0.69727  0.69208  0.38748  1.0000
  C   C1491     1.0  0.95431  0.74326  0.26286  1.0000
  H   H2628     1.0  0.51471  0.63906  0.35951  1.0000
  C   C1492     1.0  0.72033  0.95295  0.46260  1.0000
  H   H2629     1.0  0.90067  0.55575  0.26850  1.0000
  H   H2630     1.0  0.75995  0.60293  0.45013  1.0000
  H   H2631     1.0  0.50363  0.60014  0.31720  1.0000
  N   N84       1.0  0.75533  0.88812  0.48050  1.0000
  H   H2632     1.0  0.54791  0.65906  0.36959  1.0000
  C   C1493     1.0  0.77288  0.58454  0.49156  1.0000
  C   C1494     1.0  0.88626  0.96031  0.35620  1.0000
  H   H2633     1.0  0.91632  0.74855  0.26492  1.0000
  C   C1495     1.0  0.81481  0.57157  0.47142  1.0000
  H   H2634     1.0  0.73304  0.56864  0.47843  1.0000
  H   H2635     1.0  0.86869  0.95892  0.29400  1.0000
  S   S332      1.0  0.95600  0.97690  0.29198  1.0000
  C   C1496     1.0  0.96327  0.62599  0.26295  1.0000
  C   C1497     1.0  0.52432  0.56257  0.31973  1.0000
  H   H2636     1.0  0.91442  0.55719  0.34719  1.0000
  H   H2637     1.0  0.88909  0.93117  0.27199  1.0000
  H   H2638     1.0  0.72125  0.80872  0.48406  1.0000
  H   H2639     1.0  0.55608  0.62385  0.36300  1.0000
  C   C1498     1.0  0.92979  0.74393  0.25501  1.0000
  H   H2640     1.0  0.83255  0.53795  0.45720  1.0000
  H   H2641     1.0  0.79732  0.62310  0.45577  1.0000
  H   H2642     1.0  0.90830  0.93732  0.28986  1.0000
  H   H2643     1.0  0.72084  0.62888  0.36293  1.0000
  C   C1499     1.0  0.86884  0.96995  0.36781  1.0000
  C   C1500     1.0  0.48101  0.64304  0.25313  1.0000
  H   H2644     1.0  0.96138  0.50947  0.42817  1.0000
  H   H2645     1.0  0.59646  0.63893  0.35731  1.0000
  H   H2646     1.0  0.93236  0.53214  0.37132  1.0000
  H   H2647     1.0  0.58789  0.64939  0.37863  1.0000
  H   H2648     1.0  0.55783  0.63565  0.30562  1.0000
  H   H2649     1.0  0.66350  0.65199  0.32778  1.0000
  H   H2650     1.0  0.75422  0.54811  0.44400  1.0000
  H   H2651     1.0  0.79014  0.56918  0.45034  1.0000
  H   H2652     1.0  0.71442  0.58355  0.34755  1.0000
  S   S333      1.0  0.80631  0.96308  0.46600  1.0000
  H   H2653     1.0  0.63074  0.60732  0.40890  1.0000
  H   H2654     1.0  0.81742  0.56121  0.48398  1.0000
  H   H2655     1.0  0.75952  0.66590  0.46686  1.0000
  C   C1501     1.0  0.79915  0.88775  0.44174  1.0000
  H   H2656     1.0  0.67035  0.60888  0.35712  1.0000
  H   H2657     1.0  0.63208  0.64522  0.40910  1.0000
  H   H2658     1.0  0.78577  0.91090  0.47173  1.0000
  C   C1502     1.0  0.73579  0.90583  0.47307  1.0000
  S   S334      1.0  0.49900  0.80363  0.27903  1.0000
  C   C1503     1.0  0.97734  0.53048  0.39671  1.0000
  H   H2659     1.0  0.97278  0.75161  0.30006  1.0000
  C   C1504     1.0  0.74077  0.93780  0.47132  1.0000
  H   H2660     1.0  0.58421  0.77704  0.41281  1.0000
  H   H2661     1.0  0.87250  0.97910  0.27474  1.0000
  H   H2662     1.0  0.93198  0.52334  0.42655  1.0000
  H   H2663     1.0  0.76964  0.86264  0.44810  1.0000
  H   H2664     1.0  0.73461  0.69823  0.35928  1.0000
  H   H2665     1.0  0.52863  0.67848  0.28499  1.0000
  Fe  Fe169     1.0  0.95934  0.97726  0.32080  1.0000
  H   H2666     1.0  0.81191  0.87177  0.44639  1.0000
  C   C1505     1.0  0.53928  0.65898  0.28640  1.0000
  H   H2667     1.0  0.80630  0.90910  0.44409  1.0000
  H   H2668     1.0  0.70616  0.53598  0.46045  1.0000
  C   C1506     1.0  0.54742  0.65541  0.30486  1.0000
  H   H2669     1.0  0.96067  0.84992  0.31521  1.0000
  H   H2670     1.0  0.70355  0.61610  0.38062  1.0000
  H   H2671     1.0  0.78755  0.67310  0.45727  1.0000
  H   H2672     1.0  0.85410  0.95668  0.37094  1.0000
  H   H2673     1.0  0.81742  0.59441  0.47327  1.0000
  H   H2674     1.0  0.72823  0.57885  0.36806  1.0000
  H   H2675     1.0  0.52857  0.64068  0.28236  1.0000
  C   C1507     1.0  0.77546  0.88441  0.45065  1.0000
  C   C1508     1.0  0.77760  0.88990  0.47008  1.0000
  H   H2676     1.0  0.96682  0.73767  0.25251  1.0000
  C   C1509     1.0  0.96959  0.60049  0.27116  1.0000
  H   H2677     1.0  0.69765  0.57083  0.36567  1.0000
  C   C1510     1.0  0.70465  0.67640  0.47763  1.0000
  H   H2678     1.0  0.90963  0.51941  0.26635  1.0000
  H   H2679     1.0  0.61816  0.68659  0.33319  1.0000
  C   C1511     1.0  0.68334  0.62628  0.35730  1.0000
  H   H2680     1.0  0.63895  0.63907  0.35366  1.0000
  H   H2681     1.0  0.76323  0.89962  0.44462  1.0000
  H   H2682     1.0  0.79097  0.87475  0.47492  1.0000
  N   N85       1.0  0.67212  0.65296  0.36412  1.0000
  C   C1512     1.0  0.66505  0.65036  0.38266  1.0000
  C   C1513     1.0  0.68807  0.67800  0.36173  1.0000
  C   C1514     1.0  0.64991  0.65831  0.35405  1.0000
  C   C1515     1.0  0.70564  0.61570  0.36660  1.0000
  C   C1516     1.0  0.64902  0.62514  0.38714  1.0000
  C   C1517     1.0  0.70637  0.68395  0.37592  1.0000
  C   C1518     1.0  0.72403  0.70614  0.37025  1.0000
  C   C1519     1.0  0.64206  0.62565  0.40601  1.0000
  H   H2683     1.0  0.65602  0.67012  0.38688  1.0000
  H   H2684     1.0  0.68051  0.64846  0.39110  1.0000
  H   H2685     1.0  0.69757  0.67627  0.34931  1.0000
  H   H2686     1.0  0.67744  0.69782  0.36106  1.0000
  C   C1520     1.0  0.96881  0.54714  0.36721  1.0000
  H   H2687     1.0  0.94524  0.50453  0.39888  1.0000
  S   S335      1.0  0.76011  0.97339  0.43006  1.0000
  H   H2688     1.0  0.95277  0.89182  0.26361  1.0000
  C   C1521     1.0  0.97576  0.49605  0.37249  1.0000
  H   H2689     1.0  0.71324  0.80684  0.46186  1.0000
  H   H2690     1.0  0.95756  0.59069  0.28000  1.0000
  H   H2691     1.0  0.94016  0.54212  0.39803  1.0000
  H   H2692     1.0  0.52625  0.74212  0.25339  1.0000
  H   H2693     1.0  0.67758  0.83097  0.48730  1.0000
  H   H2694     1.0  0.95643  0.78881  0.26176  1.0000
  H   H2695     1.0  0.83414  0.98177  0.34159  1.0000
  H   H2696     1.0  0.85158  0.56504  0.46519  1.0000
  H   H2697     1.0  0.51116  0.64601  0.31128  1.0000
  H   H2698     1.0  0.76315  0.84336  0.48242  1.0000
  C   C1522     1.0  0.51110  0.64759  0.34658  1.0000
  Fe  Fe170     1.0  0.48545  0.76850  0.29709  1.0000
  C   C1523     1.0  0.96816  0.81467  0.29821  1.0000
  H   H2699     1.0  0.58874  0.67521  0.36185  1.0000
  H   H2700     1.0  0.95643  0.54719  0.42731  1.0000
  H   H2701     1.0  0.74355  0.80316  0.46782  1.0000
  C   C1524     1.0  0.48990  0.83554  0.26844  1.0000
  H   H2702     1.0  0.86825  0.98195  0.32063  1.0000
  H   H2703     1.0  0.71875  0.67912  0.46799  1.0000
  H   H2704     1.0  0.90536  0.98211  0.30610  1.0000
  H   H2705     1.0  0.96735  0.56759  0.37416  1.0000
  H   H2706     1.0  0.72432  0.97574  0.46150  1.0000
  H   H2707     1.0  0.94242  0.57108  0.34086  1.0000
  C   C1525     1.0  0.90556  0.97721  0.35172  1.0000
  H   H2708     1.0  0.75829  0.59788  0.49668  1.0000
  H   H2709     1.0  0.73883  0.85454  0.49491  1.0000
  C   C1526     1.0  0.50606  0.84966  0.25786  1.0000
  H   H2710     1.0  0.84248  0.50753  0.36252  1.0000
  H   H2711     1.0  0.97885  0.55195  0.35533  1.0000
  C   C1527     1.0  0.71499  0.67663  0.49567  1.0000
  H   H2712     1.0  0.48447  0.74388  0.26234  1.0000
  C   C1528     1.0  0.88170  0.96993  0.28590  1.0000
  S   S336      1.0  0.47910  0.77405  0.32547  1.0000
  H   H2713     1.0  0.92757  0.54393  0.27823  1.0000
  H   H2714     1.0  0.96251  0.53444  0.25905  1.0000
  H   H2715     1.0  0.78892  0.59699  0.49386  1.0000
  C   C1529     1.0  0.97857  0.63936  0.25136  1.0000
  C   C1530     1.0  0.91602  0.54144  0.26690  1.0000
  C   C1531     1.0  0.97452  0.84317  0.30603  1.0000
  C   C1532     1.0  0.48691  0.63546  0.34162  1.0000
  H   H2716     1.0  0.48758  0.61212  0.34164  1.0000
  H   H2717     1.0  0.48118  0.64295  0.32889  1.0000
  C   C1533     1.0  0.89487  0.99303  0.29612  1.0000
  H   H2718     1.0  0.97592  0.85950  0.29593  1.0000
  H   H2719     1.0  0.93485  0.57118  0.25182  1.0000
  C   C1534     1.0  0.67046  0.83373  0.50043  1.0000
  H   H2720     1.0  0.65546  0.84875  0.49989  1.0000
  H   H2721     1.0  0.80403  0.56945  0.51904  1.0000
  H   H2722     1.0  0.78337  0.54624  0.52903  1.0000
  H   H2723     1.0  0.93722  0.49751  0.61955  1.0000
  H   H2724     1.0  0.55597  0.62576  0.66725  1.0000
  H   H2725     1.0  0.56448  0.67326  0.65600  1.0000
  H   H2726     1.0  0.66348  0.85698  0.53094  1.0000
  Fe  Fe171     1.0  0.77013  0.52041  0.58754  1.0000
  S   S337      1.0  0.80652  0.53552  0.58179  1.0000
  S   S338      1.0  0.73681  0.54791  0.58929  1.0000
  Fe  Fe172     1.0  0.77512  0.95528  0.58734  1.0000
  S   S339      1.0  0.80993  0.96718  0.57551  1.0000
  S   S340      1.0  0.76569  0.90883  0.58264  1.0000
  H   H2727     1.0  0.74394  0.90142  0.50572  1.0000
  C   C1535     1.0  0.92475  0.93028  0.66582  1.0000
  H   H2728     1.0  0.75639  0.54963  0.50534  1.0000
  H   H2729     1.0  0.55545  0.79683  0.65818  1.0000
  H   H2730     1.0  0.56499  0.64315  0.71564  1.0000
  C   C1536     1.0  0.97403  0.71381  0.73302  1.0000
  Fe  Fe173     1.0  0.64328  0.73529  0.59966  1.0000
  S   S341      1.0  0.67564  0.73812  0.61601  1.0000
  S   S342      1.0  0.60507  0.72966  0.60895  1.0000
  Fe  Fe174     1.0  0.67114  0.74888  0.56669  1.0000
  S   S343      1.0  0.70473  0.75293  0.58134  1.0000
  S   S344      1.0  0.67793  0.76181  0.53915  1.0000
  Fe  Fe175     1.0  0.69367  0.71330  0.59484  1.0000
  S   S345      1.0  0.72414  0.68174  0.59730  1.0000
  Fe  Fe176     1.0  0.68417  0.77717  0.60080  1.0000
  S   S346      1.0  0.69243  0.82007  0.61272  1.0000
  S   S347      1.0  0.66089  0.70806  0.57918  1.0000
  S   S348      1.0  0.65103  0.77557  0.58546  1.0000
  S   S349      1.0  0.51029  0.74408  0.72063  1.0000
  H   H2731     1.0  0.76354  0.89401  0.53382  1.0000
  C   C1537     1.0  0.54188  0.64203  0.66788  1.0000
  H   H2732     1.0  0.66030  0.85685  0.63586  1.0000
  Fe  Fe177     1.0  0.51410  0.74215  0.69177  1.0000
  S   S350      1.0  0.55166  0.73382  0.68154  1.0000
  C   C1538     1.0  0.68075  0.84592  0.53110  1.0000
  H   H2733     1.0  0.72988  0.85392  0.53040  1.0000
  C   C1539     1.0  0.53286  0.58699  0.71258  1.0000
  C   C1540     1.0  0.54700  0.66365  0.65396  1.0000
  C   C1541     1.0  0.49099  0.63111  0.68935  1.0000
  C   C1542     1.0  0.59082  0.73187  0.62937  1.0000
  C   C1543     1.0  0.56646  0.73709  0.63006  1.0000
  C   C1544     1.0  0.55424  0.73827  0.64582  1.0000
  C   C1545     1.0  0.56618  0.73393  0.66121  1.0000
  C   C1546     1.0  0.59055  0.72871  0.66053  1.0000
  C   C1547     1.0  0.60278  0.72769  0.64477  1.0000
  H   H2734     1.0  0.55690  0.74013  0.61827  1.0000
  H   H2735     1.0  0.53552  0.74216  0.64603  1.0000
  H   H2736     1.0  0.60002  0.72508  0.67228  1.0000
  H   H2737     1.0  0.62137  0.72303  0.64452  1.0000
  C   C1548     1.0  0.74577  0.88454  0.59199  1.0000
  C   C1549     1.0  0.74684  0.85616  0.58675  1.0000
  C   C1550     1.0  0.73075  0.83620  0.59299  1.0000
  C   C1551     1.0  0.71347  0.84432  0.60476  1.0000
  C   C1552     1.0  0.71267  0.87257  0.61030  1.0000
  C   C1553     1.0  0.72859  0.89264  0.60386  1.0000
  H   H2738     1.0  0.76030  0.84958  0.57780  1.0000
  H   H2739     1.0  0.73185  0.81449  0.58880  1.0000
  H   H2740     1.0  0.69950  0.87908  0.61949  1.0000
  H   H2741     1.0  0.72755  0.91435  0.60805  1.0000
  C   C1554     1.0  0.73371  0.58524  0.59131  1.0000
  C   C1555     1.0  0.71106  0.59735  0.59120  1.0000
  C   C1556     1.0  0.70772  0.62680  0.59274  1.0000
  C   C1557     1.0  0.72706  0.64454  0.59457  1.0000
  C   C1558     1.0  0.74970  0.63245  0.59451  1.0000
  C   C1559     1.0  0.75304  0.60306  0.59281  1.0000
  H   H2742     1.0  0.69597  0.58381  0.59001  1.0000
  H   H2743     1.0  0.69020  0.63568  0.59281  1.0000
  H   H2744     1.0  0.76480  0.64592  0.59594  1.0000
  H   H2745     1.0  0.77057  0.59418  0.59288  1.0000
  C   C1560     1.0  0.64764  0.73010  0.51906  1.0000
  C   C1561     1.0  0.66684  0.74827  0.51974  1.0000
  C   C1562     1.0  0.67788  0.75625  0.50447  1.0000
  H   H2746     1.0  0.63888  0.72398  0.53074  1.0000
  H   H2747     1.0  0.55992  0.66317  0.68788  1.0000
  H   H2748     1.0  0.74067  0.67186  0.55299  1.0000
  C   C1563     1.0  0.87150  0.50755  0.63223  1.0000
  C   C1564     1.0  0.71032  0.90955  0.55347  1.0000
  H   H2749     1.0  0.87598  0.93804  0.71594  1.0000
  C   C1565     1.0  0.94401  0.51777  0.61466  1.0000
  C   C1566     1.0  0.81194  0.49635  0.51737  1.0000
  H   H2750     1.0  0.68525  0.69479  0.50887  1.0000
  H   H2751     1.0  0.68313  0.65808  0.50500  1.0000
  H   H2752     1.0  0.93215  0.54905  0.59616  1.0000
  C   C1567     1.0  0.90135  0.95793  0.73178  1.0000
  C   C1568     1.0  0.89420  0.93364  0.72014  1.0000
  S   S351      1.0  0.84584  0.52008  0.62147  1.0000
  H   H2753     1.0  0.91924  0.95426  0.73694  1.0000
  H   H2754     1.0  0.71345  0.80416  0.53479  1.0000
  H   H2755     1.0  0.94781  0.51037  0.75021  1.0000
  H   H2756     1.0  0.50194  0.63199  0.71588  1.0000
  S   S352      1.0  0.48267  0.71399  0.68823  1.0000
  C   C1569     1.0  0.81814  0.50766  0.66431  1.0000
  H   H2757     1.0  0.81724  0.51674  0.67743  1.0000
  C   C1570     1.0  0.55848  0.68799  0.73630  1.0000
  H   H2758     1.0  0.89424  0.91424  0.72797  1.0000
  C   C1571     1.0  0.93776  0.73677  0.74601  1.0000
  H   H2759     1.0  0.94148  0.61806  0.74168  1.0000
  S   S353      1.0  0.96628  0.57003  0.72771  1.0000
  H   H2760     1.0  0.86123  0.50214  0.67958  1.0000
  H   H2761     1.0  0.87554  0.54625  0.64638  1.0000
  H   H2762     1.0  0.92644  0.82725  0.71120  1.0000
  H   H2763     1.0  0.91112  0.84211  0.72951  1.0000
  H   H2764     1.0  0.55607  0.71075  0.73920  1.0000
  H   H2765     1.0  0.73362  0.64164  0.52480  1.0000
  N   N86       1.0  0.69688  0.85981  0.54379  1.0000
  H   H2766     1.0  0.65022  0.64194  0.55940  1.0000
  H   H2767     1.0  0.75217  0.71567  0.56759  1.0000
  H   H2768     1.0  0.65791  0.89292  0.65897  1.0000
  H   H2769     1.0  0.94266  0.84033  0.72926  1.0000
  H   H2770     1.0  0.79374  0.88273  0.53438  1.0000
  H   H2771     1.0  0.59016  0.80175  0.59195  1.0000
  H   H2772     1.0  0.76044  0.81599  0.55249  1.0000
  Fe  Fe178     1.0  0.97620  0.96120  0.71837  1.0000
  H   H2773     1.0  0.65153  0.66452  0.52258  1.0000
  H   H2774     1.0  0.50282  0.66453  0.70537  1.0000
  H   H2775     1.0  0.68637  0.66616  0.55242  1.0000
  H   H2776     1.0  0.94369  0.94442  0.64341  1.0000
  H   H2777     1.0  0.90780  0.93198  0.65898  1.0000
  H   H2778     1.0  0.57740  0.83363  0.64265  1.0000
  H   H2779     1.0  0.53222  0.59914  0.68619  1.0000
  C   C1572     1.0  0.80161  0.97842  0.51703  1.0000
  C   C1573     1.0  0.79917  0.52244  0.65317  1.0000
  H   H2780     1.0  0.69452  0.61596  0.54709  1.0000
  H   H2781     1.0  0.67668  0.82397  0.53510  1.0000
  N   N87       1.0  0.53332  0.63818  0.70077  1.0000
  C   C1574     1.0  0.92667  0.52828  0.60122  1.0000
  C   C1575     1.0  0.68740  0.85479  0.56153  1.0000
  H   H2782     1.0  0.84176  0.50848  0.50215  1.0000
  C   C1576     1.0  0.66278  0.86755  0.56533  1.0000
  C   C1577     1.0  0.65618  0.86394  0.58412  1.0000
  H   H2783     1.0  0.68590  0.83183  0.56409  1.0000
  H   H2784     1.0  0.69986  0.86271  0.57129  1.0000
  H   H2785     1.0  0.73262  0.85705  0.55278  1.0000
  H   H2786     1.0  0.71778  0.80845  0.55737  1.0000
  H   H2787     1.0  0.75062  0.78284  0.54402  1.0000
  H   H2788     1.0  0.70073  0.90935  0.56583  1.0000
  H   H2789     1.0  0.66201  0.89038  0.56249  1.0000
  H   H2790     1.0  0.64923  0.85671  0.55762  1.0000
  H   H2791     1.0  0.65661  0.84133  0.58769  1.0000
  H   H2792     1.0  0.66850  0.87568  0.59242  1.0000
  H   H2793     1.0  0.63819  0.87226  0.58640  1.0000
  H   H2794     1.0  0.75609  0.81169  0.52969  1.0000
  N   N88       1.0  0.62569  0.81600  0.64601  1.0000
  C   C1578     1.0  0.62011  0.82570  0.62813  1.0000
  C   C1579     1.0  0.63638  0.84032  0.65563  1.0000
  C   C1580     1.0  0.64244  0.79130  0.64493  1.0000
  C   C1581     1.0  0.60391  0.80672  0.65538  1.0000
  C   C1582     1.0  0.60626  0.80465  0.61692  1.0000
  C   C1583     1.0  0.65189  0.78025  0.66228  1.0000
  C   C1584     1.0  0.66095  0.84984  0.64936  1.0000
  C   C1585     1.0  0.66996  0.87452  0.65999  1.0000
  C   C1586     1.0  0.59936  0.81773  0.59984  1.0000
  C   C1587     1.0  0.67006  0.75684  0.65968  1.0000
  H   H2795     1.0  0.63659  0.83005  0.62095  1.0000
  H   H2796     1.0  0.61039  0.84611  0.62839  1.0000
  H   H2797     1.0  0.62474  0.85917  0.65486  1.0000
  H   H2798     1.0  0.63757  0.83556  0.66952  1.0000
  H   H2799     1.0  0.65761  0.79624  0.63650  1.0000
  H   H2800     1.0  0.63387  0.77310  0.63859  1.0000
  H   H2801     1.0  0.59738  0.78647  0.65010  1.0000
  H   H2802     1.0  0.60803  0.80202  0.66897  1.0000
  H   H2803     1.0  0.61737  0.78601  0.61414  1.0000
  H   H2804     1.0  0.58990  0.79749  0.62317  1.0000
  H   H2805     1.0  0.63744  0.77140  0.67007  1.0000
  H   H2806     1.0  0.66049  0.79715  0.66972  1.0000
  H   H2807     1.0  0.67410  0.83260  0.65037  1.0000
  C   C1588     1.0  0.72141  0.84781  0.54266  1.0000
  H   H2808     1.0  0.67172  0.86838  0.67361  1.0000
  H   H2809     1.0  0.61515  0.82466  0.59272  1.0000
  H   H2810     1.0  0.58737  0.83598  0.60186  1.0000
  H   H2811     1.0  0.67675  0.74971  0.67227  1.0000
  H   H2812     1.0  0.66205  0.73850  0.65313  1.0000
  H   H2813     1.0  0.68513  0.76457  0.65201  1.0000
  N   N89       1.0  0.70328  0.66902  0.52752  1.0000
  C   C1589     1.0  0.68205  0.67172  0.53903  1.0000
  C   C1590     1.0  0.72057  0.69166  0.53228  1.0000
  H   H2814     1.0  0.51032  0.66027  0.74809  1.0000
  H   H2815     1.0  0.53088  0.67573  0.68507  1.0000
  S   S354      1.0  0.49289  0.78166  0.68826  1.0000
  C   C1591     1.0  0.66040  0.65425  0.53358  1.0000
  C   C1592     1.0  0.73003  0.69113  0.55079  1.0000
  C   C1593     1.0  0.74607  0.71619  0.55411  1.0000
  H   H2816     1.0  0.94391  0.53326  0.62529  1.0000
  C   C1594     1.0  0.64240  0.65225  0.54801  1.0000
  H   H2817     1.0  0.67621  0.69414  0.53979  1.0000
  H   H2818     1.0  0.49274  0.64462  0.67789  1.0000
  H   H2819     1.0  0.73638  0.69049  0.52396  1.0000
  H   H2820     1.0  0.71255  0.71287  0.53009  1.0000
  C   C1595     1.0  0.97466  0.59616  0.74325  1.0000
  S   S355      1.0  0.97244  0.96003  0.68971  1.0000
  C   C1596     1.0  0.71466  0.64013  0.52814  1.0000
  H   H2821     1.0  0.70498  0.83068  0.51108  1.0000
  H   H2822     1.0  0.54705  0.65324  0.64123  1.0000
  C   C1597     1.0  0.78506  0.56474  0.52046  1.0000
  H   H2823     1.0  0.94055  0.90674  0.64470  1.0000
  H   H2824     1.0  0.71562  0.69232  0.56029  1.0000
  H   H2825     1.0  0.72623  0.58487  0.53310  1.0000
  C   C1598     1.0  0.68954  0.84486  0.51232  1.0000
  C   C1599     1.0  0.71272  0.62344  0.54514  1.0000
  H   H2826     1.0  0.53340  0.68053  0.65395  1.0000
  H   H2827     1.0  0.66395  0.81304  0.50493  1.0000
  H   H2828     1.0  0.73640  0.73627  0.55205  1.0000
  H   H2829     1.0  0.96699  0.75949  0.73611  1.0000
  C   C1600     1.0  0.92688  0.84387  0.72122  1.0000
  C   C1601     1.0  0.78059  0.89492  0.52695  1.0000
  S   S356      1.0  0.96727  0.92552  0.73768  1.0000
  C   C1602     1.0  0.71162  0.94016  0.54763  1.0000
  H   H2830     1.0  0.68013  0.89978  0.53772  1.0000
  H   H2831     1.0  0.85354  0.91979  0.65603  1.0000
  H   H2832     1.0  0.72232  0.94192  0.53580  1.0000
  N   N90       1.0  0.90606  0.90676  0.69250  1.0000
  C   C1603     1.0  0.91096  0.93092  0.70452  1.0000
  C   C1604     1.0  0.92502  0.90585  0.67898  1.0000
  C   C1605     1.0  0.88217  0.91129  0.68467  1.0000
  C   C1606     1.0  0.90616  0.87902  0.70186  1.0000
  C   C1607     1.0  0.92803  0.87309  0.71314  1.0000
  C   C1608     1.0  0.53996  0.60762  0.69810  1.0000
  C   C1609     1.0  0.87519  0.89015  0.67042  1.0000
  H   H2833     1.0  0.80646  0.96756  0.52864  1.0000
  H   H2834     1.0  0.96843  0.69468  0.74013  1.0000
  C   C1610     1.0  0.94381  0.92616  0.65225  1.0000
  H   H2835     1.0  0.81752  0.56247  0.65166  1.0000
  H   H2836     1.0  0.90979  0.95123  0.69759  1.0000
  H   H2837     1.0  0.92935  0.92997  0.70928  1.0000
  H   H2838     1.0  0.94265  0.90616  0.68505  1.0000
  H   H2839     1.0  0.92454  0.88562  0.67177  1.0000
  H   H2840     1.0  0.88047  0.93316  0.67963  1.0000
  H   H2841     1.0  0.86826  0.90967  0.69459  1.0000
  H   H2842     1.0  0.89030  0.87710  0.71009  1.0000
  H   H2843     1.0  0.90492  0.86126  0.69260  1.0000
  C   C1611     1.0  0.90222  0.51607  0.65368  1.0000
  H   H2844     1.0  0.94446  0.87415  0.70556  1.0000
  C   C1612     1.0  0.54590  0.64821  0.71663  1.0000
  H   H2845     1.0  0.48281  0.84259  0.69026  1.0000
  H   H2846     1.0  0.87301  0.86874  0.67583  1.0000
  H   H2847     1.0  0.88847  0.88892  0.66008  1.0000
  H   H2848     1.0  0.76165  0.71537  0.54558  1.0000
  C   C1613     1.0  0.50731  0.64192  0.70367  1.0000
  C   C1614     1.0  0.88248  0.52526  0.64426  1.0000
  H   H2849     1.0  0.78668  0.56440  0.64691  1.0000
  H   H2850     1.0  0.49485  0.60892  0.68592  1.0000
  H   H2851     1.0  0.63590  0.67358  0.55160  1.0000
  H   H2852     1.0  0.69275  0.77026  0.50488  1.0000
  H   H2853     1.0  0.88897  0.95959  0.74272  1.0000
  Fe  Fe179     1.0  0.81913  0.50406  0.60148  1.0000
  H   H2854     1.0  0.92531  0.51294  0.59053  1.0000
  H   H2855     1.0  0.92921  0.88854  0.72375  1.0000
  H   H2856     1.0  0.90091  0.97813  0.72466  1.0000
  H   H2857     1.0  0.70753  0.89441  0.52767  1.0000
  H   H2858     1.0  0.83769  0.89965  0.67189  1.0000
  C   C1615     1.0  0.54153  0.65597  0.68587  1.0000
  H   H2859     1.0  0.58822  0.84762  0.66252  1.0000
  C   C1616     1.0  0.53925  0.55663  0.70787  1.0000
  H   H2860     1.0  0.71738  0.63625  0.55644  1.0000
  H   H2861     1.0  0.70706  0.62603  0.51821  1.0000
  H   H2862     1.0  0.79606  0.56048  0.66878  1.0000
  H   H2863     1.0  0.62721  0.63956  0.54371  1.0000
  H   H2864     1.0  0.52971  0.54992  0.69620  1.0000
  H   H2865     1.0  0.55844  0.55446  0.70568  1.0000
  H   H2866     1.0  0.69378  0.94888  0.54533  1.0000
  H   H2867     1.0  0.72476  0.58387  0.55599  1.0000
  H   H2868     1.0  0.72008  0.95297  0.55775  1.0000
  C   C1617     1.0  0.80538  0.96555  0.50100  1.0000
  Fe  Fe180     1.0  0.48711  0.78244  0.71684  1.0000
  H   H2869     1.0  0.96449  0.71269  0.72065  1.0000
  H   H2870     1.0  0.57736  0.68406  0.73358  1.0000
  C   C1618     1.0  0.85195  0.89881  0.66220  1.0000
  H   H2871     1.0  0.84710  0.88323  0.65221  1.0000
  H   H2872     1.0  0.55314  0.67571  0.74771  1.0000
  H   H2873     1.0  0.68751  0.88084  0.65518  1.0000
  C   C1619     1.0  0.72377  0.81541  0.54458  1.0000
  H   H2874     1.0  0.52508  0.63178  0.66475  1.0000
  H   H2875     1.0  0.92797  0.95060  0.67227  1.0000
  C   C1620     1.0  0.58318  0.82805  0.65573  1.0000
  H   H2876     1.0  0.91028  0.52995  0.66291  1.0000
  C   C1621     1.0  0.69538  0.67473  0.50941  1.0000
  H   H2877     1.0  0.74740  0.60403  0.54589  1.0000
  C   C1622     1.0  0.69800  0.89091  0.53988  1.0000
  H   H2878     1.0  0.56666  0.80964  0.67832  1.0000
  H   H2879     1.0  0.53937  0.63708  0.72815  1.0000
  C   C1623     1.0  0.56200  0.81571  0.66505  1.0000
  C   C1624     1.0  0.74933  0.80604  0.54255  1.0000
  H   H2880     1.0  0.72853  0.90229  0.55579  1.0000
  H   H2881     1.0  0.54759  0.83155  0.66562  1.0000
  H   H2882     1.0  0.66554  0.63262  0.52962  1.0000
  H   H2883     1.0  0.51368  0.58771  0.71500  1.0000
  C   C1625     1.0  0.54355  0.68009  0.72083  1.0000
  H   H2884     1.0  0.53422  0.54243  0.71851  1.0000
  C   C1626     1.0  0.72878  0.59752  0.54490  1.0000
  H   H2885     1.0  0.54212  0.59191  0.72467  1.0000
  H   H2886     1.0  0.78644  0.91718  0.52640  1.0000
  H   H2887     1.0  0.52513  0.68557  0.72397  1.0000
  C   C1627     1.0  0.82403  0.50051  0.50189  1.0000
  H   H2888     1.0  0.77604  0.58292  0.52659  1.0000
  H   H2889     1.0  0.55932  0.60574  0.69628  1.0000
  H   H2890     1.0  0.92833  0.73587  0.73362  1.0000
  H   H2891     1.0  0.54929  0.69342  0.71004  1.0000
  H   H2892     1.0  0.83507  0.51498  0.65879  1.0000
  H   H2893     1.0  0.97743  0.56360  0.62233  1.0000
  C   C1628     1.0  0.79997  0.55441  0.65535  1.0000
  C   C1629     1.0  0.77848  0.88254  0.50894  1.0000
  H   H2894     1.0  0.50292  0.88636  0.73269  1.0000
  H   H2895     1.0  0.96143  0.92473  0.65823  1.0000
  C   C1630     1.0  0.48797  0.85110  0.74605  1.0000
  S   S357      1.0  0.78180  0.98015  0.61156  1.0000
  S   S358      1.0  0.49255  0.82724  0.72839  1.0000
  S   S359      1.0  0.82556  0.50566  0.53687  1.0000
  H   H2896     1.0  0.97342  0.52156  0.64292  1.0000
  H   H2897     1.0  0.97591  0.57225  0.65339  1.0000
  S   S360      1.0  0.75576  0.99096  0.57462  1.0000
  H   H2898     1.0  0.80242  0.51797  0.63946  1.0000
  C   C1631     1.0  0.96894  0.51365  0.60694  1.0000
  C   C1632     1.0  0.49487  0.87949  0.74448  1.0000
  H   H2899     1.0  0.90899  0.53074  0.60710  1.0000
  H   H2900     1.0  0.96704  0.49792  0.59647  1.0000
  H   H2901     1.0  0.78120  0.51544  0.65608  1.0000
  H   H2902     1.0  0.77337  0.86016  0.51029  1.0000
  H   H2903     1.0  0.97415  0.53343  0.60041  1.0000
  C   C1633     1.0  0.77427  0.55806  0.50307  1.0000
  C   C1634     1.0  0.97340  0.89057  0.74545  1.0000
  Fe  Fe181     1.0  0.80823  0.49962  0.56289  1.0000
  C   C1635     1.0  0.95850  0.61762  0.74776  1.0000
  H   H2904     1.0  0.69453  0.86601  0.50767  1.0000
  H   H2905     1.0  0.77234  0.49482  0.67990  1.0000
  C   C1636     1.0  0.96416  0.73950  0.74309  1.0000
  H   H2906     1.0  0.79613  0.88330  0.50294  1.0000
  C   C1637     1.0  0.63971  0.71992  0.50315  1.0000
  H   H2907     1.0  0.62491  0.70581  0.50267  1.0000
  C   C1638     1.0  0.49742  0.64427  0.75051  1.0000
  H   H2908     1.0  0.97855  0.75162  0.70774  1.0000
  H   H2909     1.0  0.48723  0.83258  0.81309  1.0000
  Fe  Fe182     1.0  0.94890  0.74419  0.81796  1.0000
  H   H2910     1.0  0.90287  0.65212  0.83908  1.0000
  S   S361      1.0  0.91079  0.74932  0.82804  1.0000
  H   H2911     1.0  0.77220  0.72942  0.86165  1.0000
  H   H2912     1.0  0.77471  0.62775  0.84581  1.0000
  S   S362      1.0  0.95357  0.73575  0.78950  1.0000
  H   H2913     1.0  0.78197  0.84622  0.98684  1.0000
  Fe  Fe183     1.0  0.81688  0.75291  0.91094  1.0000
  S   S363      1.0  0.78133  0.73968  0.90103  1.0000
  S   S364      1.0  0.85403  0.74616  0.89943  1.0000
  Fe  Fe184     1.0  0.79654  0.76392  0.94745  1.0000
  S   S365      1.0  0.76032  0.75084  0.93994  1.0000
  S   S366      1.0  0.80531  0.78127  0.97391  1.0000
  Fe  Fe185     1.0  0.77717  0.71485  0.92541  1.0000
  S   S367      1.0  0.77170  0.66727  0.92931  1.0000
  Fe  Fe186     1.0  0.76696  0.77703  0.91633  1.0000
  S   S368      1.0  0.73619  0.80606  0.90900  1.0000
  S   S369      1.0  0.81314  0.72661  0.93471  1.0000
  S   S370      1.0  0.80266  0.79168  0.92457  1.0000
  Fe  Fe187     1.0  0.69924  0.97100  0.91093  1.0000
  S   S371      1.0  0.66727  0.95776  0.92553  1.0000
  S   S372      1.0  0.72837  0.94050  0.90246  1.0000
  Fe  Fe188     1.0  0.68556  0.53197  0.91341  1.0000
  S   S373      1.0  0.65349  0.52322  0.92938  1.0000
  S   S374      1.0  0.69374  0.57788  0.90641  1.0000
  C   C1639     1.0  0.51562  0.86278  0.81334  1.0000
  S   S375      1.0  0.51064  0.98996  0.79310  1.0000
  C   C1640     1.0  0.80477  0.71276  0.85077  1.0000
  H   H2914     1.0  0.69869  0.92377  0.99500  1.0000
  H   H2915     1.0  0.71613  0.87775  0.98968  1.0000
  H   H2916     1.0  0.96348  0.87727  0.82264  1.0000
  H   H2917     1.0  0.89825  0.68744  0.84678  1.0000
  C   C1641     1.0  0.49224  0.85191  0.82019  1.0000
  H   H2918     1.0  0.82457  0.66403  0.92645  1.0000
  H   H2919     1.0  0.96209  0.85163  0.83957  1.0000
  C   C1642     1.0  0.49260  0.60925  0.82779  1.0000
  H   H2920     1.0  0.85877  0.70118  0.85828  1.0000
  H   H2921     1.0  0.82499  0.71783  0.87384  1.0000
  H   H2922     1.0  0.80706  0.66455  0.89812  1.0000
  C   C1643     1.0  0.96825  0.85538  0.82629  1.0000
  N   N91       1.0  0.83005  0.67461  0.86607  1.0000
  H   H2923     1.0  0.95130  0.65465  0.76334  1.0000
  H   H2924     1.0  0.82349  0.69580  0.90166  1.0000
  S   S376      1.0  0.49671  0.56732  0.77461  1.0000
  H   H2925     1.0  0.88574  0.69213  0.94402  1.0000
  C   C1644     1.0  0.55294  0.92245  0.84759  1.0000
  H   H2926     1.0  0.72002  0.53633  0.98057  1.0000
  Fe  Fe189     1.0  0.48791  0.52821  0.79142  1.0000
  C   C1645     1.0  0.81485  0.70067  0.86764  1.0000
  H   H2927     1.0  0.74189  0.50788  0.95979  1.0000
  H   H2928     1.0  0.52719  0.95311  0.85693  1.0000
  C   C1646     1.0  0.80396  0.76019  0.99248  1.0000
  C   C1647     1.0  0.79805  0.73170  0.99162  1.0000
  C   C1648     1.0  0.54927  0.92911  0.82829  1.0000
  H   H2929     1.0  0.79353  0.72238  0.97944  1.0000
  H   H2930     1.0  0.87731  0.65287  0.86467  1.0000
  C   C1649     1.0  0.74950  0.64300  0.92306  1.0000
  C   C1650     1.0  0.73047  0.65084  0.91284  1.0000
  C   C1651     1.0  0.71361  0.63065  0.90799  1.0000
  C   C1652     1.0  0.71539  0.60241  0.91333  1.0000
  C   C1653     1.0  0.73436  0.59460  0.92366  1.0000
  C   C1654     1.0  0.75128  0.61477  0.92845  1.0000
  H   H2931     1.0  0.72878  0.67240  0.90857  1.0000
  H   H2932     1.0  0.69907  0.63698  0.89998  1.0000
  H   H2933     1.0  0.73610  0.57296  0.92776  1.0000
  H   H2934     1.0  0.76599  0.60839  0.93627  1.0000
  C   C1655     1.0  0.73009  0.90324  0.90532  1.0000
  C   C1656     1.0  0.75228  0.89003  0.90572  1.0000
  C   C1657     1.0  0.75450  0.86048  0.90725  1.0000
  C   C1658     1.0  0.73450  0.84360  0.90802  1.0000
  C   C1659     1.0  0.71229  0.85681  0.90765  1.0000
  C   C1660     1.0  0.71008  0.88642  0.90650  1.0000
  H   H2935     1.0  0.76789  0.90274  0.90470  1.0000
  H   H2936     1.0  0.77170  0.85072  0.90740  1.0000
  H   H2937     1.0  0.69668  0.84402  0.90813  1.0000
  H   H2938     1.0  0.69289  0.89615  0.90596  1.0000
  C   C1661     1.0  0.89586  0.74990  0.84829  1.0000
  C   C1662     1.0  0.87216  0.75866  0.84896  1.0000
  C   C1663     1.0  0.85927  0.75849  0.86447  1.0000
  C   C1664     1.0  0.86973  0.74891  0.87958  1.0000
  C   C1665     1.0  0.89343  0.74024  0.87892  1.0000
  C   C1666     1.0  0.90644  0.74089  0.86348  1.0000
  H   H2939     1.0  0.86372  0.76577  0.83737  1.0000
  H   H2940     1.0  0.84121  0.76556  0.86466  1.0000
  H   H2941     1.0  0.90185  0.73287  0.89045  1.0000
  H   H2942     1.0  0.92457  0.73402  0.86328  1.0000
  H   H2943     1.0  0.79951  0.63045  0.88055  1.0000
  H   H2944     1.0  0.78226  0.65831  0.87091  1.0000
  C   C1667     1.0  0.53165  0.93050  0.85860  1.0000
  H   H2945     1.0  0.82830  0.63107  0.85803  1.0000
  H   H2946     1.0  0.81200  0.65436  0.84511  1.0000
  C   C1668     1.0  0.81681  0.65006  0.85862  1.0000
  H   H2947     1.0  0.56540  0.94043  0.82428  1.0000
  H   H2948     1.0  0.50985  0.61130  0.82130  1.0000
  H   H2949     1.0  0.80815  0.84402  0.99932  1.0000
  N   N92       1.0  0.54487  0.90434  0.81656  1.0000
  C   C1669     1.0  0.53973  0.91598  0.79902  1.0000
  C   C1670     1.0  0.52324  0.88961  0.82307  1.0000
  H   H2950     1.0  0.81903  0.72138  0.84268  1.0000
  C   C1671     1.0  0.56606  0.88499  0.81683  1.0000
  C   C1672     1.0  0.57105  0.86732  0.80042  1.0000
  C   C1673     1.0  0.55851  0.93611  0.79160  1.0000
  S   S377      1.0  0.60993  0.99091  0.90101  1.0000
  H   H2951     1.0  0.75095  0.66730  0.96315  1.0000
  C   C1674     1.0  0.58994  0.84497  0.80364  1.0000
  C   C1675     1.0  0.55538  0.94001  0.77236  1.0000
  H   H2952     1.0  0.52298  0.92815  0.79929  1.0000
  H   H2953     1.0  0.53657  0.89892  0.78961  1.0000
  H   H2954     1.0  0.86251  0.63927  0.84611  1.0000
  H   H2955     1.0  0.84352  0.68548  0.84094  1.0000
  H   H2956     1.0  0.67193  0.91471  0.98432  1.0000
  H   H2957     1.0  0.76938  0.67492  0.98115  1.0000
  H   H2958     1.0  0.58237  0.89716  0.81928  1.0000
  H   H2959     1.0  0.56474  0.87011  0.82776  1.0000
  H   H2960     1.0  0.57748  0.88101  0.78998  1.0000
  H   H2961     1.0  0.55529  0.85648  0.79561  1.0000
  H   H2962     1.0  0.55678  0.95722  0.79770  1.0000
  H   H2963     1.0  0.57656  0.92835  0.79405  1.0000
  H   H2964     1.0  0.48940  0.62847  0.83561  1.0000
  H   H2965     1.0  0.97276  0.74135  0.75569  1.0000
  H   H2966     1.0  0.55842  0.91975  0.76553  1.0000
  H   H2967     1.0  0.89919  0.68623  0.97584  1.0000
  H   H2968     1.0  0.92590  0.68875  0.93263  1.0000
  H   H2969     1.0  0.74400  0.96775  0.95707  1.0000
  H   H2970     1.0  0.93680  0.54525  0.77840  1.0000
  H   H2971     1.0  0.93384  0.71750  0.75349  1.0000
  H   H2972     1.0  0.65895  0.58996  0.94100  1.0000
  H   H2973     1.0  0.86119  0.67882  0.98841  1.0000
  N   N93       1.0  0.70856  0.89118  0.96389  1.0000
  C   C1676     1.0  0.70071  0.88307  0.98162  1.0000
  C   C1677     1.0  0.71996  0.86593  0.95543  1.0000
  C   C1678     1.0  0.72548  0.91534  0.96536  1.0000
  C   C1679     1.0  0.68804  0.90044  0.95307  1.0000
  C   C1680     1.0  0.66678  0.88017  0.95266  1.0000
  H   H2974     1.0  0.60646  0.85494  0.80801  1.0000
  C   C1681     1.0  0.73714  0.92488  0.94845  1.0000
  C   C1682     1.0  0.74303  0.85510  0.96363  1.0000
  C   C1683     1.0  0.75324  0.83024  0.95355  1.0000
  C   C1684     1.0  0.64752  0.89121  0.94086  1.0000
  C   C1685     1.0  0.49150  0.89915  0.75798  1.0000
  H   H2975     1.0  0.82618  0.64070  0.95520  1.0000
  H   H2976     1.0  0.56797  0.93508  0.85235  1.0000
  N   N94       1.0  0.97120  0.49925  0.77087  1.0000
  H   H2977     1.0  0.70778  0.84776  0.95535  1.0000
  H   H2978     1.0  0.72355  0.87024  0.94171  1.0000
  H   H2979     1.0  0.73950  0.91057  0.97480  1.0000
  H   H2980     1.0  0.71635  0.93426  0.97054  1.0000
  H   H2981     1.0  0.68162  0.92169  0.95706  1.0000
  H   H2982     1.0  0.69369  0.90313  0.93956  1.0000
  H   H2983     1.0  0.65889  0.87781  0.96554  1.0000
  H   H2984     1.0  0.67205  0.85905  0.94787  1.0000
  H   H2985     1.0  0.58393  0.82971  0.81343  1.0000
  C   C1686     1.0  0.96136  0.88069  0.76001  1.0000
  H   H2986     1.0  0.72364  0.93217  0.93929  1.0000
  H   H2987     1.0  0.74750  0.90761  0.94248  1.0000
  H   H2988     1.0  0.75658  0.87173  0.96393  1.0000
  H   H2989     1.0  0.73981  0.84767  0.97684  1.0000
  H   H2990     1.0  0.75880  0.83709  0.94063  1.0000
  H   H2991     1.0  0.76890  0.82168  0.96019  1.0000
  H   H2992     1.0  0.74021  0.81309  0.95225  1.0000
  H   H2993     1.0  0.65425  0.89336  0.92759  1.0000
  H   H2994     1.0  0.63266  0.87622  0.94070  1.0000
  H   H2995     1.0  0.64087  0.91195  0.94546  1.0000
  H   H2996     1.0  0.95614  0.84639  0.77790  1.0000
  C   C1687     1.0  0.86956  0.65858  0.85216  1.0000
  H   H2997     1.0  0.93122  0.75534  0.75332  1.0000
  H   H2998     1.0  0.53581  0.92696  0.87229  1.0000
  S   S378      1.0  0.49201  0.53311  0.81994  1.0000
  H   H2999     1.0  0.53738  0.94772  0.76946  1.0000
  C   C1688     1.0  0.75371  0.94953  0.95148  1.0000
  N   N95       1.0  0.87139  0.71753  0.97574  1.0000
  C   C1689     1.0  0.86052  0.73804  0.96331  1.0000
  C   C1690     1.0  0.85466  0.69342  0.97841  1.0000
  H   H3000     1.0  0.68075  0.60278  0.98661  1.0000
  H   H3001     1.0  0.63943  0.98945  0.98350  1.0000
  C   C1691     1.0  0.89962  0.70434  0.95046  1.0000
  C   C1692     1.0  0.87294  0.76691  0.96174  1.0000
  H   H3002     1.0  0.51603  0.91786  0.85527  1.0000
  C   C1693     1.0  0.84958  0.67447  0.96275  1.0000
  H   H3003     1.0  0.76206  0.52766  0.97271  1.0000
  H   H3004     1.0  0.49362  0.84669  0.83398  1.0000
  C   C1694     1.0  0.86533  0.78255  0.94563  1.0000
  H   H3005     1.0  0.78132  0.74594  0.84207  1.0000
  H   H3006     1.0  0.84200  0.74255  0.96697  1.0000
  H   H3007     1.0  0.85933  0.72884  0.95032  1.0000
  H   H3008     1.0  0.76188  0.62415  0.98003  1.0000
  C   C1695     1.0  0.96404  0.63852  0.76007  1.0000
  H   H3009     1.0  0.92321  0.66802  0.95178  1.0000
  C   C1696     1.0  0.50383  0.61948  0.75948  1.0000
  H   H3010     1.0  0.83204  0.64209  0.97782  1.0000
  H   H3011     1.0  0.90016  0.72543  0.94439  1.0000
  C   C1697     1.0  0.89532  0.70712  0.97003  1.0000
  C   C1698     1.0  0.74743  0.63814  0.98450  1.0000
  H   H3012     1.0  0.86818  0.78046  0.97285  1.0000
  H   H3013     1.0  0.89230  0.76441  0.96146  1.0000
  C   C1699     1.0  0.48095  0.89083  0.77334  1.0000
  C   C1700     1.0  0.78096  0.61866  0.85806  1.0000
  H   H3014     1.0  0.84517  0.68686  0.95127  1.0000
  C   C1701     1.0  0.92308  0.68983  0.94667  1.0000
  H   H3015     1.0  0.85355  0.66903  0.91773  1.0000
  H   H3016     1.0  0.93327  0.50149  0.76963  1.0000
  H   H3017     1.0  0.75213  0.57614  0.98129  1.0000
  H   H3018     1.0  0.94869  0.89435  0.76624  1.0000
  H   H3019     1.0  0.87410  0.80333  0.94505  1.0000
  H   H3020     1.0  0.87018  0.77036  0.93399  1.0000
  H   H3021     1.0  0.75559  0.53878  0.95105  1.0000
  C   C1702     1.0  0.94840  0.49570  0.76133  1.0000
  C   C1703     1.0  0.96559  0.85338  0.76670  1.0000
  H   H3022     1.0  0.70944  0.64094  0.98419  1.0000
  N   N96       1.0  0.71809  0.59636  0.98317  1.0000
  C   C1704     1.0  0.69299  0.59064  0.97820  1.0000
  H   H3023     1.0  0.86512  0.66100  0.95992  1.0000
  C   C1705     1.0  0.72322  0.62672  0.97874  1.0000
  C   C1706     1.0  0.73553  0.57763  0.97387  1.0000
  C   C1707     1.0  0.72763  0.54724  0.96946  1.0000
  C   C1708     1.0  0.68643  0.59793  0.95947  1.0000
  S   S379      1.0  0.48660  0.96818  0.82855  1.0000
  H   H3024     1.0  0.69011  0.86348  0.98121  1.0000
  H   H3025     1.0  0.76135  0.95620  0.93907  1.0000
  C   C1709     1.0  0.74816  0.52941  0.96286  1.0000
  C   C1710     1.0  0.66261  0.58576  0.95471  1.0000
  H   H3026     1.0  0.51340  0.86671  0.79951  1.0000
  H   H3027     1.0  0.64848  0.59557  0.96256  1.0000
  H   H3028     1.0  0.93777  0.70185  0.95241  1.0000
  H   H3029     1.0  0.85652  0.74226  0.99653  1.0000
  H   H3030     1.0  0.56816  0.95569  0.76757  1.0000
  H   H3031     1.0  0.94379  0.58046  0.80075  1.0000
  H   H3032     1.0  0.72263  0.62976  0.96462  1.0000
  H   H3033     1.0  0.74066  0.58715  0.96143  1.0000
  H   H3034     1.0  0.55779  0.90017  0.84995  1.0000
  H   H3035     1.0  0.71408  0.54751  0.95930  1.0000
  H   H3036     1.0  0.90931  0.72135  0.97485  1.0000
  H   H3037     1.0  0.68519  0.62111  0.95776  1.0000
  H   H3038     1.0  0.69971  0.58969  0.95034  1.0000
  C   C1711     1.0  0.85007  0.68143  0.85409  1.0000
  H   H3039     1.0  0.53501  0.94511  0.82697  1.0000
  H   H3040     1.0  0.49695  0.92076  0.75645  1.0000
  H   H3041     1.0  0.52179  0.61667  0.76361  1.0000
  H   H3042     1.0  0.62514  0.99224  0.86476  1.0000
  S   S380      1.0  0.67648  0.49874  0.89370  1.0000
  H   H3043     1.0  0.52569  0.88262  0.83646  1.0000
  C   C1712     1.0  0.83605  0.65973  0.91527  1.0000
  C   C1713     1.0  0.95885  0.57174  0.79337  1.0000
  C   C1714     1.0  0.82882  0.65505  0.96626  1.0000
  H   H3044     1.0  0.79979  0.69713  0.87631  1.0000
  H   H3045     1.0  0.68840  0.56824  0.98032  1.0000
  C   C1715     1.0  0.68691  0.90610  0.99169  1.0000
  H   H3046     1.0  0.83761  0.70169  0.98333  1.0000
  H   H3047     1.0  0.66253  0.56264  0.95675  1.0000
  Fe  Fe190     1.0  0.67775  0.99123  0.94454  1.0000
  H   H3048     1.0  0.84606  0.64468  0.88344  1.0000
  H   H3049     1.0  0.84607  0.78614  0.94580  1.0000
  C   C1716     1.0  0.88953  0.66905  0.84080  1.0000
  H   H3050     1.0  0.50806  0.90462  0.82325  1.0000
  C   C1717     1.0  0.82504  0.67279  0.89936  1.0000
  H   H3051     1.0  0.76820  0.94325  0.96015  1.0000
  C   C1718     1.0  0.78763  0.73699  0.85433  1.0000
  H   H3052     1.0  0.85667  0.67970  0.88561  1.0000
  C   C1719     1.0  0.95270  0.54258  0.78642  1.0000
  H   H3053     1.0  0.76542  0.61177  0.86553  1.0000
  Fe  Fe191     1.0  0.64832  0.99232  0.91079  1.0000
  H   H3054     1.0  0.79521  0.69646  0.84346  1.0000
  C   C1720     1.0  0.75172  0.66756  0.97731  1.0000
  C   C1721     1.0  0.79451  0.64060  0.86833  1.0000
  H   H3055     1.0  0.79215  0.59989  0.85538  1.0000
  H   H3056     1.0  0.79636  0.75401  0.86168  1.0000
  H   H3057     1.0  0.97431  0.57058  0.80195  1.0000
  S   S381      1.0  0.97400  0.78077  0.81741  1.0000
  H   H3058     1.0  0.73844  0.68276  0.98227  1.0000
  H   H3059     1.0  0.83776  0.63654  0.91377  1.0000
  H   H3060     1.0  0.59363  0.83322  0.79162  1.0000
  H   H3061     1.0  0.88289  0.67529  0.82801  1.0000
  Fe  Fe192     1.0  0.48120  0.96085  0.80008  1.0000
  C   C1722     1.0  0.48725  0.59852  0.76340  1.0000
  H   H3062     1.0  0.81248  0.66763  0.96808  1.0000
  C   C1723     1.0  0.84044  0.66719  0.88328  1.0000
  H   H3063     1.0  0.52875  0.84573  0.81523  1.0000
  H   H3064     1.0  0.88584  0.75060  0.99161  1.0000
  C   C1724     1.0  0.79025  0.85340  0.99887  1.0000
  S   S382      1.0  0.70842  0.50237  0.92814  1.0000
  S   S383      1.0  0.68867  0.98398  0.97234  1.0000
  C   C1725     1.0  0.87367  0.73249  0.99274  1.0000
  C   C1726     1.0  0.65038  0.98637  0.99461  1.0000
  C   C1727     1.0  0.67464  0.98330  0.99262  1.0000
  H   H3065     1.0  0.94841  0.52881  0.79741  1.0000
  H   H3066     1.0  0.97471  0.54319  0.76388  1.0000
  C   C1728     1.0  0.97316  0.53006  0.77563  1.0000
  H   H3067     1.0  0.79158  0.87672  0.99864  1.0000
  H   H3068     1.0  0.49340  0.59065  0.83635  1.0000
  S   S384      1.0  0.97685  0.71256  0.82551  1.0000
  H   H3069     1.0  0.96272  0.58637  0.78271  1.0000
  H   H3070     1.0  0.95902  0.84052  0.81767  1.0000
  H   H3071     1.0  0.74828  0.64004  0.99862  1.0000
  H   H3072     1.0  0.73686  0.49388  0.85731  1.0000
