data_image0
_chemical_formula_structural       FeS2FeS2FeSFeS3FeS4FeSFeCS2FeS2FeCH2CFeHS2FeSFeS2FeHFeHFeS3HCH2C10H5SH3C2H6C6H4C6H4CHCH2C6H5NC8HCH12NHCH9CHC3H3FeCH4CHC3H3NH4CNC8SC3H24CH2NC5HC4HCH6SH4FeH7CH5FeHC2H12C3HCHC2NH3CHCH2CHFeH2CH7SCHCH3C2H2CH6C5H6CNHCH2C2H2C2H2CH3SCH2CSH2C2H4CH3SHCH7CH4SCSHCFeHFeS2C2SH5CHCHC2H3CHC3H7CH3C2H4CH2C4HCHNC3H2C7H9CH6S2H12CH2SCH2CH3CHC2HNHC3H6FeHC2H2CHC2HC2H5CH2CH6NCH3CHC2H3CSHCHC6NFeSFeS2FeS2FeSFeS3FeS2CHCHCHSCSH3C3H4C6H4C3HC2H6C7H4C6H5CHCHCHCH2SCH11C2HCH5CH6SH2C2H5CSHCH4FeH2CH4NC3NC6H10CH4FeHC2HCSHNC12H33CHC2HCH4C2SC2H4CSH3CHCH6C2H4FeC2H4CH2NHC2H2CHSH2CH2CFeSHCHC3SNH2CHC2H8CH4C3H5C3H4CHC3HCH5C3H2CH3CH2SHCHCHFeS2FeS2FeSFeS3FeS2CS2H2CHSHFeSH2SC7H2C9H4C6H6C7H4FeH3C6H5C2H2SH2CH6CH3SH3NC2HC5H11CFeH5CH2CH4CHNC12H26NC3H2CSC2HCH5SHFeH2CH2CH4SHCHCH14SH8NC2HC7H17CHCH4FeH2NC12H5CH2SH5SC2H3C2H2FeH9CH3CHCHC2HFeSH3C2H2CHCHC2H2FeCHNSFeS2HCH3S3CH3CH3CH3CHC3H2C4HCHC6FeHCHCH7FeH5C2SH6C4HC2HCH2CNCH3C2H8C2H8C3H3SH2CNFeCH5CHSNC3H3CH3CH8C2HCH2C2FeS2CHFeH2S2FeS2FeS2FeSFeS3FeS2FeS2FeSFeS3FeHSCFeSHFeSHFeHFeSHSHCH2CFeH6SC6H7CH2CHC5H3C6H4C6H4C2H3C6H3NC7HC4H13SHSH10CNC5H13C2HCHC2NC9H14CH2NC6HC3H3FeH19CH2NC4HC2H8SHSCH6C2H2CH6CH2C3H3CHCH4SCHCH3C3H9CH2CH3CHCNFeH9CHCH4C2HNC2H2CSCH4C3S2H3CH9NH3C3HC2H6CH2CH3CH4CHC3H2C2H5CSH2CNHCH4CH3C3H2C2HC2H2CHCH3CH5C2HC2H6CFeH3CH5CHCH3SH2CHCH6CHCH2CHCHCH3FeS2FeSCFeSFeSFeS2FeCHFeHFeCS2H3SCH5FeS2FeS2FeHSFeS2FeSHFeSFeS3FeHS2HC6H3C2HC4H3CHC4H7CH5C2H4CH4NH2C7H3SC6H4C4H2C6H4SNC4HC4HC2H8C2H9CH6NC9HC2H11CH9CH2CH3C3H14SHCH2CHSC3H2CH5C2HCH2CH2CH7CH2C2NCH2CH2C2HSH4C3H2S2HCH5C2FeNHCH3FeCH3C3HCH3CNC2H2SH5FeCHCH2S2C2HCHCH6CHCH3CH3FeCH3C2H3CFeSHCSH2CH2FeCHC3H3NH2C2HC2HCNH4CH4CH3SH3C3HCHC2H3CHCHCH2C2HCNCHC2HCHSHSH4C2HSHCH2FeH2C2H2CH4SHC2SH4S3CH2CHSH3FeSHSHC3H4C3FeH2SHCHCSC2FeHCH3CHC4H6CH2C3H4CFeC6H7SFeHCSH2C2HCHCH4NC2H2C2H4CH8CH2CH5CH3CSCH2CHCHC2HC2H3CNC2H2CHCH4FeSHSH7CH4CHCH2CH4C3NS2C3H3C5H6SCHNH2SC2SH9NH4CSHSH3C2HC2H2CFeCHFeS2FeH2SH2CH3CHCHC2HSHC2H6CHCHSHC3SH3CH2C5H4CH9CH5SHCHCH2CH4C4H8NH3SH3CH3C4HCSCHCHNCH2CHCHSHCH3CH4C2H2C2H4SHC2HCH2CH2CH2CH2CH2CHCFeHFeHCH2C2H2CFeH3SFeSFeS2H2S2FeS2FeS2FeHSHSCFeSFeS2FeS2FeSFeS3FeS2CSFeHCSFeS2FeS2FeSFeS3C6H4C4H4C7H4SC2HCH2C4HC2HC2H2C3H2CH3FeHC4H5C6H4C4H4C2H5CH2NC12H28C4HCNC2NH4NHC2HCH10SH2C2H2CHSHSH6CHCHCNHCHNC6HC4H24CHCNC4HCHC3H2CH9CH6C2H6C5HFeC2H3CHCH2CHCSHSHCH2CFeH3CH2CHC2H4CH3CHFeHCNC2H2SC2H4CH2CH3CH8CHCH6C3HCH2C5HCH4NFeC3H3FeH3CHCH10CHNCH7CSC2SH4CH3C2H3CHC2H2CHCHCHC3H5CSCHCHCH7FeCHSHCH9SHSHCSH2CHCH10CH2C2H3CH6C4HCH6FeNC5H5CH3CH3C2H3CHCH2C2H4CH4SC2H2CHNHC11H10CH12CH4NCH3CHC2H2CH7C2H2CH6C2HSCFeH6CHSCH5CHCH2CHCHCH2CNCH
_chemical_formula_sum              "Fe128 S256 C1152 H2048 N64"
_cell_length_a       50.8049
_cell_length_b       51.556
_cell_length_c       50.7768
_cell_angle_alpha    89.8801
_cell_angle_beta     87.5987
_cell_angle_gamma    88.8438

_space_group_name_H-M_alt    "P 1"
_space_group_IT_number       1

loop_
  _space_group_symop_operation_xyz
  'x, y, z'

loop_
  _atom_site_type_symbol
  _atom_site_label
  _atom_site_symmetry_multiplicity
  _atom_site_fract_x
  _atom_site_fract_y
  _atom_site_fract_z
  _atom_site_occupancy
  Fe  Fe1       1.0  0.18629  0.18242  0.18957  1.0000
  S   S1        1.0  0.16554  0.21855  0.20562  1.0000
  S   S2        1.0  0.17405  0.15466  0.15682  1.0000
  Fe  Fe2       1.0  0.23574  0.19309  0.22166  1.0000
  S   S3        1.0  0.21830  0.22893  0.24077  1.0000
  S   S4        1.0  0.27809  0.17957  0.22480  1.0000
  Fe  Fe3       1.0  0.18125  0.20598  0.24473  1.0000
  S   S5        1.0  0.15388  0.20806  0.28102  1.0000
  Fe  Fe4       1.0  0.20448  0.23855  0.20050  1.0000
  S   S6        1.0  0.21482  0.27740  0.18248  1.0000
  S   S7        1.0  0.19989  0.16876  0.22913  1.0000
  S   S8        1.0  0.22399  0.20384  0.18104  1.0000
  Fe  Fe5       1.0  0.06749  0.05450  0.09725  1.0000
  S   S9        1.0  0.02672  0.06059  0.08151  1.0000
  S   S10       1.0  0.07720  0.08220  0.13096  1.0000
  S   S11       1.0  0.44650  0.29257  0.22389  1.0000
  S   S12       1.0  0.04017  0.01250  0.04136  1.0000
  Fe  Fe6       1.0  0.04691  0.05501  0.04175  1.0000
  S   S13       1.0  0.40504  0.19604  0.48396  1.0000
  Fe  Fe7       1.0  0.02337  0.01729  0.08244  1.0000
  C   C1        1.0  0.29693  0.26987  0.46733  1.0000
  S   S14       1.0  0.08772  0.05127  0.05690  1.0000
  S   S15       1.0  0.06226  0.01108  0.10144  1.0000
  Fe  Fe8       1.0  0.19415  0.24366  0.42873  1.0000
  S   S16       1.0  0.18214  0.22384  0.46697  1.0000
  S   S17       1.0  0.20716  0.22333  0.39060  1.0000
  Fe  Fe9       1.0  0.20674  0.29357  0.45692  1.0000
  C   C2        1.0  0.27427  0.24595  0.36123  1.0000
  H   H1        1.0  0.17492  0.32633  0.16864  1.0000
  H   H2        1.0  0.34198  0.20224  0.49678  1.0000
  C   C3        1.0  0.37724  0.30637  0.25832  1.0000
  Fe  Fe10      1.0  0.16058  0.26164  0.47737  1.0000
  H   H3        1.0  0.28683  0.12234  0.22224  1.0000
  S   S18       1.0  0.23127  0.25896  0.44475  1.0000
  S   S19       1.0  0.17035  0.28030  0.43784  1.0000
  Fe  Fe11      1.0  0.43870  0.22323  0.47892  1.0000
  S   S20       1.0  0.43726  0.25357  0.44727  1.0000
  Fe  Fe12      1.0  0.40419  0.22883  0.28345  1.0000
  S   S21       1.0  0.41875  0.22576  0.24142  1.0000
  S   S22       1.0  0.36085  0.23293  0.29569  1.0000
  Fe  Fe13      1.0  0.46019  0.22823  0.30218  1.0000
  H   H4        1.0  0.37383  0.14168  0.47129  1.0000
  Fe  Fe14      1.0  0.44739  0.25690  0.25147  1.0000
  H   H5        1.0  0.44402  0.14286  0.34996  1.0000
  Fe  Fe15      1.0  0.44787  0.19574  0.25579  1.0000
  S   S23       1.0  0.45428  0.15675  0.23486  1.0000
  S   S24       1.0  0.43164  0.26072  0.29337  1.0000
  S   S25       1.0  0.43093  0.19677  0.29708  1.0000
  H   H6        1.0  0.37111  0.32162  0.20545  1.0000
  C   C4        1.0  0.46305  0.12446  0.24461  1.0000
  H   H7        1.0  0.24683  0.32255  0.18452  1.0000
  H   H8        1.0  0.20982  0.31148  0.28994  1.0000
  C   C5        1.0  0.47686  0.09085  0.27592  1.0000
  C   C6        1.0  0.47050  0.11726  0.27007  1.0000
  C   C7        1.0  0.05045  0.24598  0.48847  1.0000
  C   C8        1.0  0.21583  0.30538  0.36564  1.0000
  C   C9        1.0  0.45034  0.24420  0.41631  1.0000
  C   C10       1.0  0.44260  0.25766  0.39385  1.0000
  C   C11       1.0  0.45331  0.25073  0.36889  1.0000
  C   C12       1.0  0.47250  0.23098  0.36659  1.0000
  C   C13       1.0  0.13083  0.17531  0.47888  1.0000
  C   C14       1.0  0.46899  0.22397  0.41391  1.0000
  H   H9        1.0  0.42817  0.27335  0.39572  1.0000
  H   H10       1.0  0.44723  0.26108  0.35156  1.0000
  H   H11       1.0  0.32874  0.14834  0.32546  1.0000
  H   H12       1.0  0.39405  0.29257  0.25481  1.0000
  H   H13       1.0  0.10283  0.04870  0.25940  1.0000
  S   S26       1.0  0.47831  0.22634  0.26100  1.0000
  H   H14       1.0  0.29622  0.09353  0.23989  1.0000
  H   H15       1.0  0.35020  0.27725  0.48036  1.0000
  H   H16       1.0  0.19240  0.26435  0.32276  1.0000
  C   C15       1.0  0.21540  0.29289  0.29956  1.0000
  C   C16       1.0  0.39254  0.24128  0.17763  1.0000
  H   H17       1.0  0.19555  0.31925  0.40150  1.0000
  H   H18       1.0  0.42769  0.06781  0.28944  1.0000
  H   H19       1.0  0.38134  0.32460  0.24740  1.0000
  H   H20       1.0  0.07642  0.20380  0.05952  1.0000
  H   H21       1.0  0.09719  0.12673  0.00713  1.0000
  H   H22       1.0  0.35177  0.25257  0.17876  1.0000
  C   C17       1.0  0.29999  0.19785  0.24288  1.0000
  C   C18       1.0  0.32674  0.19747  0.23494  1.0000
  C   C19       1.0  0.34542  0.20898  0.25056  1.0000
  C   C20       1.0  0.33748  0.22083  0.27438  1.0000
  C   C21       1.0  0.31056  0.22221  0.28185  1.0000
  C   C22       1.0  0.29180  0.21082  0.26608  1.0000
  H   H23       1.0  0.33306  0.18772  0.21687  1.0000
  H   H24       1.0  0.36603  0.20776  0.24461  1.0000
  H   H25       1.0  0.30429  0.23134  0.30028  1.0000
  H   H26       1.0  0.27120  0.21106  0.27243  1.0000
  C   C23       1.0  0.16863  0.21277  0.31143  1.0000
  C   C24       1.0  0.19554  0.20784  0.31397  1.0000
  C   C25       1.0  0.20685  0.21106  0.33848  1.0000
  C   C26       1.0  0.19156  0.21991  0.36047  1.0000
  C   C27       1.0  0.16470  0.22526  0.35788  1.0000
  C   C28       1.0  0.15320  0.22133  0.33346  1.0000
  H   H27       1.0  0.20755  0.20108  0.29717  1.0000
  H   H28       1.0  0.22760  0.20669  0.34041  1.0000
  H   H29       1.0  0.15277  0.23197  0.37474  1.0000
  H   H30       1.0  0.13235  0.22518  0.33158  1.0000
  C   C29       1.0  0.21356  0.30421  0.20390  1.0000
  H   H31       1.0  0.25347  0.30459  0.49131  1.0000
  C   C30       1.0  0.19388  0.30648  0.22386  1.0000
  H   H32       1.0  0.12354  0.13432  0.04776  1.0000
  H   H33       1.0  0.17983  0.29114  0.22689  1.0000
  C   C31       1.0  0.10434  0.10241  0.13720  1.0000
  C   C32       1.0  0.10151  0.12097  0.15750  1.0000
  C   C33       1.0  0.12244  0.13726  0.16349  1.0000
  C   C34       1.0  0.14677  0.13489  0.14972  1.0000
  C   C35       1.0  0.14948  0.11662  0.12913  1.0000
  C   C36       1.0  0.12841  0.10055  0.12281  1.0000
  H   H34       1.0  0.08290  0.12283  0.16856  1.0000
  H   H35       1.0  0.11980  0.15178  0.17863  1.0000
  H   H36       1.0  0.16811  0.11475  0.11810  1.0000
  H   H37       1.0  0.13098  0.08641  0.10716  1.0000
  H   H38       1.0  0.27291  0.22837  0.34878  1.0000
  N   N1        1.0  0.07307  0.14895  0.06748  1.0000
  C   C37       1.0  0.07599  0.16447  0.04232  1.0000
  C   C38       1.0  0.08372  0.12157  0.06314  1.0000
  C   C39       1.0  0.04384  0.14726  0.07417  1.0000
  C   C40       1.0  0.08576  0.16162  0.09039  1.0000
  C   C41       1.0  0.11521  0.16841  0.08654  1.0000
  C   C42       1.0  0.42543  0.10985  0.33419  1.0000
  C   C43       1.0  0.03592  0.13048  0.09854  1.0000
  C   C44       1.0  0.11028  0.11769  0.04692  1.0000
  H   H39       1.0  0.37257  0.29491  0.29960  1.0000
  C   C45       1.0  0.12358  0.18688  0.10804  1.0000
  H   H40       1.0  0.09048  0.23661  0.47477  1.0000
  H   H41       1.0  0.15601  0.15657  0.31875  1.0000
  H   H42       1.0  0.11933  0.15932  0.47074  1.0000
  H   H43       1.0  0.09671  0.16475  0.03475  1.0000
  H   H44       1.0  0.08668  0.11201  0.08248  1.0000
  H   H45       1.0  0.06884  0.10933  0.05376  1.0000
  H   H46       1.0  0.03348  0.13945  0.05699  1.0000
  H   H47       1.0  0.03499  0.16678  0.07830  1.0000
  H   H48       1.0  0.07447  0.17949  0.09655  1.0000
  H   H49       1.0  0.08468  0.14876  0.10802  1.0000
  H   H50       1.0  0.11971  0.17797  0.06739  1.0000
  H   H51       1.0  0.12750  0.15045  0.08796  1.0000
  N   N2        1.0  0.30680  0.31637  0.48434  1.0000
  H   H52       1.0  0.07271  0.06663  0.26837  1.0000
  C   C46       1.0  0.34906  0.29071  0.49742  1.0000
  H   H53       1.0  0.04406  0.11054  0.09649  1.0000
  H   H54       1.0  0.24591  0.32754  0.34593  1.0000
  H   H55       1.0  0.12129  0.10120  0.05579  1.0000
  H   H56       1.0  0.27662  0.31217  0.31612  1.0000
  H   H57       1.0  0.11387  0.20621  0.10587  1.0000
  H   H58       1.0  0.11836  0.17909  0.12792  1.0000
  H   H59       1.0  0.14528  0.18929  0.10651  1.0000
  H   H60       1.0  0.29337  0.23345  0.44646  1.0000
  H   H61       1.0  0.18450  0.15053  0.29690  1.0000
  C   C47       1.0  0.07796  0.24957  0.48669  1.0000
  H   H62       1.0  0.46857  0.29666  0.48897  1.0000
  C   C48       1.0  0.00600  0.12846  0.10192  1.0000
  C   C49       1.0  0.37096  0.27133  0.21213  1.0000
  C   C50       1.0  0.35466  0.15647  0.29122  1.0000
  H   H63       1.0  0.02542  0.32964  0.46017  1.0000
  H   H64       1.0  0.45654  0.11026  0.20567  1.0000
  H   H65       1.0  0.40113  0.15574  0.17684  1.0000
  Fe  Fe16      1.0  0.49559  0.00575  0.28963  1.0000
  C   C51       1.0  0.30153  0.29898  0.46129  1.0000
  H   H66       1.0  0.39538  0.32070  0.29319  1.0000
  H   H67       1.0  0.38911  0.22374  0.18995  1.0000
  H   H68       1.0  0.34776  0.30994  0.18387  1.0000
  H   H69       1.0  0.40783  0.17341  0.20627  1.0000
  C   C52       1.0  0.43990  0.07366  0.49695  1.0000
  H   H70       1.0  0.15176  0.17261  0.47202  1.0000
  C   C53       1.0  0.46368  0.13799  0.40813  1.0000
  C   C54       1.0  0.29881  0.28243  0.23488  1.0000
  C   C55       1.0  0.27381  0.27035  0.22515  1.0000
  H   H71       1.0  0.16454  0.29459  0.27944  1.0000
  H   H72       1.0  0.32562  0.25437  0.21809  1.0000
  H   H73       1.0  0.30208  0.27450  0.25488  1.0000
  N   N3        1.0  0.34853  0.28939  0.22100  1.0000
  H   H74       1.0  0.26945  0.27776  0.20521  1.0000
  H   H75       1.0  0.27598  0.24888  0.22425  1.0000
  H   H76       1.0  0.25683  0.27545  0.23876  1.0000
  H   H77       1.0  0.49861  0.05221  0.48198  1.0000
  C   C56       1.0  0.46199  0.10512  0.22540  1.0000
  N   N4        1.0  0.12549  0.12643  0.24827  1.0000
  C   C57       1.0  0.11322  0.10186  0.25883  1.0000
  C   C58       1.0  0.13855  0.14072  0.27008  1.0000
  C   C59       1.0  0.10351  0.14365  0.23838  1.0000
  C   C60       1.0  0.14464  0.12101  0.22531  1.0000
  C   C61       1.0  0.16854  0.10300  0.23059  1.0000
  C   C62       1.0  0.09817  0.08562  0.23881  1.0000
  C   C63       1.0  0.11059  0.17234  0.23227  1.0000
  C   C64       1.0  0.15197  0.12425  0.29159  1.0000
  S   S27       1.0  0.48708  0.22279  0.33590  1.0000
  C   C65       1.0  0.18415  0.09657  0.20495  1.0000
  C   C66       1.0  0.08682  0.06131  0.25185  1.0000
  C   C67       1.0  0.08794  0.18674  0.21928  1.0000
  H   H78       1.0  0.09924  0.10668  0.27571  1.0000
  H   H79       1.0  0.12822  0.08859  0.26707  1.0000
  H   H80       1.0  0.15322  0.15443  0.26148  1.0000
  H   H81       1.0  0.12381  0.15308  0.28143  1.0000
  H   H82       1.0  0.08654  0.14429  0.25306  1.0000
  H   H83       1.0  0.09578  0.13556  0.21999  1.0000
  H   H84       1.0  0.13425  0.11274  0.20856  1.0000
  H   H85       1.0  0.15298  0.13929  0.21739  1.0000
  H   H86       1.0  0.16240  0.08440  0.23965  1.0000
  H   H87       1.0  0.18219  0.11291  0.24355  1.0000
  H   H88       1.0  0.08141  0.09686  0.23089  1.0000
  H   H89       1.0  0.11145  0.07912  0.22211  1.0000
  H   H90       1.0  0.12831  0.17377  0.21896  1.0000
  H   H91       1.0  0.11441  0.18297  0.25062  1.0000
  H   H92       1.0  0.13667  0.11508  0.30462  1.0000
  H   H93       1.0  0.16492  0.10860  0.28327  1.0000
  H   H94       1.0  0.23066  0.29481  0.37727  1.0000
  H   H95       1.0  0.48263  0.08540  0.29545  1.0000
  H   H96       1.0  0.20109  0.08348  0.20914  1.0000
  H   H97       1.0  0.17155  0.08674  0.19080  1.0000
  H   H98       1.0  0.19197  0.11453  0.19566  1.0000
  H   H99       1.0  0.32079  0.25269  0.43497  1.0000
  H   H100      1.0  0.28759  0.26175  0.42651  1.0000
  H   H101      1.0  0.46688  0.06464  0.21592  1.0000
  C   C68       1.0  0.35076  0.31403  0.20501  1.0000
  H   H102      1.0  0.09357  0.20714  0.21533  1.0000
  H   H103      1.0  0.39029  0.28078  0.21392  1.0000
  N   N5        1.0  0.41534  0.15120  0.39850  1.0000
  C   C69       1.0  0.44346  0.15960  0.40097  1.0000
  C   C70       1.0  0.39781  0.17413  0.39155  1.0000
  C   C71       1.0  0.40597  0.14119  0.42523  1.0000
  C   C72       1.0  0.41320  0.12948  0.37889  1.0000
  C   C73       1.0  0.42396  0.13480  0.35045  1.0000
  H   H104      1.0  0.44583  0.06994  0.47657  1.0000
  C   C74       1.0  0.37620  0.13514  0.42876  1.0000
  C   C75       1.0  0.40991  0.19506  0.37297  1.0000
  C   C76       1.0  0.38894  0.21412  0.36343  1.0000
  C   C77       1.0  0.22879  0.31621  0.33969  1.0000
  H   H105      1.0  0.36183  0.15747  0.33328  1.0000
  C   C78       1.0  0.36946  0.12623  0.45696  1.0000
  H   H106      1.0  0.44410  0.17508  0.41624  1.0000
  H   H107      1.0  0.45137  0.16868  0.38256  1.0000
  H   H108      1.0  0.37938  0.16733  0.38290  1.0000
  H   H109      1.0  0.39140  0.18508  0.40974  1.0000
  H   H110      1.0  0.41058  0.15537  0.44087  1.0000
  H   H111      1.0  0.41662  0.12288  0.43017  1.0000
  S   S28       1.0  0.43847  0.12522  0.48269  1.0000
  H   H112      1.0  0.39225  0.12423  0.37703  1.0000
  H   H113      1.0  0.04204  0.23028  0.47772  1.0000
  H   H114      1.0  0.41047  0.14849  0.34050  1.0000
  H   H115      1.0  0.33490  0.30695  0.25812  1.0000
  Fe  Fe17      1.0  0.07910  0.00849  0.05982  1.0000
  H   H116      1.0  0.37078  0.11937  0.41532  1.0000
  H   H117      1.0  0.36362  0.15246  0.42494  1.0000
  H   H118      1.0  0.42409  0.20635  0.38400  1.0000
  H   H119      1.0  0.42061  0.18673  0.35551  1.0000
  H   H120      1.0  0.39849  0.22922  0.35086  1.0000
  H   H121      1.0  0.37453  0.20400  0.35145  1.0000
  H   H122      1.0  0.37845  0.22389  0.38041  1.0000
  C   C79       1.0  0.47556  0.07159  0.25635  1.0000
  H   H123      1.0  0.24665  0.32628  0.26728  1.0000
  H   H124      1.0  0.37416  0.27791  0.16924  1.0000
  H   H125      1.0  0.39860  0.15086  0.25138  1.0000
  H   H126      1.0  0.07614  0.05010  0.23714  1.0000
  H   H127      1.0  0.38328  0.12715  0.29873  1.0000
  Fe  Fe18      1.0  0.43537  0.16691  0.49736  1.0000
  H   H128      1.0  0.38102  0.10843  0.46178  1.0000
  C   C80       1.0  0.48059  0.21786  0.38911  1.0000
  C   C81       1.0  0.26057  0.30741  0.30277  1.0000
  H   H129      1.0  0.40600  0.10036  0.33445  1.0000
  H   H130      1.0  0.36044  0.32743  0.29250  1.0000
  H   H131      1.0  0.24824  0.25625  0.31321  1.0000
  H   H132      1.0  0.22242  0.27963  0.28327  1.0000
  H   H133      1.0  0.26906  0.29236  0.28896  1.0000
  H   H134      1.0  0.49782  0.31514  0.48202  1.0000
  H   H135      1.0  0.28856  0.27111  0.33047  1.0000
  H   H136      1.0  0.04311  0.13896  0.11691  1.0000
  H   H137      1.0  0.45873  0.12945  0.42769  1.0000
  H   H138      1.0  0.29373  0.24562  0.37040  1.0000
  H   H139      1.0  0.49037  0.31298  0.25328  1.0000
  H   H140      1.0  0.33790  0.16108  0.27877  1.0000
  C   C82       1.0  0.32295  0.27583  0.21617  1.0000
  C   C83       1.0  0.24542  0.27075  0.32943  1.0000
  C   C84       1.0  0.27131  0.27052  0.34467  1.0000
  H   H141      1.0  0.06996  0.18688  0.23251  1.0000
  C   C85       1.0  0.36528  0.12829  0.28693  1.0000
  H   H142      1.0  0.47509  0.21368  0.43125  1.0000
  C   C86       1.0  0.29985  0.25353  0.44222  1.0000
  C   C87       1.0  0.20423  0.32737  0.38292  1.0000
  N   N6        1.0  0.23719  0.29681  0.31845  1.0000
  H   H143      1.0  0.33856  0.18159  0.32232  1.0000
  H   H144      1.0  0.17763  0.12915  0.32437  1.0000
  H   H145      1.0  0.42296  0.11148  0.38621  1.0000
  C   C88       1.0  0.46799  0.07912  0.23122  1.0000
  H   H146      1.0  0.41192  0.10863  0.26683  1.0000
  C   C89       1.0  0.06645  0.19324  0.04387  1.0000
  H   H147      1.0  0.31173  0.10075  0.20796  1.0000
  H   H148      1.0  0.34816  0.12187  0.45914  1.0000
  C   C90       1.0  0.30368  0.10925  0.22678  1.0000
  H   H149      1.0  0.27680  0.26735  0.47615  1.0000
  Fe  Fe19      1.0  0.21846  0.24135  0.48318  1.0000
  H   H150      1.0  0.44034  0.09610  0.34200  1.0000
  H   H151      1.0  0.37055  0.17047  0.28645  1.0000
  C   C91       1.0  0.33590  0.31678  0.48942  1.0000
  H   H152      1.0  0.40734  0.03971  0.28967  1.0000
  H   H153      1.0  0.35101  0.11499  0.29689  1.0000
  H   H154      1.0  0.22968  0.26253  0.34254  1.0000
  H   H155      1.0  0.25870  0.24551  0.37724  1.0000
  H   H156      1.0  0.17951  0.29722  0.32476  1.0000
  H   H157      1.0  0.37274  0.06326  0.26717  1.0000
  H   H158      1.0  0.35449  0.09544  0.22940  1.0000
  S   S29       1.0  0.19623  0.27723  0.49665  1.0000
  C   C92       1.0  0.39344  0.16070  0.19703  1.0000
  H   H159      1.0  0.37137  0.25398  0.22525  1.0000
  C   C93       1.0  0.49141  0.14874  0.40941  1.0000
  H   H160      1.0  0.15162  0.26855  0.29927  1.0000
  H   H161      1.0  0.47161  0.13199  0.28510  1.0000
  H   H162      1.0  0.42057  0.05202  0.25877  1.0000
  C   C94       1.0  0.18922  0.28245  0.31157  1.0000
  C   C95       1.0  0.16994  0.27665  0.29015  1.0000
  H   H163      1.0  0.27215  0.28756  0.35789  1.0000
  H   H164      1.0  0.33992  0.09211  0.26131  1.0000
  C   C96       1.0  0.41241  0.05768  0.27863  1.0000
  H   H165      1.0  0.36623  0.15776  0.24181  1.0000
  H   H166      1.0  0.04485  0.19476  0.04781  1.0000
  H   H167      1.0  0.08352  0.17753  0.20025  1.0000
  H   H168      1.0  0.31703  0.27916  0.19553  1.0000
  H   H169      1.0  0.29511  0.30352  0.23662  1.0000
  H   H170      1.0  0.12308  0.19400  0.47108  1.0000
  C   C97       1.0  0.16851  0.14120  0.30891  1.0000
  C   C98       1.0  0.34822  0.10675  0.24733  1.0000
  C   C99       1.0  0.38790  0.07502  0.27642  1.0000
  C   C100      1.0  0.32477  0.12466  0.24019  1.0000
  C   C101      1.0  0.45881  0.32445  0.22855  1.0000
  H   H171      1.0  0.38074  0.08009  0.29672  1.0000
  H   H172      1.0  0.37445  0.17152  0.19549  1.0000
  H   H173      1.0  0.40849  0.12475  0.21199  1.0000
  H   H174      1.0  0.39945  0.09237  0.23941  1.0000
  H   H175      1.0  0.33095  0.14022  0.22633  1.0000
  H   H176      1.0  0.49377  0.27826  0.45108  1.0000
  C   C102      1.0  0.38954  0.13583  0.21309  1.0000
  N   N7        1.0  0.37164  0.11955  0.25881  1.0000
  H   H177      1.0  0.37448  0.12440  0.20338  1.0000
  C   C103      1.0  0.38133  0.14203  0.24223  1.0000
  H   H178      1.0  0.43139  0.11447  0.31345  1.0000
  H   H179      1.0  0.34902  0.27563  0.26108  1.0000
  C   C104      1.0  0.35111  0.29424  0.25009  1.0000
  C   C105      1.0  0.39383  0.09959  0.25954  1.0000
  H   H180      1.0  0.31527  0.13337  0.25818  1.0000
  H   H181      1.0  0.41212  0.24925  0.18180  1.0000
  C   C106      1.0  0.34543  0.16110  0.31989  1.0000
  C   C107      1.0  0.37071  0.26161  0.18318  1.0000
  H   H182      1.0  0.39274  0.23543  0.15659  1.0000
  H   H183      1.0  0.09443  0.09312  0.01645  1.0000
  C   C108      1.0  0.10662  0.11065  0.01799  1.0000
  H   H184      1.0  0.49576  0.20291  0.38727  1.0000
  H   H185      1.0  0.09403  0.20746  0.01328  1.0000
  H   H186      1.0  0.29549  0.20001  0.48291  1.0000
  S   S30       1.0  0.46945  0.19284  0.48725  1.0000
  C   C109      1.0  0.48098  0.32897  0.24322  1.0000
  H   H187      1.0  0.17860  0.26219  0.27593  1.0000
  H   H188      1.0  0.49173  0.16469  0.42407  1.0000
  C   C110      1.0  0.23149  0.32434  0.19988  1.0000
  S   S31       1.0  0.48188  0.03769  0.26139  1.0000
  H   H189      1.0  0.46449  0.12232  0.39316  1.0000
  H   H190      1.0  0.34738  0.32312  0.47151  1.0000
  C   C111      1.0  0.49045  0.29610  0.48905  1.0000
  C   C112      1.0  0.37619  0.31273  0.28773  1.0000
  H   H191      1.0  0.28364  0.30583  0.45106  1.0000
  H   H192      1.0  0.00101  0.11627  0.11943  1.0000
  H   H193      1.0  0.31068  0.26170  0.48152  1.0000
  H   H194      1.0  0.21498  0.33100  0.33162  1.0000
  C   C113      1.0  0.07245  0.20730  0.01783  1.0000
  H   H195      1.0  0.31799  0.30020  0.44617  1.0000
  H   H196      1.0  0.18658  0.31005  0.13898  1.0000
  H   H197      1.0  0.06503  0.15495  0.02652  1.0000
  S   S32       1.0  0.03492  0.07910  0.00689  1.0000
  H   H198      1.0  0.19987  0.29170  0.36207  1.0000
  C   C114      1.0  0.17836  0.32868  0.14702  1.0000
  H   H199      1.0  0.06510  0.22771  0.01929  1.0000
  H   H200      1.0  0.31083  0.33095  0.20789  1.0000
  H   H201      1.0  0.48633  0.00639  0.48779  1.0000
  H   H202      1.0  0.49237  0.25597  0.47841  1.0000
  H   H203      1.0  0.38950  0.30286  0.48899  1.0000
  H   H204      1.0  0.12616  0.10630  0.00819  1.0000
  H   H205      1.0  0.49744  0.13477  0.49692  1.0000
  C   C115      1.0  0.19155  0.32921  0.23905  1.0000
  H   H206      1.0  0.49829  0.15599  0.38974  1.0000
  H   H207      1.0  0.06253  0.19774  0.00145  1.0000
  H   H208      1.0  0.17572  0.33137  0.25383  1.0000
  H   H209      1.0  0.17849  0.33078  0.48699  1.0000
  S   S33       1.0  0.42544  0.03212  0.56438  1.0000
  C   C116      1.0  0.17541  0.15278  0.60069  1.0000
  S   S34       1.0  0.43162  0.17901  0.53978  1.0000
  H   H210      1.0  0.33955  0.33134  0.50501  1.0000
  C   C117      1.0  0.49740  0.13647  0.51873  1.0000
  Fe  Fe20      1.0  0.46493  0.20622  0.52929  1.0000
  H   H211      1.0  0.02263  0.19147  0.88272  1.0000
  Fe  Fe21      1.0  0.40344  0.21019  0.52559  1.0000
  S   S35       1.0  0.36433  0.22477  0.54462  1.0000
  S   S36       1.0  0.03899  0.01227  0.90232  1.0000
  C   C118      1.0  0.07257  0.28535  0.51720  1.0000
  C   C119      1.0  0.27921  0.22292  0.51535  1.0000
  S   S37       1.0  0.03431  0.02675  0.82699  1.0000
  H   H212      1.0  0.03244  0.29514  0.53029  1.0000
  H   H213      1.0  0.01837  0.08448  0.88905  1.0000
  H   H214      1.0  0.06662  0.03485  0.98999  1.0000
  H   H215      1.0  0.47686  0.13512  0.52692  1.0000
  H   H216      1.0  0.05642  0.19461  0.87026  1.0000
  C   C120      1.0  0.28527  0.23553  0.53867  1.0000
  H   H217      1.0  0.31552  0.24591  0.56502  1.0000
  C   C121      1.0  0.32633  0.21193  0.50828  1.0000
  H   H218      1.0  0.08335  0.11276  0.86385  1.0000
  C   C122      1.0  0.36869  0.02014  0.52679  1.0000
  C   C123      1.0  0.03692  0.18643  0.86629  1.0000
  H   H219      1.0  0.19514  0.15129  0.59041  1.0000
  H   H220      1.0  0.02968  0.19547  0.84797  1.0000
  H   H221      1.0  0.08034  0.10415  0.96314  1.0000
  C   C124      1.0  0.43753  0.05278  0.51483  1.0000
  H   H222      1.0  0.05899  0.19841  0.55506  1.0000
  C   C125      1.0  0.26155  0.31267  0.50944  1.0000
  C   C126      1.0  0.33214  0.22447  0.53180  1.0000
  C   C127      1.0  0.31142  0.23653  0.54664  1.0000
  H   H223      1.0  0.49145  0.06574  0.56591  1.0000
  H   H224      1.0  0.01178  0.10974  0.86686  1.0000
  H   H225      1.0  0.08904  0.10258  0.81616  1.0000
  H   H226      1.0  0.08672  0.25157  0.62246  1.0000
  H   H227      1.0  0.08968  0.13087  0.92247  1.0000
  H   H228      1.0  0.02592  0.24777  0.61047  1.0000
  H   H229      1.0  0.29886  0.32002  0.52637  1.0000
  C   C128      1.0  0.42972  0.05746  0.54118  1.0000
  H   H230      1.0  0.09148  0.07547  0.94520  1.0000
  H   H231      1.0  0.49987  0.04897  0.61399  1.0000
  H   H232      1.0  0.00376  0.11551  0.92710  1.0000
  C   C129      1.0  0.42691  0.10386  0.53168  1.0000
  C   C130      1.0  0.42435  0.08304  0.54945  1.0000
  H   H233      1.0  0.03804  0.08147  0.84219  1.0000
  H   H234      1.0  0.00206  0.08057  0.96171  1.0000
  H   H235      1.0  0.42259  0.12341  0.53838  1.0000
  H   H236      1.0  0.41808  0.08682  0.56973  1.0000
  C   C131      1.0  0.03458  0.05974  0.97839  1.0000
  H   H237      1.0  0.28862  0.03900  0.59831  1.0000
  H   H238      1.0  0.06031  0.26961  0.58644  1.0000
  C   C132      1.0  0.03574  0.03003  0.93187  1.0000
  C   C133      1.0  0.05332  0.02445  0.95174  1.0000
  C   C134      1.0  0.05261  0.03910  0.97500  1.0000
  C   C135      1.0  0.04496  0.28240  0.51817  1.0000
  H   H239      1.0  0.49859  0.27244  0.62087  1.0000
  C   C136      1.0  0.01513  0.32951  0.65652  1.0000
  H   H240      1.0  0.16440  0.19503  0.51378  1.0000
  N   N8        1.0  0.14196  0.19962  0.55058  1.0000
  C   C137      1.0  0.11378  0.19983  0.56127  1.0000
  C   C138      1.0  0.15620  0.17639  0.56177  1.0000
  C   C139      1.0  0.15443  0.22465  0.55833  1.0000
  H   H241      1.0  0.36950  0.01650  0.63196  1.0000
  H   H242      1.0  0.14517  0.15840  0.55814  1.0000
  C   C140      1.0  0.09506  0.22028  0.54906  1.0000
  C   C141      1.0  0.18437  0.22673  0.55143  1.0000
  C   C142      1.0  0.16058  0.17715  0.59183  1.0000
  C   C143      1.0  0.01676  0.04984  0.93576  1.0000
  C   C144      1.0  0.04971  0.14351  0.88751  1.0000
  C   C145      1.0  0.06682  0.21765  0.56016  1.0000
  C   C146      1.0  0.19539  0.25134  0.56309  1.0000
  H   H243      1.0  0.11298  0.20362  0.58285  1.0000
  H   H244      1.0  0.10499  0.18037  0.55911  1.0000
  H   H245      1.0  0.17824  0.15372  0.62224  1.0000
  H   H246      1.0  0.33424  0.02089  0.55211  1.0000
  H   H247      1.0  0.15090  0.22847  0.57976  1.0000
  H   H248      1.0  0.14490  0.24139  0.54836  1.0000
  H   H249      1.0  0.37177  0.01812  0.58026  1.0000
  H   H250      1.0  0.03973  0.32271  0.57825  1.0000
  H   H251      1.0  0.29594  0.28813  0.51471  1.0000
  C   C147      1.0  0.01928  0.10592  0.88668  1.0000
  H   H252      1.0  0.10139  0.24025  0.55329  1.0000
  H   H253      1.0  0.05918  0.30691  0.63410  1.0000
  H   H254      1.0  0.18795  0.22752  0.52975  1.0000
  H   H255      1.0  0.19592  0.21012  0.55910  1.0000
  H   H256      1.0  0.17241  0.19404  0.59718  1.0000
  H   H257      1.0  0.03983  0.15248  0.90534  1.0000
  S   S38       1.0  0.00347  0.09105  0.79524  1.0000
  S   S39       1.0  0.43638  0.23870  0.52013  1.0000
  H   H258      1.0  0.04505  0.27604  0.63636  1.0000
  H   H259      1.0  0.04519  0.11442  0.93152  1.0000
  H   H260      1.0  0.39885  0.00788  0.61254  1.0000
  H   H261      1.0  0.08111  0.30032  0.52884  1.0000
  H   H262      1.0  0.49636  0.29275  0.50962  1.0000
  H   H263      1.0  0.06587  0.22006  0.58190  1.0000
  H   H264      1.0  0.05408  0.23284  0.55136  1.0000
  H   H265      1.0  0.19350  0.25088  0.58496  1.0000
  H   H266      1.0  0.21662  0.25265  0.55718  1.0000
  H   H267      1.0  0.18491  0.26885  0.55572  1.0000
  H   H268      1.0  0.35793  0.02438  0.50863  1.0000
  H   H269      1.0  0.48512  0.08649  0.52537  1.0000
  C   C148      1.0  0.00517  0.30952  0.63659  1.0000
  H   H270      1.0  0.07641  0.30011  0.58874  1.0000
  H   H271      1.0  0.14148  0.17820  0.60324  1.0000
  S   S40       1.0  0.24556  0.21704  0.50895  1.0000
  C   C149      1.0  0.08608  0.10981  0.92061  1.0000
  H   H272      1.0  0.02004  0.28364  0.57564  1.0000
  H   H273      1.0  0.10739  0.26407  0.59580  1.0000
  C   C150      1.0  0.00975  0.28494  0.59539  1.0000
  H   H274      1.0  0.05290  0.15332  0.84552  1.0000
  H   H275      1.0  0.40855  0.00859  0.65909  1.0000
  H   H276      1.0  0.37554  0.03880  0.53469  1.0000
  C   C151      1.0  0.14350  0.19758  0.52093  1.0000
  H   H277      1.0  0.25756  0.30495  0.55177  1.0000
  C   C152      1.0  0.04885  0.29234  0.62236  1.0000
  C   C153      1.0  0.03913  0.15704  0.86271  1.0000
  H   H278      1.0  0.37777  0.30740  0.52299  1.0000
  N   N9        1.0  0.02331  0.30369  0.61297  1.0000
  H   H279      1.0  0.01934  0.15032  0.85809  1.0000
  C   C154      1.0  0.08927  0.26895  0.50151  1.0000
  C   C155      1.0  0.06502  0.10153  0.86735  1.0000
  C   C156      1.0  0.06905  0.28323  0.60029  1.0000
  H   H280      1.0  0.44142  0.03310  0.50817  1.0000
  H   H281      1.0  0.03189  0.32111  0.66727  1.0000
  H   H282      1.0  0.33837  0.28142  0.51429  1.0000
  H   H283      1.0  0.27851  0.01765  0.62511  1.0000
  H   H284      1.0  0.09959  0.10173  0.90482  1.0000
  H   H285      1.0  0.10700  0.17605  0.51457  1.0000
  Fe  Fe22      1.0  0.01462  0.01992  0.86683  1.0000
  H   H286      1.0  0.05361  0.08383  0.91700  1.0000
  C   C157      1.0  0.00664  0.25688  0.60616  1.0000
  C   C158      1.0  0.09338  0.09687  0.94653  1.0000
  H   H287      1.0  0.07067  0.14916  0.88824  1.0000
  H   H288      1.0  0.26956  0.24350  0.55139  1.0000
  C   C159      1.0  0.09285  0.26950  0.61190  1.0000
  H   H289      1.0  0.10260  0.28250  0.62576  1.0000
  C   C160      1.0  0.05303  0.09679  0.84022  1.0000
  C   C161      1.0  0.07402  0.08748  0.81976  1.0000
  H   H290      1.0  0.07167  0.08185  0.87389  1.0000
  C   C162      1.0  0.05676  0.10508  0.91497  1.0000
  C   C163      1.0  0.01644  0.06497  0.95885  1.0000
  H   H291      1.0  0.22703  0.30640  0.53503  1.0000
  H   H292      1.0  0.33307  0.02111  0.60565  1.0000
  H   H293      1.0  0.13668  0.21602  0.51173  1.0000
  H   H294      1.0  0.16412  0.13512  0.59653  1.0000
  H   H295      1.0  0.17572  0.17315  0.55130  1.0000
  C   C164      1.0  0.24796  0.29979  0.53329  1.0000
  H   H296      1.0  0.11410  0.10117  0.95081  1.0000
  H   H297      1.0  0.06458  0.08352  0.80086  1.0000
  C   C165      1.0  0.37736  0.29452  0.50551  1.0000
  H   H298      1.0  0.09454  0.21798  0.52744  1.0000
  H   H299      1.0  0.08375  0.06926  0.82641  1.0000
  H   H300      1.0  0.04331  0.11434  0.83231  1.0000
  H   H301      1.0  0.24855  0.27845  0.53068  1.0000
  H   H302      1.0  0.26179  0.01718  0.59450  1.0000
  H   H303      1.0  0.48941  0.03838  0.52761  1.0000
  N   N10       1.0  0.04746  0.11440  0.88860  1.0000
  C   C166      1.0  0.29190  0.30866  0.50944  1.0000
  H   H304      1.0  0.00673  0.13487  0.76017  1.0000
  H   H305      1.0  0.13627  0.15591  0.51566  1.0000
  H   H306      1.0  0.00265  0.05365  0.92084  1.0000
  C   C167      1.0  0.28125  0.01938  0.60335  1.0000
  H   H307      1.0  0.06789  0.00898  0.94899  1.0000
  C   C168      1.0  0.43468  0.09931  0.50535  1.0000
  C   C169      1.0  0.02940  0.32795  0.59735  1.0000
  H   H308      1.0  0.30187  0.00040  0.57090  1.0000
  H   H309      1.0  0.38623  0.27542  0.51080  1.0000
  H   H310      1.0  0.00617  0.23871  0.56733  1.0000
  C   C170      1.0  0.12831  0.17489  0.50898  1.0000
  S   S41       1.0  0.12402  0.27119  0.50418  1.0000
  H   H311      1.0  0.00114  0.29156  0.64812  1.0000
  C   C171      1.0  0.03377  0.26228  0.50424  1.0000
  H   H312      1.0  0.38609  0.00754  0.52143  1.0000
  C   C172      1.0  0.35043  0.00680  0.54710  1.0000
  C   C173      1.0  0.32767  0.00027  0.60532  1.0000
  C   C174      1.0  0.38352  0.00040  0.62664  1.0000
  C   C175      1.0  0.30047  0.99842  0.59257  1.0000
  C   C176      1.0  0.36522  0.99939  0.57217  1.0000
  C   C177      1.0  0.29994  0.21090  0.50029  1.0000
  N   N11       1.0  0.01810  0.41838  0.48520  1.0000
  Fe  Fe23      1.0  0.44855  0.48518  0.19301  1.0000
  S   S42       1.0  0.40582  0.49282  0.18610  1.0000
  Fe  Fe24      1.0  0.23419  0.41008  0.24927  1.0000
  S   S43       1.0  0.21819  0.45094  0.24771  1.0000
  S   S44       1.0  0.20570  0.37734  0.25469  1.0000
  Fe  Fe25      1.0  0.29014  0.42782  0.24745  1.0000
  S   S45       1.0  0.27846  0.47000  0.24608  1.0000
  S   S46       1.0  0.33220  0.41355  0.24676  1.0000
  Fe  Fe26      1.0  0.24803  0.45973  0.27777  1.0000
  S   S47       1.0  0.23785  0.48719  0.31218  1.0000
  Fe  Fe27      1.0  0.25008  0.45721  0.21611  1.0000
  S   S48       1.0  0.24180  0.48062  0.17891  1.0000
  S   S49       1.0  0.26198  0.41843  0.28127  1.0000
  S   S50       1.0  0.26371  0.41555  0.21572  1.0000
  Fe  Fe28      1.0  0.21581  0.48554  0.47116  1.0000
  S   S51       1.0  0.17377  0.47313  0.47061  1.0000
  S   S52       1.0  0.24289  0.47096  0.43671  1.0000
  C   C178      1.0  0.49172  0.35404  0.24408  1.0000
  H   H313      1.0  0.20022  0.35184  0.11926  1.0000
  C   C179      1.0  0.12576  0.45369  0.38162  1.0000
  H   H314      1.0  0.33315  0.36282  0.46040  1.0000
  C   C180      1.0  0.18840  0.42311  0.15968  1.0000
  H   H315      1.0  0.48452  0.65206  0.13062  1.0000
  S   S53       1.0  0.12946  0.53817  0.48203  1.0000
  C   C181      1.0  0.18777  0.37622  0.15373  1.0000
  S   S54       1.0  0.20509  0.52502  0.48830  1.0000
  H   H316      1.0  0.45045  0.46584  0.05006  1.0000
  H   H317      1.0  0.40984  0.64986  0.11971  1.0000
  H   H318      1.0  0.29925  0.35669  0.49509  1.0000
  C   C182      1.0  0.20801  0.35657  0.47108  1.0000
  C   C183      1.0  0.21701  0.38206  0.47076  1.0000
  C   C184      1.0  0.20366  0.40130  0.48592  1.0000
  H   H319      1.0  0.29273  0.37152  0.13952  1.0000
  H   H320      1.0  0.35522  0.45801  0.05489  1.0000
  H   H321      1.0  0.18172  0.47498  0.29945  1.0000
  H   H322      1.0  0.21048  0.42100  0.48511  1.0000
  C   C185      1.0  0.23797  0.48138  0.34671  1.0000
  C   C186      1.0  0.23043  0.50176  0.36397  1.0000
  C   C187      1.0  0.23078  0.49850  0.39152  1.0000
  C   C188      1.0  0.23904  0.47485  0.40225  1.0000
  C   C189      1.0  0.24670  0.45444  0.38500  1.0000
  C   C190      1.0  0.24578  0.45752  0.35739  1.0000
  H   H323      1.0  0.22458  0.52037  0.35595  1.0000
  H   H324      1.0  0.22563  0.51461  0.40446  1.0000
  H   H325      1.0  0.25350  0.43618  0.39307  1.0000
  H   H326      1.0  0.25164  0.44164  0.34441  1.0000
  C   C191      1.0  0.25741  0.47784  0.14693  1.0000
  C   C192      1.0  0.25106  0.49605  0.12738  1.0000
  C   C193      1.0  0.26134  0.49345  0.10122  1.0000
  H   H327      1.0  0.41501  0.51344  0.09081  1.0000
  C   C194      1.0  0.28405  0.45402  0.11374  1.0000
  C   C195      1.0  0.27462  0.45719  0.14010  1.0000
  H   H328      1.0  0.23777  0.51211  0.13242  1.0000
  H   H329      1.0  0.40277  0.48333  0.12810  1.0000
  H   H330      1.0  0.29608  0.43715  0.10841  1.0000
  H   H331      1.0  0.27987  0.44321  0.15495  1.0000
  H   H332      1.0  0.33664  0.48917  0.07812  1.0000
  H   H333      1.0  0.21980  0.34108  0.38811  1.0000
  C   C196      1.0  0.07716  0.46590  0.38100  1.0000
  C   C197      1.0  0.38571  0.46948  0.20134  1.0000
  C   C198      1.0  0.39666  0.44862  0.21511  1.0000
  C   C199      1.0  0.38016  0.43098  0.22849  1.0000
  C   C200      1.0  0.35274  0.43415  0.22800  1.0000
  C   C201      1.0  0.34190  0.45429  0.21321  1.0000
  C   C202      1.0  0.35834  0.47203  0.20003  1.0000
  H   H334      1.0  0.41782  0.44641  0.21600  1.0000
  H   H335      1.0  0.38867  0.41530  0.23973  1.0000
  H   H336      1.0  0.32084  0.45627  0.21183  1.0000
  H   H337      1.0  0.34981  0.48792  0.18911  1.0000
  C   C203      1.0  0.05110  0.50871  0.45382  1.0000
  C   C204      1.0  0.07319  0.49187  0.45391  1.0000
  C   C205      1.0  0.09747  0.50057  0.46246  1.0000
  C   C206      1.0  0.09998  0.52647  0.46993  1.0000
  C   C207      1.0  0.07825  0.54354  0.46861  1.0000
  C   C208      1.0  0.05373  0.53459  0.46113  1.0000
  H   H338      1.0  0.07150  0.47202  0.44758  1.0000
  H   H339      1.0  0.11421  0.48734  0.46321  1.0000
  H   H340      1.0  0.08029  0.56370  0.47385  1.0000
  H   H341      1.0  0.03698  0.54782  0.46060  1.0000
  H   H342      1.0  0.18490  0.46256  0.19802  1.0000
  C   C209      1.0  0.44716  0.63690  0.08297  1.0000
  H   H343      1.0  0.37601  0.50370  0.13843  1.0000
  C   C210      1.0  0.39937  0.55139  0.02876  1.0000
  H   H344      1.0  0.38605  0.54975  0.04657  1.0000
  C   C211      1.0  0.33320  0.51806  0.10817  1.0000
  H   H345      1.0  0.24630  0.36832  0.12916  1.0000
  C   C212      1.0  0.18282  0.42111  0.18989  1.0000
  H   H346      1.0  0.47479  0.56184  0.13918  1.0000
  H   H347      1.0  0.48892  0.41193  0.07893  1.0000
  S   S55       1.0  0.46588  0.47898  0.23266  1.0000
  C   C213      1.0  0.46679  0.65703  0.18408  1.0000
  H   H348      1.0  0.34515  0.52977  0.12129  1.0000
  H   H349      1.0  0.47989  0.39423  0.16821  1.0000
  H   H350      1.0  0.16978  0.43675  0.32697  1.0000
  H   H351      1.0  0.27953  0.37639  0.43727  1.0000
  H   H352      1.0  0.18786  0.37245  0.17533  1.0000
  H   H353      1.0  0.24095  0.34569  0.29647  1.0000
  H   H354      1.0  0.44865  0.62403  0.10033  1.0000
  H   H355      1.0  0.29554  0.39527  0.46175  1.0000
  H   H356      1.0  0.15834  0.45459  0.28429  1.0000
  H   H357      1.0  0.38817  0.53503  0.10094  1.0000
  H   H358      1.0  0.32233  0.37630  0.20172  1.0000
  C   C214      1.0  0.35065  0.50036  0.08960  1.0000
  C   C215      1.0  0.45752  0.37082  0.21684  1.0000
  H   H359      1.0  0.45120  0.64476  0.13712  1.0000
  C   C216      1.0  0.15605  0.45377  0.32710  1.0000
  H   H360      1.0  0.14732  0.48482  0.29924  1.0000
  H   H361      1.0  0.20971  0.40686  0.40795  1.0000
  H   H362      1.0  0.16282  0.54664  0.41139  1.0000
  H   H363      1.0  0.10036  0.40772  0.47370  1.0000
  H   H364      1.0  0.25588  0.50739  0.08636  1.0000
  C   C217      1.0  0.46157  0.48655  0.01387  1.0000
  H   H365      1.0  0.43051  0.40339  0.16735  1.0000
  H   H366      1.0  0.09796  0.43896  0.48999  1.0000
  H   H367      1.0  0.00489  0.43630  0.39422  1.0000
  H   H368      1.0  0.16670  0.37916  0.14888  1.0000
  H   H369      1.0  0.33950  0.45345  0.10671  1.0000
  H   H370      1.0  0.31598  0.34371  0.43709  1.0000
  S   S56       1.0  0.02055  0.49698  0.44436  1.0000
  H   H371      1.0  0.44089  0.49161  0.00958  1.0000
  H   H372      1.0  0.34095  0.41127  0.13208  1.0000
  C   C218      1.0  0.16115  0.46801  0.30099  1.0000
  C   C219      1.0  0.33110  0.33640  0.21258  1.0000
  H   H373      1.0  0.42528  0.52131  0.04175  1.0000
  H   H374      1.0  0.36114  0.51287  0.07487  1.0000
  H   H375      1.0  0.12182  0.44570  0.40171  1.0000
  H   H376      1.0  0.43407  0.55349  0.05125  1.0000
  H   H377      1.0  0.31073  0.39108  0.42926  1.0000
  C   C220      1.0  0.27184  0.64876  0.01842  1.0000
  S   S57       1.0  0.28071  0.52868  0.00614  1.0000
  H   H378      1.0  0.48501  0.64479  0.18225  1.0000
  C   C221      1.0  0.38676  0.46889  0.08140  1.0000
  H   H379      1.0  0.07351  0.45564  0.40002  1.0000
  H   H380      1.0  0.18585  0.38945  0.42802  1.0000
  H   H381      1.0  0.30420  0.52615  0.07850  1.0000
  H   H382      1.0  0.33721  0.35713  0.17526  1.0000
  Fe  Fe29      1.0  0.29698  0.49193  0.02456  1.0000
  H   H383      1.0  0.39117  0.53969  0.01278  1.0000
  H   H384      1.0  0.27702  0.34417  0.47238  1.0000
  C   C222      1.0  0.39123  0.43928  0.04147  1.0000
  H   H385      1.0  0.36620  0.43210  0.07564  1.0000
  H   H386      1.0  0.40882  0.42929  0.04933  1.0000
  H   H387      1.0  0.39765  0.45558  0.02852  1.0000
  H   H388      1.0  0.32935  0.55029  0.08050  1.0000
  N   N12       1.0  0.15435  0.46082  0.37800  1.0000
  C   C223      1.0  0.16067  0.47177  0.35087  1.0000
  C   C224      1.0  0.16170  0.47980  0.39910  1.0000
  C   C225      1.0  0.17100  0.43642  0.38089  1.0000
  N   N13       1.0  0.47424  0.53490  0.01365  1.0000
  C   C226      1.0  0.21319  0.43130  0.10760  1.0000
  C   C227      1.0  0.16976  0.42320  0.40844  1.0000
  C   C228      1.0  0.15976  0.50919  0.39237  1.0000
  C   C229      1.0  0.16292  0.52577  0.41683  1.0000
  C   C230      1.0  0.35246  0.42185  0.14661  1.0000
  C   C231      1.0  0.18905  0.40011  0.40920  1.0000
  H   H389      1.0  0.18176  0.47736  0.34936  1.0000
  H   H390      1.0  0.14930  0.48995  0.34742  1.0000
  H   H391      1.0  0.14977  0.47640  0.41766  1.0000
  H   H392      1.0  0.18252  0.47652  0.40455  1.0000
  H   H393      1.0  0.19208  0.44059  0.37584  1.0000
  H   H394      1.0  0.16515  0.42128  0.36684  1.0000
  H   H395      1.0  0.04276  0.37342  0.46183  1.0000
  H   H396      1.0  0.42987  0.34249  0.20421  1.0000
  H   H397      1.0  0.19964  0.44129  0.15645  1.0000
  H   H398      1.0  0.47838  0.61520  0.06128  1.0000
  C   C232      1.0  0.46130  0.46219  0.03095  1.0000
  H   H399      1.0  0.17484  0.43671  0.42432  1.0000
  H   H400      1.0  0.17566  0.51438  0.37775  1.0000
  H   H401      1.0  0.28746  0.35633  0.29742  1.0000
  H   H402      1.0  0.18168  0.52094  0.42636  1.0000
  Fe  Fe30      1.0  0.16345  0.51083  0.49064  1.0000
  H   H403      1.0  0.14624  0.52244  0.43109  1.0000
  C   C233      1.0  0.20291  0.40462  0.11727  1.0000
  C   C234      1.0  0.37056  0.44134  0.13261  1.0000
  H   H404      1.0  0.23399  0.38711  0.45840  1.0000
  C   C235      1.0  0.48727  0.55485  0.03012  1.0000
  S   S58       1.0  0.33888  0.50504  0.02126  1.0000
  H   H405      1.0  0.46837  0.51062  0.04827  1.0000
  N   N14       1.0  0.33925  0.48434  0.31554  1.0000
  C   C236      1.0  0.36606  0.49326  0.30561  1.0000
  C   C237      1.0  0.33596  0.49348  0.34389  1.0000
  C   C238      1.0  0.33973  0.45505  0.31428  1.0000
  C   C239      1.0  0.31805  0.49498  0.29844  1.0000
  C   C240      1.0  0.31842  0.52475  0.29400  1.0000
  C   C241      1.0  0.37478  0.48540  0.27699  1.0000
  C   C242      1.0  0.31636  0.44117  0.32835  1.0000
  C   C243      1.0  0.30738  0.49829  0.35534  1.0000
  C   C244      1.0  0.30704  0.50215  0.38519  1.0000
  C   C245      1.0  0.29249  0.53487  0.28330  1.0000
  C   C246      1.0  0.40084  0.49799  0.26872  1.0000
  C   C247      1.0  0.31835  0.41181  0.32420  1.0000
  H   H406      1.0  0.38154  0.48563  0.31871  1.0000
  H   H407      1.0  0.36739  0.51474  0.30708  1.0000
  H   H408      1.0  0.34638  0.47974  0.35708  1.0000
  H   H409      1.0  0.34594  0.51229  0.34665  1.0000
  H   H410      1.0  0.35808  0.44704  0.32279  1.0000
  H   H411      1.0  0.34027  0.44846  0.29337  1.0000
  H   H412      1.0  0.31943  0.48568  0.27871  1.0000
  H   H413      1.0  0.29820  0.48957  0.30634  1.0000
  H   H414      1.0  0.33447  0.52966  0.27941  1.0000
  H   H415      1.0  0.32198  0.53527  0.31249  1.0000
  H   H416      1.0  0.37784  0.46407  0.27547  1.0000
  H   H417      1.0  0.36006  0.49153  0.26260  1.0000
  H   H418      1.0  0.29736  0.44812  0.32065  1.0000
  H   H419      1.0  0.31639  0.44443  0.34994  1.0000
  H   H420      1.0  0.29854  0.51600  0.34659  1.0000
  H   H421      1.0  0.29422  0.48218  0.35131  1.0000
  H   H422      1.0  0.32004  0.51825  0.39041  1.0000
  H   H423      1.0  0.28670  0.50709  0.39263  1.0000
  H   H424      1.0  0.31350  0.48404  0.39515  1.0000
  H   H425      1.0  0.28857  0.52530  0.26433  1.0000
  H   H426      1.0  0.27586  0.53124  0.29766  1.0000
  H   H427      1.0  0.29358  0.55610  0.27984  1.0000
  H   H428      1.0  0.39883  0.51947  0.26931  1.0000
  H   H429      1.0  0.41673  0.49155  0.28179  1.0000
  H   H430      1.0  0.40671  0.49228  0.24824  1.0000
  H   H431      1.0  0.31794  0.40701  0.30293  1.0000
  H   H432      1.0  0.33684  0.40379  0.33220  1.0000
  H   H433      1.0  0.30136  0.40243  0.33456  1.0000
  H   H434      1.0  0.10697  0.49017  0.39518  1.0000
  H   H435      1.0  0.25797  0.40016  0.12250  1.0000
  H   H436      1.0  0.38074  0.42532  0.02922  1.0000
  H   H437      1.0  0.38295  0.44987  0.14771  1.0000
  H   H438      1.0  0.31942  0.50631  0.12057  1.0000
  C   C248      1.0  0.27761  0.47218  0.09413  1.0000
  H   H439      1.0  0.38362  0.43048  0.11832  1.0000
  C   C249      1.0  0.31655  0.53690  0.09218  1.0000
  C   C250      1.0  0.22069  0.43112  0.07814  1.0000
  H   H440      1.0  0.40393  0.45869  0.08999  1.0000
  C   C251      1.0  0.24223  0.65713  0.02053  1.0000
  H   H441      1.0  0.30330  0.54857  0.10569  1.0000
  H   H442      1.0  0.36444  0.40758  0.15764  1.0000
  H   H443      1.0  0.47449  0.59679  0.13504  1.0000
  H   H444      1.0  0.03135  0.44193  0.43271  1.0000
  C   C252      1.0  0.37273  0.44917  0.06394  1.0000
  C   C253      1.0  0.43060  0.39415  0.14760  1.0000
  S   S59       1.0  0.47842  0.51412  0.17921  1.0000
  C   C254      1.0  0.40214  0.51991  0.10780  1.0000
  C   C255      1.0  0.25510  0.33212  0.28614  1.0000
  H   H445      1.0  0.34250  0.47290  0.13502  1.0000
  H   H446      1.0  0.44810  0.38687  0.20702  1.0000
  H   H447      1.0  0.44930  0.64443  0.18519  1.0000
  H   H448      1.0  0.21447  0.38931  0.10643  1.0000
  C   C256      1.0  0.20936  0.34937  0.23499  1.0000
  S   S60       1.0  0.46872  0.45108  0.17300  1.0000
  H   H449      1.0  0.39549  0.48357  0.06770  1.0000
  H   H450      1.0  0.21674  0.34436  0.14933  1.0000
  H   H451      1.0  0.19281  0.64114  0.02541  1.0000
  C   C257      1.0  0.27739  0.37995  0.15338  1.0000
  H   H452      1.0  0.27316  0.36558  0.16926  1.0000
  C   C258      1.0  0.19776  0.35041  0.14098  1.0000
  H   H453      1.0  0.24387  0.36186  0.21292  1.0000
  H   H454      1.0  0.20372  0.42536  0.06652  1.0000
  H   H455      1.0  0.35697  0.36836  0.20177  1.0000
  H   H456      1.0  0.16598  0.44430  0.22224  1.0000
  H   H457      1.0  0.14982  0.41564  0.41312  1.0000
  H   H458      1.0  0.06284  0.48244  0.38015  1.0000
  C   C259      1.0  0.35423  0.46285  0.11894  1.0000
  C   C260      1.0  0.17078  0.44649  0.20082  1.0000
  H   H459      1.0  0.23063  0.43692  0.11837  1.0000
  H   H460      1.0  0.49111  0.34009  0.11579  1.0000
  H   H461      1.0  0.42615  0.64175  0.07978  1.0000
  H   H462      1.0  0.23541  0.60988  0.01145  1.0000
  Fe  Fe31      1.0  0.48781  0.44574  0.21192  1.0000
  C   C261      1.0  0.33739  0.36095  0.19676  1.0000
  C   C262      1.0  0.22968  0.34670  0.21569  1.0000
  H   H463      1.0  0.20120  0.41669  0.20024  1.0000
  H   H464      1.0  0.49667  0.50227  0.02854  1.0000
  H   H465      1.0  0.10773  0.48614  0.35970  1.0000
  H   H466      1.0  0.28536  0.39770  0.16215  1.0000
  C   C263      1.0  0.10526  0.47604  0.37890  1.0000
  H   H467      1.0  0.44503  0.56400  0.00340  1.0000
  H   H468      1.0  0.40776  0.53986  0.14495  1.0000
  N   N15       1.0  0.36976  0.48218  0.10266  1.0000
  H   H469      1.0  0.29597  0.33385  0.27106  1.0000
  C   C264      1.0  0.45316  0.37413  0.14433  1.0000
  C   C265      1.0  0.48027  0.37513  0.23071  1.0000
  H   H470      1.0  0.23764  0.41759  0.07393  1.0000
  H   H471      1.0  0.23012  0.38786  0.17605  1.0000
  C   C266      1.0  0.31341  0.35692  0.45426  1.0000
  H   H472      1.0  0.07366  0.45249  0.36447  1.0000
  S   S61       1.0  0.22444  0.33293  0.45126  1.0000
  H   H473      1.0  0.16907  0.42649  0.15046  1.0000
  H   H474      1.0  0.05032  0.44419  0.47751  1.0000
  C   C267      1.0  0.49475  0.58436  0.23141  1.0000
  H   H475      1.0  0.18592  0.38643  0.39281  1.0000
  H   H476      1.0  0.16837  0.40576  0.19470  1.0000
  C   C268      1.0  0.49263  0.61168  0.23316  1.0000
  Fe  Fe32      1.0  0.49791  0.50564  0.21705  1.0000
  S   S62       1.0  0.28866  0.46609  0.06091  1.0000
  H   H477      1.0  0.27930  0.65192  0.06027  1.0000
  C   C269      1.0  0.29810  0.34376  0.47760  1.0000
  H   H478      1.0  0.42996  0.54928  0.11812  1.0000
  C   C270      1.0  0.23048  0.39864  0.15705  1.0000
  C   C271      1.0  0.38734  0.49666  0.12049  1.0000
  C   C272      1.0  0.18581  0.35031  0.48690  1.0000
  S   S63       1.0  0.33719  0.57961  0.00866  1.0000
  N   N16       1.0  0.20300  0.40033  0.14670  1.0000
  H   H479      1.0  0.48976  0.44374  0.11588  1.0000
  H   H480      1.0  0.18251  0.40293  0.11024  1.0000
  C   C273      1.0  0.46465  0.66126  0.13426  1.0000
  H   H481      1.0  0.48489  0.57455  0.02136  1.0000
  C   C274      1.0  0.00220  0.42921  0.46294  1.0000
  C   C275      1.0  0.25250  0.38638  0.13855  1.0000
  H   H482      1.0  0.23752  0.41828  0.16208  1.0000
  H   H483      1.0  0.45160  0.44633  0.02048  1.0000
  H   H484      1.0  0.46055  0.58249  0.16482  1.0000
  H   H485      1.0  0.22669  0.45087  0.07183  1.0000
  H   H486      1.0  0.48176  0.45576  0.03459  1.0000
  H   H487      1.0  0.13550  0.44693  0.32746  1.0000
  H   H488      1.0  0.19767  0.44656  0.11111  1.0000
  H   H489      1.0  0.33859  0.43186  0.16091  1.0000
  C   C276      1.0  0.04709  0.42298  0.47981  1.0000
  H   H490      1.0  0.05422  0.41422  0.46085  1.0000
  H   H491      1.0  0.14071  0.51473  0.38397  1.0000
  H   H492      1.0  0.15232  0.45160  0.19087  1.0000
  H   H493      1.0  0.39959  0.57208  0.02257  1.0000
  C   C277      1.0  0.47578  0.50897  0.02738  1.0000
  C   C278      1.0  0.09473  0.41782  0.49247  1.0000
  C   C279      1.0  0.41972  0.53263  0.12755  1.0000
  H   H494      1.0  0.43481  0.51852  0.13436  1.0000
  H   H495      1.0  0.12097  0.43776  0.36800  1.0000
  H   H496      1.0  0.00951  0.37406  0.45019  1.0000
  H   H497      1.0  0.47737  0.55612  0.05001  1.0000
  H   H498      1.0  0.02297  0.40860  0.42939  1.0000
  C   C280      1.0  0.44712  0.34561  0.21547  1.0000
  C   C281      1.0  0.19702  0.65272  0.00720  1.0000
  C   C282      1.0  0.42708  0.54164  0.03486  1.0000
  H   H499      1.0  0.47402  0.62124  0.22941  1.0000
  H   H500      1.0  0.48409  0.65719  0.08359  1.0000
  H   H501      1.0  0.43248  0.40947  0.13226  1.0000
  H   H502      1.0  0.27453  0.62736  0.01915  1.0000
  C   C283      1.0  0.02168  0.37107  0.46761  1.0000
  H   H503      1.0  0.23421  0.64937  0.03968  1.0000
  C   C284      1.0  0.28028  0.34696  0.27947  1.0000
  C   C285      1.0  0.45753  0.62139  0.05892  1.0000
  C   C286      1.0  0.47666  0.58071  0.14941  1.0000
  H   H504      1.0  0.47793  0.57319  0.22624  1.0000
  C   C287      1.0  0.44597  0.54346  0.01010  1.0000
  H   H505      1.0  0.41145  0.38448  0.14562  1.0000
  H   H506      1.0  0.45617  0.63322  0.04067  1.0000
  H   H507      1.0  0.27614  0.36232  0.26474  1.0000
  H   H508      1.0  0.04005  0.59278  0.48584  1.0000
  H   H509      1.0  0.44555  0.60380  0.05670  1.0000
  C   C288      1.0  0.29887  0.38140  0.44516  1.0000
  C   C289      1.0  0.01491  0.42807  0.43458  1.0000
  C   C290      1.0  0.01819  0.34287  0.47626  1.0000
  H   H510      1.0  0.33172  0.34156  0.23371  1.0000
  H   H511      1.0  0.18842  0.33803  0.37268  1.0000
  C   C291      1.0  0.01236  0.39007  0.48979  1.0000
  H   H512      1.0  0.02954  0.33846  0.49401  1.0000
  H   H513      1.0  0.48724  0.33668  0.16162  1.0000
  H   H514      1.0  0.45167  0.36518  0.12464  1.0000
  C   C292      1.0  0.28696  0.65979  0.04113  1.0000
  H   H515      1.0  0.30815  0.65421  0.03850  1.0000
  H   H516      1.0  0.44980  0.35884  0.15941  1.0000
  S   S64       1.0  0.49611  0.40585  0.23080  1.0000
  H   H517      1.0  0.15925  0.33284  0.13788  1.0000
  C   C293      1.0  0.46272  0.66217  0.08592  1.0000
  H   H518      1.0  0.48093  0.40435  0.13468  1.0000
  C   C294      1.0  0.48029  0.38694  0.14760  1.0000
  H   H519      1.0  0.49092  0.37169  0.10191  1.0000
  Fe  Fe33      1.0  0.21947  0.57673  0.74969  1.0000
  S   S65       1.0  0.23572  0.53595  0.75169  1.0000
  S   S66       1.0  0.17643  0.58706  0.75535  1.0000
  Fe  Fe34      1.0  0.27319  0.59988  0.73992  1.0000
  S   S67       1.0  0.29297  0.56055  0.73964  1.0000
  S   S68       1.0  0.29778  0.63548  0.74411  1.0000
  Fe  Fe35      1.0  0.25931  0.54795  0.71508  1.0000
  S   S69       1.0  0.26211  0.51941  0.68032  1.0000
  Fe  Fe36      1.0  0.26734  0.55271  0.77607  1.0000
  S   S70       1.0  0.28894  0.53920  0.81268  1.0000
  S   S71       1.0  0.24173  0.58824  0.71256  1.0000
  S   S72       1.0  0.24883  0.59242  0.77681  1.0000
  Fe  Fe37      1.0  0.06277  0.50962  0.71463  1.0000
  S   S73       1.0  0.03804  0.51523  0.75173  1.0000
  S   S74       1.0  0.10569  0.49821  0.71347  1.0000
  C   C295      1.0  0.00756  0.63615  0.74023  1.0000
  S   S75       1.0  0.03350  0.48441  0.69626  1.0000
  S   S76       1.0  0.04926  0.54590  0.69458  1.0000
  H   H520      1.0  0.43717  0.53230  0.99399  1.0000
  H   H521      1.0  0.47470  0.57075  0.97177  1.0000
  C   C296      1.0  0.30250  0.65268  0.81977  1.0000
  H   H522      1.0  0.10601  0.66348  0.73464  1.0000
  S   S77       1.0  0.29979  0.47175  0.98506  1.0000
  H   H523      1.0  0.25013  0.61828  0.98026  1.0000
  Fe  Fe38      1.0  0.28801  0.50969  0.96620  1.0000
  S   S78       1.0  0.25875  0.51342  0.93320  1.0000
  H   H524      1.0  0.08354  0.47644  0.78023  1.0000
  H   H525      1.0  0.24151  0.65177  0.75490  1.0000
  S   S79       1.0  0.32966  0.52267  0.95979  1.0000
  C   C297      1.0  0.14081  0.56170  0.54929  1.0000
  C   C298      1.0  0.32576  0.60189  0.98530  1.0000
  C   C299      1.0  0.30782  0.59439  0.96666  1.0000
  C   C300      1.0  0.29842  0.61252  0.94845  1.0000
  C   C301      1.0  0.30675  0.63823  0.94900  1.0000
  C   C302      1.0  0.32506  0.64558  0.96725  1.0000
  C   C303      1.0  0.14112  0.50899  0.79450  1.0000
  H   H526      1.0  0.30090  0.57470  0.96648  1.0000
  H   H527      1.0  0.28427  0.60673  0.93436  1.0000
  C   C304      1.0  0.01248  0.38621  0.73927  1.0000
  C   C305      1.0  0.04140  0.59443  0.52873  1.0000
  C   C306      1.0  0.17276  0.36946  0.50248  1.0000
  C   C307      1.0  0.27910  0.53551  0.84653  1.0000
  C   C308      1.0  0.25340  0.52917  0.85468  1.0000
  C   C309      1.0  0.24733  0.52314  0.88138  1.0000
  C   C310      1.0  0.26684  0.52339  0.90026  1.0000
  C   C311      1.0  0.29225  0.53096  0.89231  1.0000
  C   C312      1.0  0.29832  0.53690  0.86563  1.0000
  H   H528      1.0  0.23852  0.52802  0.84023  1.0000
  H   H529      1.0  0.22753  0.51777  0.88742  1.0000
  H   H530      1.0  0.30726  0.53197  0.90668  1.0000
  H   H531      1.0  0.31816  0.54224  0.85967  1.0000
  C   C313      1.0  0.15656  0.56386  0.74113  1.0000
  C   C314      1.0  0.16805  0.54221  0.72833  1.0000
  C   C315      1.0  0.15225  0.52218  0.71984  1.0000
  C   C316      1.0  0.12484  0.52419  0.72303  1.0000
  C   C317      1.0  0.11318  0.54646  0.73459  1.0000
  C   C318      1.0  0.12907  0.56618  0.74389  1.0000
  H   H532      1.0  0.18914  0.54062  0.72531  1.0000
  H   H533      1.0  0.16126  0.50490  0.71122  1.0000
  H   H534      1.0  0.09196  0.54816  0.73720  1.0000
  H   H535      1.0  0.12002  0.58296  0.75365  1.0000
  H   H536      1.0  0.02490  0.62139  0.50067  1.0000
  H   H537      1.0  0.27636  0.64687  0.86957  1.0000
  C   C319      1.0  0.01339  0.36686  0.57124  1.0000
  C   C320      1.0  0.24554  0.50590  0.60333  1.0000
  C   C321      1.0  0.25441  0.50341  0.62928  1.0000
  C   C322      1.0  0.25158  0.52404  0.64744  1.0000
  C   C323      1.0  0.24009  0.54738  0.63908  1.0000
  C   C324      1.0  0.23164  0.55000  0.61302  1.0000
  C   C325      1.0  0.27943  0.66281  0.70130  1.0000
  H   H538      1.0  0.26341  0.48530  0.63538  1.0000
  H   H539      1.0  0.23789  0.56350  0.65264  1.0000
  H   H540      1.0  0.22307  0.56826  0.60681  1.0000
  H   H541      1.0  0.40692  0.46472  0.88284  1.0000
  Fe  Fe39      1.0  0.34097  0.48650  0.98155  1.0000
  H   H542      1.0  0.09330  0.56420  0.52305  1.0000
  H   H543      1.0  0.23291  0.60893  0.87677  1.0000
  H   H544      1.0  0.27149  0.64476  0.69463  1.0000
  C   C326      1.0  0.45614  0.47708  0.94412  1.0000
  C   C327      1.0  0.43598  0.49611  0.94394  1.0000
  C   C328      1.0  0.41057  0.49063  0.95424  1.0000
  C   C329      1.0  0.40510  0.46579  0.96387  1.0000
  C   C330      1.0  0.42532  0.44695  0.96436  1.0000
  C   C331      1.0  0.45084  0.45264  0.95476  1.0000
  H   H545      1.0  0.44005  0.51510  0.93582  1.0000
  H   H546      1.0  0.39503  0.50526  0.95383  1.0000
  H   H547      1.0  0.42114  0.42769  0.97170  1.0000
  H   H548      1.0  0.46629  0.43791  0.95507  1.0000
  H   H549      1.0  0.02893  0.60334  0.54494  1.0000
  C   C332      1.0  0.18162  0.39502  0.50197  1.0000
  C   C333      1.0  0.23393  0.52921  0.59502  1.0000
  H   H550      1.0  0.29103  0.43030  0.90040  1.0000
  H   H551      1.0  0.30254  0.43176  0.93372  1.0000
  S   S80       1.0  0.48784  0.48427  0.93124  1.0000
  H   H552      1.0  0.47619  0.51999  0.97399  1.0000
  H   H553      1.0  0.37861  0.53922  0.91928  1.0000
  C   C334      1.0  0.04990  0.63473  0.75999  1.0000
  H   H554      1.0  0.39615  0.42247  0.86380  1.0000
  H   H555      1.0  0.24784  0.48982  0.58972  1.0000
  H   H556      1.0  0.33574  0.49914  0.85233  1.0000
  H   H557      1.0  0.38373  0.51311  0.86477  1.0000
  H   H558      1.0  0.22366  0.65476  0.78614  1.0000
  H   H559      1.0  0.19009  0.45181  0.86255  1.0000
  C   C335      1.0  0.02868  0.42328  0.65899  1.0000
  H   H560      1.0  0.08723  0.49835  0.80744  1.0000
  H   H561      1.0  0.14087  0.58065  0.55960  1.0000
  H   H562      1.0  0.36195  0.44488  0.84954  1.0000
  S   S81       1.0  0.22100  0.53336  0.56296  1.0000
  H   H563      1.0  0.19627  0.60958  0.66768  1.0000
  H   H564      1.0  0.13000  0.51992  0.81040  1.0000
  H   H565      1.0  0.00109  0.35087  0.69135  1.0000
  N   N17       1.0  0.06366  0.55666  0.55418  1.0000
  C   C336      1.0  0.06124  0.52776  0.55823  1.0000
  C   C337      1.0  0.05499  0.57040  0.57941  1.0000
  H   H566      1.0  0.09435  0.58512  0.55040  1.0000
  C   C338      1.0  0.09110  0.56455  0.54499  1.0000
  C   C339      1.0  0.11468  0.54799  0.55471  1.0000
  C   C340      1.0  0.06408  0.51107  0.53286  1.0000
  C   C341      1.0  0.07086  0.56410  0.60402  1.0000
  C   C342      1.0  0.05849  0.57731  0.62858  1.0000
  H   H567      1.0  0.25246  0.63614  0.82584  1.0000
  H   H568      1.0  0.03176  0.40189  0.65955  1.0000
  H   H569      1.0  0.04169  0.52339  0.56774  1.0000
  H   H570      1.0  0.07570  0.52024  0.57222  1.0000
  H   H571      1.0  0.05603  0.59179  0.57695  1.0000
  H   H572      1.0  0.03392  0.56626  0.58435  1.0000
  H   H573      1.0  0.34480  0.64670  0.84686  1.0000
  H   H574      1.0  0.03045  0.37726  0.73114  1.0000
  H   H575      1.0  0.03261  0.43123  0.67870  1.0000
  H   H576      1.0  0.11594  0.52913  0.54420  1.0000
  H   H577      1.0  0.11288  0.54369  0.57599  1.0000
  C   C343      1.0  0.06782  0.48230  0.53920  1.0000
  Fe  Fe40      1.0  0.20858  0.50715  0.52894  1.0000
  H   H578      1.0  0.07151  0.54303  0.60815  1.0000
  H   H579      1.0  0.09110  0.57154  0.60131  1.0000
  H   H580      1.0  0.05641  0.59859  0.62556  1.0000
  H   H581      1.0  0.03883  0.56919  0.63359  1.0000
  H   H582      1.0  0.07124  0.57382  0.64552  1.0000
  C   C344      1.0  0.09494  0.49301  0.78735  1.0000
  H   H583      1.0  0.04301  0.43162  0.64436  1.0000
  H   H584      1.0  0.13003  0.47815  0.76760  1.0000
  C   C345      1.0  0.00539  0.34543  0.59069  1.0000
  H   H585      1.0  0.28296  0.61325  0.87202  1.0000
  H   H586      1.0  0.09192  0.50969  0.77387  1.0000
  H   H587      1.0  0.42151  0.41571  0.91738  1.0000
  H   H588      1.0  0.35881  0.54679  0.89134  1.0000
  C   C346      1.0  0.02847  0.62144  0.75001  1.0000
  H   H589      1.0  0.35069  0.64828  0.90637  1.0000
  N   N18       1.0  0.16060  0.49587  0.63243  1.0000
  C   C347      1.0  0.16342  0.47338  0.61344  1.0000
  C   C348      1.0  0.13404  0.49446  0.64672  1.0000
  C   C349      1.0  0.16311  0.52081  0.61706  1.0000
  C   C350      1.0  0.18169  0.49493  0.65244  1.0000
  C   C351      1.0  0.18400  0.46939  0.66842  1.0000
  C   C352      1.0  0.19113  0.46893  0.60002  1.0000
  C   C353      1.0  0.16019  0.54615  0.63354  1.0000
  C   C354      1.0  0.10991  0.49980  0.62962  1.0000
  C   C355      1.0  0.08409  0.49578  0.64538  1.0000
  C   C356      1.0  0.20761  0.47000  0.68610  1.0000
  C   C357      1.0  0.19186  0.44469  0.58279  1.0000
  C   C358      1.0  0.15862  0.56999  0.61578  1.0000
  H   H590      1.0  0.14972  0.47602  0.59708  1.0000
  H   H591      1.0  0.15743  0.45497  0.62328  1.0000
  H   H592      1.0  0.13142  0.47496  0.65580  1.0000
  H   H593      1.0  0.13270  0.50810  0.66368  1.0000
  H   H594      1.0  0.14916  0.52152  0.60077  1.0000
  H   H595      1.0  0.18275  0.52162  0.60684  1.0000
  H   H596      1.0  0.20122  0.49918  0.64293  1.0000
  H   H597      1.0  0.17832  0.51066  0.66720  1.0000
  H   H598      1.0  0.18672  0.45223  0.65542  1.0000
  H   H599      1.0  0.16602  0.46667  0.68124  1.0000
  H   H600      1.0  0.19630  0.48552  0.58704  1.0000
  H   H601      1.0  0.20658  0.46627  0.61459  1.0000
  H   H602      1.0  0.17761  0.54839  0.64580  1.0000
  H   H603      1.0  0.14226  0.54635  0.64675  1.0000
  H   H604      1.0  0.10976  0.52016  0.62256  1.0000
  H   H605      1.0  0.11004  0.48670  0.61234  1.0000
  H   H606      1.0  0.08219  0.50985  0.66186  1.0000
  H   H607      1.0  0.08318  0.47577  0.65348  1.0000
  H   H608      1.0  0.20813  0.45225  0.69849  1.0000
  H   H609      1.0  0.22628  0.47073  0.67392  1.0000
  H   H610      1.0  0.21145  0.44263  0.57234  1.0000
  H   H611      1.0  0.18839  0.42706  0.59493  1.0000
  H   H612      1.0  0.17664  0.44627  0.56782  1.0000
  H   H613      1.0  0.16000  0.58784  0.62775  1.0000
  H   H614      1.0  0.17501  0.56976  0.60057  1.0000
  H   H615      1.0  0.13951  0.57062  0.60606  1.0000
  N   N19       1.0  0.30566  0.63221  0.84081  1.0000
  C   C359      1.0  0.31255  0.60671  0.82744  1.0000
  C   C360      1.0  0.28061  0.62917  0.85744  1.0000
  C   C361      1.0  0.12415  0.48542  0.78763  1.0000
  H   H616      1.0  0.31945  0.61449  0.89269  1.0000
  H   H617      1.0  0.16118  0.63068  0.71392  1.0000
  C   C362      1.0  0.33941  0.60555  0.81170  1.0000
  S   S82       1.0  0.02462  0.58770  0.75711  1.0000
  C   C363      1.0  0.25576  0.62249  0.84231  1.0000
  C   C364      1.0  0.23115  0.62342  0.86067  1.0000
  H   H618      1.0  0.06919  0.47112  0.52051  1.0000
  C   C365      1.0  0.34477  0.57866  0.79985  1.0000
  H   H619      1.0  0.30811  0.47469  0.89182  1.0000
  H   H620      1.0  0.29742  0.60190  0.81307  1.0000
  H   H621      1.0  0.31193  0.59046  0.84192  1.0000
  H   H622      1.0  0.20128  0.61383  0.96301  1.0000
  H   H623      1.0  0.04454  0.66161  0.83169  1.0000
  S   S83       1.0  0.37273  0.45648  0.97214  1.0000
  H   H624      1.0  0.19657  0.62589  0.71379  1.0000
  Fe  Fe41      1.0  0.02290  0.55120  0.73107  1.0000
  H   H625      1.0  0.36307  0.61570  0.91081  1.0000
  H   H626      1.0  0.34393  0.60197  0.86926  1.0000
  C   C366      1.0  0.35768  0.63039  0.89582  1.0000
  H   H627      1.0  0.33953  0.61961  0.79511  1.0000
  H   H628      1.0  0.35599  0.60990  0.82439  1.0000
  C   C367      1.0  0.49262  0.55816  0.97158  1.0000
  H   H629      1.0  0.14142  0.52212  0.77709  1.0000
  H   H630      1.0  0.34841  0.63336  0.99969  1.0000
  H   H631      1.0  0.25772  0.60252  0.83422  1.0000
  H   H632      1.0  0.21361  0.61886  0.84934  1.0000
  S   S84       1.0  0.16490  0.41897  0.52122  1.0000
  H   H633      1.0  0.32048  0.65782  0.87023  1.0000
  C   C368      1.0  0.33603  0.61986  0.87902  1.0000
  H   H634      1.0  0.16068  0.61392  0.66849  1.0000
  C   C369      1.0  0.29298  0.66337  0.72473  1.0000
  H   H635      1.0  0.34496  0.56362  0.81556  1.0000
  H   H636      1.0  0.32943  0.57399  0.78574  1.0000
  H   H637      1.0  0.36420  0.57824  0.78899  1.0000
  H   H638      1.0  0.31914  0.47615  0.92476  1.0000
  H   H639      1.0  0.27714  0.45397  0.92338  1.0000
  H   H640      1.0  0.35727  0.49156  0.80851  1.0000
  H   H641      1.0  0.32205  0.48913  0.80763  1.0000
  H   H642      1.0  0.39352  0.45585  0.91434  1.0000
  H   H643      1.0  0.02168  0.34760  0.64668  1.0000
  H   H644      1.0  0.37981  0.41253  0.89425  1.0000
  H   H645      1.0  0.00374  0.63503  0.83828  1.0000
  H   H646      1.0  0.20636  0.48725  0.69921  1.0000
  H   H647      1.0  0.39373  0.55251  0.88964  1.0000
  H   H648      1.0  0.02179  0.35829  0.55258  1.0000
  S   S85       1.0  0.16624  0.49490  0.53152  1.0000
  H   H649      1.0  0.19539  0.65953  0.95414  1.0000
  H   H650      1.0  0.20367  0.56282  0.84127  1.0000
  H   H651      1.0  0.40367  0.50589  0.89261  1.0000
  H   H652      1.0  0.02072  0.38330  0.50856  1.0000
  H   H653      1.0  0.15256  0.55853  0.81117  1.0000
  H   H654      1.0  0.43825  0.42700  0.88749  1.0000
  H   H655      1.0  0.29034  0.64546  0.80365  1.0000
  H   H656      1.0  0.22397  0.64252  0.93966  1.0000
  N   N20       1.0  0.16889  0.50286  0.80253  1.0000
  C   C370      1.0  0.18296  0.52828  0.80427  1.0000
  C   C371      1.0  0.18229  0.48672  0.78086  1.0000
  H   H657      1.0  0.06718  0.49893  0.63251  1.0000
  C   C372      1.0  0.16755  0.48813  0.82834  1.0000
  C   C373      1.0  0.19085  0.49126  0.84689  1.0000
  C   C374      1.0  0.16889  0.54927  0.82197  1.0000
  C   C375      1.0  0.21091  0.47736  0.78533  1.0000
  C   C376      1.0  0.22323  0.46442  0.76057  1.0000
  C   C377      1.0  0.18901  0.47210  0.86988  1.0000
  C   C378      1.0  0.18767  0.57069  0.82914  1.0000
  H   H658      1.0  0.18552  0.53709  0.78430  1.0000
  H   H659      1.0  0.20329  0.52539  0.81087  1.0000
  H   H660      1.0  0.17135  0.46865  0.77759  1.0000
  H   H661      1.0  0.18212  0.49759  0.76185  1.0000
  H   H662      1.0  0.14952  0.49390  0.84037  1.0000
  H   H663      1.0  0.16533  0.46702  0.82453  1.0000
  H   H664      1.0  0.19057  0.51106  0.85540  1.0000
  H   H665      1.0  0.21025  0.48816  0.83659  1.0000
  H   H666      1.0  0.16034  0.54082  0.84044  1.0000
  H   H667      1.0  0.34226  0.46000  0.80691  1.0000
  H   H668      1.0  0.22378  0.49349  0.79053  1.0000
  H   H669      1.0  0.21098  0.46261  0.80128  1.0000
  H   H670      1.0  0.22448  0.47848  0.74399  1.0000
  H   H671      1.0  0.24352  0.45743  0.76446  1.0000
  H   H672      1.0  0.21148  0.44759  0.75473  1.0000
  H   H673      1.0  0.20569  0.47495  0.88299  1.0000
  H   H674      1.0  0.17030  0.47524  0.88167  1.0000
  C   C379      1.0  0.17806  0.61025  0.68060  1.0000
  H   H675      1.0  0.42536  0.39467  0.88918  1.0000
  C   C380      1.0  0.33447  0.62747  0.98543  1.0000
  H   H676      1.0  0.12641  0.46937  0.80199  1.0000
  H   H677      1.0  0.38024  0.47359  0.84710  1.0000
  H   H678      1.0  0.17587  0.59101  0.69027  1.0000
  H   H679      1.0  0.17664  0.58595  0.84066  1.0000
  Fe  Fe42      1.0  0.00722  0.49241  0.73159  1.0000
  H   H680      1.0  0.06589  0.62369  0.76830  1.0000
  H   H681      1.0  0.31982  0.46810  0.85082  1.0000
  N   N21       1.0  0.36409  0.46561  0.88635  1.0000
  C   C381      1.0  0.36266  0.49280  0.89741  1.0000
  C   C382      1.0  0.34289  0.44921  0.89962  1.0000
  C   C383      1.0  0.39058  0.45399  0.89288  1.0000
  C   C384      1.0  0.36226  0.46521  0.85677  1.0000
  C   C385      1.0  0.33789  0.47890  0.84538  1.0000
  C   C386      1.0  0.38371  0.51190  0.88658  1.0000
  C   C387      1.0  0.39542  0.42502  0.88551  1.0000
  C   C388      1.0  0.31630  0.46296  0.90789  1.0000
  C   C389      1.0  0.29556  0.44342  0.91685  1.0000
  C   C390      1.0  0.34014  0.47986  0.81527  1.0000
  C   C391      1.0  0.37829  0.53924  0.89741  1.0000
  C   C392      1.0  0.42176  0.41508  0.89551  1.0000
  H   H682      1.0  0.36417  0.49196  0.91924  1.0000
  H   H683      1.0  0.34328  0.50218  0.89416  1.0000
  H   H684      1.0  0.33853  0.43231  0.88700  1.0000
  H   H685      1.0  0.35002  0.44073  0.91836  1.0000
  H   H686      1.0  0.05059  0.55605  0.51420  1.0000
  C   C393      1.0  0.18428  0.65821  0.68901  1.0000
  H   H687      1.0  0.19647  0.57972  0.81103  1.0000
  H   H688      1.0  0.02457  0.55721  0.53842  1.0000
  S   S86       1.0  0.00850  0.51039  0.63718  1.0000
  H   H689      1.0  0.02466  0.42531  0.72958  1.0000
  H   H690      1.0  0.14430  0.56517  0.52788  1.0000
  H   H691      1.0  0.08635  0.47894  0.54969  1.0000
  H   H692      1.0  0.15739  0.54948  0.55627  1.0000
  H   H693      1.0  0.08111  0.51724  0.52027  1.0000
  S   S87       1.0  0.29321  0.66140  0.92780  1.0000
  C   C394      1.0  0.32707  0.64040  0.85862  1.0000
  C   C395      1.0  0.04456  0.56480  0.53350  1.0000
  H   H694      1.0  0.20411  0.65677  0.67897  1.0000
  H   H695      1.0  0.22817  0.64308  0.86937  1.0000
  H   H696      1.0  0.19338  0.64702  0.75039  1.0000
  C   C396      1.0  0.17970  0.63126  0.70164  1.0000
  C   C397      1.0  0.21680  0.66072  0.94948  1.0000
  H   H697      1.0  0.23706  0.58049  0.95482  1.0000
  H   H698      1.0  0.02814  0.37960  0.57987  1.0000
  Fe  Fe43      1.0  0.01708  0.52125  0.67925  1.0000
  H   H699      1.0  0.01963  0.42476  0.52738  1.0000
  H   H700      1.0  0.01704  0.64065  0.80561  1.0000
  H   H701      1.0  0.15564  0.36452  0.51470  1.0000
  H   H702      1.0  0.32193  0.65682  0.80987  1.0000
  H   H703      1.0  0.05084  0.47525  0.55152  1.0000
  H   H704      1.0  0.04353  0.34022  0.60765  1.0000
  H   H705      1.0  0.37551  0.63482  0.88334  1.0000
  H   H706      1.0  0.06073  0.60408  0.52769  1.0000
  H   H707      1.0  0.00834  0.59085  0.50321  1.0000
  C   C398      1.0  0.48785  0.53242  0.98677  1.0000
  H   H708      1.0  0.04604  0.51308  0.52130  1.0000
  H   H709      1.0  0.20558  0.56613  0.96218  1.0000
  H   H710      1.0  0.10789  0.41044  0.50786  1.0000
  C   C399      1.0  0.02785  0.60013  0.50300  1.0000
  H   H711      1.0  0.18342  0.64519  0.99267  1.0000
  C   C400      1.0  0.23158  0.62033  0.99269  1.0000
  H   H712      1.0  0.06417  0.39136  0.50345  1.0000
  C   C401      1.0  0.22139  0.57781  0.97048  1.0000
  C   C402      1.0  0.00926  0.41352  0.73836  1.0000
  H   H713      1.0  0.17045  0.66075  0.67274  1.0000
  Fe  Fe44      1.0  0.18059  0.45838  0.51123  1.0000
  S   S88       1.0  0.22323  0.46886  0.51165  1.0000
  H   H714      1.0  0.47229  0.48150  0.99509  1.0000
  H   H715      1.0  0.48419  0.54453  0.93226  1.0000
  H   H716      1.0  0.22983  0.56676  0.98706  1.0000
  C   C403      1.0  0.05016  0.66221  0.76063  1.0000
  C   C404      1.0  0.00760  0.66353  0.74132  1.0000
  H   H717      1.0  0.25367  0.66199  0.96824  1.0000
  H   H718      1.0  0.06208  0.42225  0.52009  1.0000
  C   C405      1.0  0.00988  0.43313  0.51003  1.0000
  H   H719      1.0  0.01635  0.45367  0.50832  1.0000
  C   C406      1.0  0.21008  0.60406  0.97998  1.0000
  H   H720      1.0  0.02217  0.66398  0.87214  1.0000
  C   C407      1.0  0.06602  0.41262  0.50080  1.0000
  C   C408      1.0  0.22720  0.66409  0.76662  1.0000
  H   H721      1.0  0.25626  0.33368  0.51049  1.0000
  H   H722      1.0  0.19391  0.60027  0.99485  1.0000
  Fe  Fe45      1.0  0.32306  0.53977  0.00016  1.0000
  C   C409      1.0  0.00058  0.43012  0.65130  1.0000
  H   H723      1.0  0.28119  0.65557  0.99974  1.0000
  N   N22       1.0  0.22552  0.64875  0.99815  1.0000
  S   S89       1.0  0.10392  0.97577  0.04141  1.0000
  Fe  Fe46      1.0  0.05205  0.83233  0.03074  1.0000
  S   S90       1.0  0.05411  0.79183  0.04715  1.0000
  S   S91       1.0  0.05435  0.86495  0.06014  1.0000
  H   H724      1.0  0.03962  0.96059  0.01126  1.0000
  C   C410      1.0  0.43391  0.81854  0.38210  1.0000
  H   H725      1.0  0.48714  0.86288  0.39047  1.0000
  H   H726      1.0  0.13035  0.89642  0.06530  1.0000
  H   H727      1.0  0.39273  0.88882  0.38097  1.0000
  S   S92       1.0  0.48729  0.93596  0.48607  1.0000
  S   S93       1.0  0.47038  0.97103  0.29887  1.0000
  S   S94       1.0  0.45365  0.97498  0.37401  1.0000
  C   C411      1.0  0.44083  0.71010  0.01816  1.0000
  H   H728      1.0  0.45371  0.81174  0.37458  1.0000
  H   H729      1.0  0.14143  0.76594  0.04071  1.0000
  H   H730      1.0  0.15068  0.92971  0.03499  1.0000
  C   C412      1.0  0.47418  0.71830  0.08517  1.0000
  H   H731      1.0  0.10609  0.92939  0.00925  1.0000
  H   H732      1.0  0.48559  0.88828  0.34922  1.0000
  H   H733      1.0  0.20545  0.80029  0.07753  1.0000
  C   C413      1.0  0.47488  0.89636  0.36692  1.0000
  H   H734      1.0  0.45225  0.70215  0.03371  1.0000
  H   H735      1.0  0.19496  0.85902  0.07234  1.0000
  H   H736      1.0  0.16246  0.88765  0.07628  1.0000
  C   C414      1.0  0.12196  0.81547  0.06871  1.0000
  H   H737      1.0  0.47147  0.71342  0.12720  1.0000
  C   C415      1.0  0.40844  0.67016  0.12664  1.0000
  C   C416      1.0  0.18206  0.75965  0.02726  1.0000
  C   C417      1.0  0.42921  0.68775  0.11263  1.0000
  H   H738      1.0  0.11081  0.85425  0.05643  1.0000
  H   H739      1.0  0.43060  0.92934  0.29269  1.0000
  C   C418      1.0  0.46421  0.96719  0.40572  1.0000
  C   C419      1.0  0.44648  0.96974  0.42757  1.0000
  C   C420      1.0  0.45367  0.96117  0.45264  1.0000
  C   C421      1.0  0.48927  0.95643  0.40910  1.0000
  H   H740      1.0  0.15685  0.93502  0.06911  1.0000
  C   C422      1.0  0.38045  0.68023  0.12228  1.0000
  H   H741      1.0  0.43979  0.96283  0.46934  1.0000
  C   C423      1.0  0.08925  0.94521  0.04559  1.0000
  C   C424      1.0  0.09393  0.92551  0.02675  1.0000
  C   C425      1.0  0.08278  0.90087  0.03048  1.0000
  C   C426      1.0  0.06741  0.89577  0.05336  1.0000
  C   C427      1.0  0.06288  0.91543  0.07212  1.0000
  C   C428      1.0  0.07340  0.94014  0.06807  1.0000
  Fe  Fe47      1.0  0.01520  0.78649  0.02799  1.0000
  H   H742      1.0  0.08639  0.88576  0.01601  1.0000
  C   C429      1.0  0.19954  0.75281  0.00606  1.0000
  H   H743      1.0  0.45350  0.72363  0.08095  1.0000
  C   C430      1.0  0.15908  0.68292  0.02205  1.0000
  H   H744      1.0  0.42774  0.70661  0.12335  1.0000
  H   H745      1.0  0.17362  0.83605  0.08918  1.0000
  H   H746      1.0  0.37775  0.70039  0.12976  1.0000
  H   H747      1.0  0.48855  0.75525  0.07077  1.0000
  H   H748      1.0  0.24167  0.67866  0.02255  1.0000
  H   H749      1.0  0.19103  0.83724  0.03027  1.0000
  H   H750      1.0  0.09785  0.79407  0.09721  1.0000
  Fe  Fe48      1.0  0.07460  0.78090  0.00828  1.0000
  H   H751      1.0  0.46727  0.66814  0.20279  1.0000
  H   H752      1.0  0.11299  0.82221  0.11061  1.0000
  H   H753      1.0  0.39724  0.93045  0.42416  1.0000
  H   H754      1.0  0.43811  0.92785  0.34426  1.0000
  H   H755      1.0  0.06970  0.95512  0.08271  1.0000
  C   C431      1.0  0.47557  0.70060  0.10983  1.0000
  C   C432      1.0  0.18781  0.83885  0.07230  1.0000
  S   S95       1.0  0.01292  0.82740  0.01301  1.0000
  H   H756      1.0  0.13967  0.80354  0.07299  1.0000
  H   H757      1.0  0.46533  0.76317  0.02769  1.0000
  H   H758      1.0  0.13568  0.81518  0.01743  1.0000
  H   H759      1.0  0.18972  0.76258  0.04656  1.0000
  H   H760      1.0  0.02648  0.93720  0.03433  1.0000
  H   H761      1.0  0.42237  0.69232  0.09252  1.0000
  C   C433      1.0  0.43644  0.90647  0.34151  1.0000
  C   C434      1.0  0.02277  0.94764  0.01568  1.0000
  C   C435      1.0  0.17551  0.83295  0.04569  1.0000
  C   C436      1.0  0.15157  0.89458  0.05913  1.0000
  H   H762      1.0  0.37624  0.67986  0.10097  1.0000
  C   C437      1.0  0.00356  0.81809  0.10868  1.0000
  C   C438      1.0  0.47844  0.94955  0.45579  1.0000
  H   H763      1.0  0.15332  0.70351  0.02598  1.0000
  C   C439      1.0  0.38906  0.91241  0.41608  1.0000
  H   H764      1.0  0.12056  0.84587  0.01101  1.0000
  H   H765      1.0  0.46030  0.79779  0.03227  1.0000
  C   C440      1.0  0.43188  0.90406  0.38954  1.0000
  N   N23       1.0  0.44568  0.89204  0.36552  1.0000
  C   C441      1.0  0.48872  0.88426  0.39071  1.0000
  H   H766      1.0  0.13496  0.85293  0.08037  1.0000
  H   H767      1.0  0.44826  0.85087  0.40330  1.0000
  H   H768      1.0  0.41710  0.89722  0.29040  1.0000
  C   C442      1.0  0.10334  0.81448  0.09312  1.0000
  C   C443      1.0  0.41332  0.71374  0.02189  1.0000
  H   H769      1.0  0.43911  0.92397  0.39254  1.0000
  H   H770      1.0  0.44793  0.68885  0.16414  1.0000
  H   H771      1.0  0.41915  0.81414  0.36728  1.0000
  H   H772      1.0  0.22677  0.82307  0.06045  1.0000
  H   H773      1.0  0.00328  0.91241  0.07459  1.0000
  H   H774      1.0  0.42277  0.86080  0.34989  1.0000
  H   H775      1.0  0.42878  0.80770  0.40048  1.0000
  H   H776      1.0  0.39609  0.92308  0.37565  1.0000
  C   C444      1.0  0.21156  0.82087  0.07664  1.0000
  C   C445      1.0  0.43555  0.90829  0.29136  1.0000
  H   H777      1.0  0.48035  0.89215  0.40965  1.0000
  H   H778      1.0  0.36602  0.66773  0.13302  1.0000
  H   H779      1.0  0.22048  0.82574  0.09556  1.0000
  H   H780      1.0  0.17280  0.81166  0.04432  1.0000
  H   H781      1.0  0.45500  0.87828  0.31302  1.0000
  H   H782      1.0  0.41115  0.66988  0.14822  1.0000
  H   H783      1.0  0.45676  0.85360  0.35127  1.0000
  H   H784      1.0  0.14135  0.88395  0.02052  1.0000
  C   C446      1.0  0.44004  0.86350  0.36238  1.0000
  C   C447      1.0  0.46544  0.67587  0.16091  1.0000
  C   C448      1.0  0.43394  0.84763  0.38791  1.0000
  H   H785      1.0  0.08501  0.82595  0.08991  1.0000
  H   H786      1.0  0.48330  0.68797  0.16123  1.0000
  H   H787      1.0  0.11169  0.80636  0.05237  1.0000
  S   S96       1.0  0.23364  0.74851  0.01207  1.0000
  H   H788      1.0  0.19970  0.69011  0.02829  1.0000
  H   H789      1.0  0.18265  0.92144  0.04751  1.0000
  C   C449      1.0  0.40147  0.90665  0.38873  1.0000
  N   N24       1.0  0.45741  0.67768  0.11086  1.0000
  Fe  Fe49      1.0  0.48408  0.97520  0.34020  1.0000
  C   C450      1.0  0.16109  0.92178  0.05215  1.0000
  H   H790      1.0  0.41516  0.90305  0.33884  1.0000
  H   H791      1.0  0.47873  0.91759  0.36685  1.0000
  H   H792      1.0  0.44758  0.90478  0.27287  1.0000
  H   H793      1.0  0.17520  0.87868  0.02610  1.0000
  H   H794      1.0  0.36742  0.91516  0.41476  1.0000
  C   C451      1.0  0.18807  0.68126  0.01277  1.0000
  H   H795      1.0  0.05115  0.91160  0.08992  1.0000
  S   S97       1.0  0.36379  0.73032  0.00844  1.0000
  N   N25       1.0  0.15021  0.84731  0.04004  1.0000
  C   C452      1.0  0.12928  0.84384  0.06174  1.0000
  C   C453      1.0  0.15511  0.87592  0.03519  1.0000
  C   C454      1.0  0.13973  0.83619  0.01515  1.0000
  H   H796      1.0  0.40373  0.70849  0.04051  1.0000
  H   H797      1.0  0.00039  0.82640  0.12874  1.0000
  H   H798      1.0  0.42700  0.97797  0.42500  1.0000
  C   C455      1.0  0.45119  0.89947  0.31495  1.0000
  H   H799      1.0  0.43693  0.89361  0.40782  1.0000
  H   H800      1.0  0.47042  0.90938  0.31363  1.0000
  H   H801      1.0  0.15572  0.67169  0.04053  1.0000
  C   C456      1.0  0.15466  0.76186  0.02395  1.0000
  H   H802      1.0  0.39288  0.89606  0.42978  1.0000
  H   H803      1.0  0.41416  0.85308  0.39648  1.0000
  H   H804      1.0  0.48019  0.75480  0.10557  1.0000
  H   H805      1.0  0.49646  0.69394  0.11115  1.0000
  H   H806      1.0  0.00163  0.85464  0.08894  1.0000
  H   H807      1.0  0.28528  0.68130  0.04155  1.0000
  H   H808      1.0  0.14632  0.67550  0.00663  1.0000
  H   H809      1.0  0.45803  0.67390  0.06833  1.0000
  C   C457      1.0  0.48924  0.74331  0.08893  1.0000
  C   C458      1.0  0.46453  0.78224  0.01750  1.0000
  H   H810      1.0  0.02511  0.81599  0.10428  1.0000
  C   C459      1.0  0.49628  0.94738  0.43400  1.0000
  H   H811      1.0  0.48346  0.70831  0.06770  1.0000
  H   H812      1.0  0.44806  0.78189  0.00377  1.0000
  C   C460      1.0  0.39807  0.72427  0.00179  1.0000
  C   C461      1.0  0.49043  0.78714  0.00198  1.0000
  Fe  Fe50      1.0  0.43082  0.93405  0.57315  1.0000
  S   S98       1.0  0.47201  0.92142  0.55956  1.0000
  S   S99       1.0  0.39649  0.90771  0.58602  1.0000
  C   C462      1.0  0.43841  0.72817  0.97443  1.0000
  H   H813      1.0  0.09041  0.87612  0.96725  1.0000
  Fe  Fe51      1.0  0.46643  0.94769  0.52464  1.0000
  H   H814      1.0  0.24683  0.70914  0.86979  1.0000
  H   H815      1.0  0.41079  0.91007  0.79344  1.0000
  S   S100      1.0  0.42420  0.95785  0.53626  1.0000
  S   S101      1.0  0.44499  0.96811  0.59586  1.0000
  Fe  Fe52      1.0  0.31831  0.78300  0.75258  1.0000
  S   S102      1.0  0.33704  0.77727  0.71224  1.0000
  S   S103      1.0  0.33449  0.75969  0.78596  1.0000
  Fe  Fe53      1.0  0.27470  0.81749  0.73220  1.0000
  S   S104      1.0  0.28951  0.81447  0.68984  1.0000
  S   S105      1.0  0.23791  0.83840  0.74763  1.0000
  Fe  Fe54      1.0  0.29560  0.77214  0.69988  1.0000
  S   S106      1.0  0.28356  0.73769  0.67617  1.0000
  Fe  Fe55      1.0  0.32990  0.82008  0.70575  1.0000
  S   S107      1.0  0.36484  0.84501  0.69176  1.0000
  S   S108      1.0  0.27759  0.77500  0.74066  1.0000
  S   S109      1.0  0.31437  0.82611  0.74773  1.0000
  Fe  Fe56      1.0  0.05369  0.80345  0.78365  1.0000
  S   S110      1.0  0.09625  0.80045  0.79416  1.0000
  S   S111      1.0  0.02753  0.83810  0.79787  1.0000
  Fe  Fe57      1.0  0.05225  0.74355  0.77002  1.0000
  S   S112      1.0  0.09414  0.73741  0.78104  1.0000
  S   S113      1.0  0.02536  0.71127  0.75616  1.0000
  Fe  Fe58      1.0  0.08454  0.76401  0.81503  1.0000
  S   S114      1.0  0.09786  0.75703  0.85605  1.0000
  Fe  Fe59      1.0  0.10176  0.77441  0.75881  1.0000
  S   S115      1.0  0.13715  0.77092  0.73055  1.0000
  S   S116      1.0  0.04192  0.76744  0.80615  1.0000
  S   S117      1.0  0.05994  0.77988  0.74604  1.0000
  Fe  Fe60      1.0  0.03618  0.81269  0.97766  1.0000
  H   H816      1.0  0.42136  0.90256  0.63735  1.0000
  S   S118      1.0  0.02737  0.82465  0.93652  1.0000
  C   C463      1.0  0.24750  0.73043  0.86658  1.0000
  Fe  Fe61      1.0  0.33004  0.73450  0.97994  1.0000
  S   S119      1.0  0.33141  0.72626  0.93632  1.0000
  H   H817      1.0  0.28112  0.71732  0.81313  1.0000
  Fe  Fe62      1.0  0.26851  0.74079  0.98280  1.0000
  S   S120      1.0  0.26580  0.73215  0.93986  1.0000
  H   H818      1.0  0.13805  0.80850  0.96809  1.0000
  Fe  Fe63      1.0  0.29669  0.70118  0.94558  1.0000
  H   H819      1.0  0.20849  0.67870  0.91198  1.0000
  Fe  Fe64      1.0  0.30046  0.75807  0.93405  1.0000
  S   S121      1.0  0.29586  0.78808  0.90194  1.0000
  H   H820      1.0  0.22342  0.67278  0.71540  1.0000
  S   S122      1.0  0.30177  0.76882  0.97701  1.0000
  H   H821      1.0  0.27915  0.69114  0.78990  1.0000
  C   C464      1.0  0.17101  0.77074  0.87984  1.0000
  H   H822      1.0  0.13503  0.79240  0.89142  1.0000
  H   H823      1.0  0.40934  0.77637  0.61692  1.0000
  C   C465      1.0  0.13145  0.68437  0.70653  1.0000
  Fe  Fe65      1.0  0.01008  0.99357  0.81349  1.0000
  H   H824      1.0  0.34617  0.92950  0.61217  1.0000
  H   H825      1.0  0.35026  0.70599  0.68741  1.0000
  H   H826      1.0  0.32666  0.96251  0.56635  1.0000
  H   H827      1.0  0.48822  0.80616  0.99201  1.0000
  H   H828      1.0  0.05846  0.69788  0.86446  1.0000
  H   H829      1.0  0.41140  0.97569  0.64723  1.0000
  S   S123      1.0  0.48860  0.71642  0.99016  1.0000
  C   C466      1.0  0.07820  0.77575  0.87842  1.0000
  C   C467      1.0  0.08136  0.77312  0.90554  1.0000
  C   C468      1.0  0.06592  0.78827  0.92344  1.0000
  C   C469      1.0  0.04695  0.80578  0.91428  1.0000
  C   C470      1.0  0.04375  0.80836  0.88717  1.0000
  C   C471      1.0  0.05949  0.79354  0.86931  1.0000
  H   H830      1.0  0.09569  0.75935  0.91279  1.0000
  H   H831      1.0  0.06873  0.78624  0.94431  1.0000
  H   H832      1.0  0.02917  0.82185  0.87990  1.0000
  H   H833      1.0  0.05740  0.79635  0.84846  1.0000
  H   H834      1.0  0.07218  0.98901  0.85314  1.0000
  H   H835      1.0  0.00863  0.98862  0.98599  1.0000
  H   H836      1.0  0.00584  0.92714  0.82721  1.0000
  C   C472      1.0  0.18152  0.73670  0.78002  1.0000
  H   H837      1.0  0.21729  0.75186  0.79490  1.0000
  H   H838      1.0  0.31086  0.70270  0.79910  1.0000
  C   C473      1.0  0.03062  0.87243  0.79578  1.0000
  H   H839      1.0  0.40813  0.82500  0.62382  1.0000
  C   C474      1.0  0.29042  0.69870  0.80641  1.0000
  C   C475      1.0  0.02980  0.92749  0.79139  1.0000
  C   C476      1.0  0.04409  0.91189  0.77285  1.0000
  C   C477      1.0  0.04471  0.88456  0.77512  1.0000
  C   C478      1.0  0.38505  0.79252  0.88501  1.0000
  H   H840      1.0  0.26699  0.68499  0.66768  1.0000
  H   H841      1.0  0.05452  0.92099  0.75638  1.0000
  H   H842      1.0  0.05536  0.87287  0.76038  1.0000
  C   C479      1.0  0.32008  0.76505  0.81756  1.0000
  C   C480      1.0  0.32874  0.75006  0.83869  1.0000
  C   C481      1.0  0.32025  0.75615  0.86465  1.0000
  C   C482      1.0  0.30356  0.77763  0.86957  1.0000
  C   C483      1.0  0.29406  0.79197  0.84835  1.0000
  C   C484      1.0  0.30190  0.78540  0.82232  1.0000
  H   H843      1.0  0.34267  0.73419  0.83506  1.0000
  H   H844      1.0  0.32758  0.74494  0.88088  1.0000
  H   H845      1.0  0.28113  0.80857  0.85210  1.0000
  H   H846      1.0  0.29484  0.79681  0.80605  1.0000
  C   C485      1.0  0.20959  0.82018  0.74271  1.0000
  C   C486      1.0  0.21099  0.79865  0.72601  1.0000
  C   C487      1.0  0.18855  0.78391  0.72242  1.0000
  C   C488      1.0  0.16457  0.79036  0.73563  1.0000
  C   C489      1.0  0.16307  0.81189  0.75244  1.0000
  C   C490      1.0  0.18553  0.82692  0.75579  1.0000
  H   H847      1.0  0.22929  0.79354  0.71549  1.0000
  H   H848      1.0  0.18980  0.76741  0.70942  1.0000
  H   H849      1.0  0.14457  0.81720  0.76245  1.0000
  H   H850      1.0  0.18426  0.84375  0.76849  1.0000
  C   C491      1.0  0.28714  0.70900  0.69474  1.0000
  C   C492      1.0  0.30044  0.70944  0.71826  1.0000
  H   H851      1.0  0.38508  0.77895  0.75391  1.0000
  H   H852      1.0  0.30876  0.72723  0.72501  1.0000
  H   H853      1.0  0.24092  0.77234  0.83201  1.0000
  C   C493      1.0  0.38830  0.89040  0.61569  1.0000
  C   C494      1.0  0.36528  0.87555  0.61698  1.0000
  C   C495      1.0  0.35745  0.86208  0.64017  1.0000
  C   C496      1.0  0.37284  0.86281  0.66235  1.0000
  C   C497      1.0  0.39598  0.87749  0.66102  1.0000
  C   C498      1.0  0.40360  0.89131  0.63794  1.0000
  H   H854      1.0  0.35335  0.87452  0.59990  1.0000
  H   H855      1.0  0.33953  0.85117  0.64091  1.0000
  H   H856      1.0  0.40814  0.87817  0.67798  1.0000
  N   N26       1.0  0.06163  0.90229  0.88291  1.0000
  C   C499      1.0  0.06807  0.87551  0.87211  1.0000
  C   C500      1.0  0.03209  0.90580  0.88629  1.0000
  C   C501      1.0  0.07107  0.92170  0.86239  1.0000
  C   C502      1.0  0.07477  0.90764  0.90850  1.0000
  C   C503      1.0  0.07898  0.88424  0.92736  1.0000
  C   C504      1.0  0.09723  0.87079  0.86262  1.0000
  C   C505      1.0  0.06341  0.95054  0.86790  1.0000
  H   H857      1.0  0.31649  0.94848  0.61658  1.0000
  C   C506      1.0  0.16180  0.75012  0.97817  1.0000
  C   C507      1.0  0.08693  0.89327  0.95451  1.0000
  C   C508      1.0  0.10383  0.84192  0.85937  1.0000
  C   C509      1.0  0.01650  0.91540  0.81258  1.0000
  H   H858      1.0  0.05569  0.87137  0.85501  1.0000
  H   H859      1.0  0.06293  0.86024  0.88672  1.0000
  H   H860      1.0  0.02682  0.92536  0.89434  1.0000
  H   H861      1.0  0.19017  0.69320  0.99463  1.0000
  H   H862      1.0  0.06365  0.91673  0.84267  1.0000
  H   H863      1.0  0.09294  0.92088  0.86000  1.0000
  H   H864      1.0  0.09470  0.91582  0.90461  1.0000
  H   H865      1.0  0.06356  0.92309  0.91977  1.0000
  H   H866      1.0  0.09493  0.87114  0.91929  1.0000
  H   H867      1.0  0.06119  0.87243  0.93024  1.0000
  H   H868      1.0  0.10086  0.88011  0.84308  1.0000
  H   H869      1.0  0.11100  0.87908  0.87659  1.0000
  H   H870      1.0  0.06813  0.95624  0.88821  1.0000
  S   S124      1.0  0.07527  0.82200  0.99353  1.0000
  H   H871      1.0  0.02311  0.90479  0.86676  1.0000
  S   S125      1.0  0.48229  0.98282  0.54380  1.0000
  H   H872      1.0  0.24756  0.74008  0.88609  1.0000
  H   H873      1.0  0.09962  0.96646  0.85035  1.0000
  H   H874      1.0  0.10530  0.90458  0.95288  1.0000
  H   H875      1.0  0.07096  0.90541  0.96412  1.0000
  H   H876      1.0  0.07280  0.96432  0.82802  1.0000
  H   H877      1.0  0.10141  0.83164  0.87855  1.0000
  H   H878      1.0  0.09077  0.83320  0.84494  1.0000
  H   H879      1.0  0.12455  0.83923  0.85189  1.0000
  H   H880      1.0  0.43228  0.88356  0.80239  1.0000
  H   H881      1.0  0.34761  0.67848  0.66608  1.0000
  C   C510      1.0  0.41077  0.73117  0.97786  1.0000
  N   N27       1.0  0.19926  0.78250  0.83757  1.0000
  C   C511      1.0  0.18198  0.79175  0.86077  1.0000
  C   C512      1.0  0.20669  0.80615  0.82142  1.0000
  C   C513      1.0  0.21973  0.82832  0.83654  1.0000
  C   C514      1.0  0.15206  0.78281  0.90078  1.0000
  C   C515      1.0  0.23279  0.84770  0.81761  1.0000
  H   H882      1.0  0.19294  0.80498  0.87343  1.0000
  H   H883      1.0  0.16488  0.80328  0.85356  1.0000
  H   H884      1.0  0.18902  0.81470  0.81206  1.0000
  H   H885      1.0  0.22070  0.80062  0.80479  1.0000
  H   H886      1.0  0.23064  0.77881  0.86500  1.0000
  H   H887      1.0  0.23496  0.82066  0.84965  1.0000
  H   H888      1.0  0.20457  0.83922  0.84871  1.0000
  H   H889      1.0  0.14442  0.76742  0.91422  1.0000
  H   H890      1.0  0.16230  0.79721  0.91268  1.0000
  H   H891      1.0  0.24135  0.86365  0.82892  1.0000
  H   H892      1.0  0.24887  0.83798  0.80560  1.0000
  H   H893      1.0  0.21815  0.85619  0.80422  1.0000
  H   H894      1.0  0.00573  0.87885  0.83060  1.0000
  C   C516      1.0  0.08863  0.68608  0.83577  1.0000
  C   C517      1.0  0.45361  0.71763  0.99455  1.0000
  H   H895      1.0  0.09234  0.68560  0.81405  1.0000
  C   C518      1.0  0.20529  0.68095  0.72567  1.0000
  H   H896      1.0  0.23146  0.68625  0.97956  1.0000
  C   C519      1.0  0.01670  0.88807  0.81457  1.0000
  C   C520      1.0  0.35755  0.69729  0.66840  1.0000
  N   N28       1.0  0.35659  0.76321  0.62955  1.0000
  C   C521      1.0  0.32753  0.76912  0.63388  1.0000
  C   C522      1.0  0.36449  0.74186  0.64826  1.0000
  C   C523      1.0  0.37120  0.78729  0.63686  1.0000
  C   C524      1.0  0.36409  0.75603  0.60132  1.0000
  C   C525      1.0  0.34335  0.74132  0.58573  1.0000
  C   C526      1.0  0.31693  0.79352  0.61951  1.0000
  C   C527      1.0  0.40176  0.78475  0.63593  1.0000
  C   C528      1.0  0.35121  0.71527  0.64542  1.0000
  C   C529      1.0  0.07797  0.96858  0.84861  1.0000
  H   H897      1.0  0.32272  0.77208  0.65526  1.0000
  H   H898      1.0  0.31550  0.75247  0.62834  1.0000
  H   H899      1.0  0.38595  0.73743  0.64603  1.0000
  H   H900      1.0  0.36089  0.74846  0.66898  1.0000
  H   H901      1.0  0.36478  0.79398  0.65707  1.0000
  H   H902      1.0  0.38270  0.74420  0.60055  1.0000
  H   H903      1.0  0.32663  0.75450  0.58110  1.0000
  H   H904      1.0  0.33507  0.72471  0.59685  1.0000
  H   H905      1.0  0.32137  0.81109  0.63097  1.0000
  H   H906      1.0  0.40849  0.77228  0.65227  1.0000
  H   H907      1.0  0.32950  0.71701  0.64515  1.0000
  H   H908      1.0  0.35882  0.70554  0.62708  1.0000
  H   H909      1.0  0.17807  0.74704  0.83077  1.0000
  H   H910      1.0  0.36810  0.77922  0.88516  1.0000
  C   C530      1.0  0.02858  0.67682  0.75199  1.0000
  H   H911      1.0  0.27983  0.81121  0.60839  1.0000
  H   H912      1.0  0.19606  0.77524  0.78003  1.0000
  N   N29       1.0  0.37417  0.82875  0.81823  1.0000
  C   C531      1.0  0.34807  0.83725  0.80761  1.0000
  C   C532      1.0  0.38718  0.80896  0.79972  1.0000
  C   C533      1.0  0.36850  0.81529  0.84431  1.0000
  C   C534      1.0  0.39223  0.85115  0.82266  1.0000
  C   C535      1.0  0.39049  0.87451  0.80336  1.0000
  C   C536      1.0  0.32959  0.85324  0.82684  1.0000
  H   H913      1.0  0.13029  0.70318  0.69590  1.0000
  C   C537      1.0  0.39191  0.81711  0.77052  1.0000
  C   C538      1.0  0.40064  0.79383  0.75347  1.0000
  C   C539      1.0  0.30670  0.86571  0.81251  1.0000
  H   H914      1.0  0.40208  0.78199  0.89336  1.0000
  H   H915      1.0  0.33702  0.81998  0.80160  1.0000
  H   H916      1.0  0.35072  0.84874  0.78927  1.0000
  Fe  Fe66      1.0  0.48552  0.95753  0.57926  1.0000
  H   H917      1.0  0.37537  0.79100  0.80000  1.0000
  H   H918      1.0  0.35307  0.80051  0.84220  1.0000
  H   H919      1.0  0.36025  0.82933  0.85927  1.0000
  H   H920      1.0  0.38846  0.85950  0.84273  1.0000
  H   H921      1.0  0.16044  0.74244  0.77832  1.0000
  H   H922      1.0  0.37171  0.88553  0.80705  1.0000
  H   H923      1.0  0.39122  0.86841  0.78249  1.0000
  H   H924      1.0  0.32095  0.84042  0.84239  1.0000
  H   H925      1.0  0.34044  0.86872  0.83665  1.0000
  H   H926      1.0  0.18289  0.71840  0.79147  1.0000
  H   H927      1.0  0.27707  0.79033  0.63688  1.0000
  H   H928      1.0  0.37397  0.82536  0.76180  1.0000
  H   H929      1.0  0.40793  0.83139  0.76886  1.0000
  H   H930      1.0  0.41919  0.78499  0.76050  1.0000
  H   H931      1.0  0.40688  0.80293  0.80658  1.0000
  H   H932      1.0  0.40404  0.80023  0.73271  1.0000
  H   H933      1.0  0.31406  0.87976  0.79744  1.0000
  H   H934      1.0  0.29529  0.85061  0.80270  1.0000
  H   H935      1.0  0.29330  0.87621  0.82687  1.0000
  C   C540      1.0  0.18928  0.74848  0.98133  1.0000
  H   H936      1.0  0.31449  0.68716  0.75084  1.0000
  H   H937      1.0  0.36322  0.74716  0.54729  1.0000
  N   N30       1.0  0.18252  0.68130  0.70732  1.0000
  C   C541      1.0  0.36929  0.97730  0.61429  1.0000
  C   C542      1.0  0.18430  0.70559  0.69060  1.0000
  C   C543      1.0  0.29062  0.67921  0.82918  1.0000
  C   C544      1.0  0.21152  0.71063  0.67656  1.0000
  H   H938      1.0  0.02217  0.86621  0.89935  1.0000
  C   C545      1.0  0.01747  0.88656  0.90483  1.0000
  C   C546      1.0  0.21002  0.73347  0.65740  1.0000
  H   H939      1.0  0.21349  0.70143  0.93809  1.0000
  H   H940      1.0  0.21038  0.70110  0.73115  1.0000
  H   H941      1.0  0.17909  0.72307  0.70282  1.0000
  H   H942      1.0  0.16962  0.70531  0.67494  1.0000
  H   H943      1.0  0.44806  0.73421  0.95611  1.0000
  H   H944      1.0  0.21881  0.69357  0.66503  1.0000
  H   H945      1.0  0.22640  0.71533  0.69113  1.0000
  H   H946      1.0  0.06137  0.71814  0.83558  1.0000
  S   S126      1.0  0.29669  0.70741  0.98919  1.0000
  H   H947      1.0  0.10559  0.69837  0.73899  1.0000
  S   S127      1.0  0.03571  0.77116  0.99076  1.0000
  C   C547      1.0  0.14404  0.82903  0.96565  1.0000
  H   H948      1.0  0.20356  0.75149  0.66789  1.0000
  H   H949      1.0  0.22984  0.73671  0.64803  1.0000
  H   H950      1.0  0.19614  0.72942  0.64166  1.0000
  H   H951      1.0  0.15397  0.74564  0.95926  1.0000
  H   H952      1.0  0.41247  0.90070  0.82757  1.0000
  H   H953      1.0  0.38483  0.96341  0.60646  1.0000
  C   C548      1.0  0.39224  0.80137  0.85689  1.0000
  C   C549      1.0  0.10652  0.68248  0.72426  1.0000
  H   H954      1.0  0.30222  0.68763  0.84498  1.0000
  H   H955      1.0  0.34254  0.98957  0.53737  1.0000
  C   C550      1.0  0.22361  0.73963  0.85152  1.0000
  H   H956      1.0  0.30819  0.90332  0.60266  1.0000
  H   H957      1.0  0.39819  0.78371  0.84544  1.0000
  H   H958      1.0  0.15764  0.83033  0.94803  1.0000
  H   H959      1.0  0.37132  0.71662  0.56309  1.0000
  H   H960      1.0  0.20243  0.74309  0.96487  1.0000
  H   H961      1.0  0.40914  0.81921  0.65898  1.0000
  C   C551      1.0  0.32996  0.93908  0.60157  1.0000
  H   H962      1.0  0.32620  0.79561  0.59947  1.0000
  H   H963      1.0  0.15607  0.70013  0.73608  1.0000
  C   C552      1.0  0.30365  0.68668  0.73297  1.0000
  C   C553      1.0  0.41293  0.89329  0.80701  1.0000
  C   C554      1.0  0.06133  0.69778  0.84268  1.0000
  H   H964      1.0  0.26608  0.73502  0.85540  1.0000
  H   H965      1.0  0.32821  0.90787  0.57290  1.0000
  H   H966      1.0  0.37980  0.80944  0.89785  1.0000
  C   C555      1.0  0.22425  0.76940  0.84664  1.0000
  H   H967      1.0  0.16398  0.77495  0.81660  1.0000
  C   C556      1.0  0.28704  0.79278  0.61716  1.0000
  H   H968      1.0  0.35838  0.94916  0.57057  1.0000
  H   H969      1.0  0.36630  0.80366  0.62348  1.0000
  H   H970      1.0  0.37912  0.69353  0.66905  1.0000
  H   H971      1.0  0.35899  0.96700  0.63090  1.0000
  S   S128      1.0  0.02830  0.96174  0.78665  1.0000
  C   C557      1.0  0.41448  0.81110  0.63919  1.0000
  H   H972      1.0  0.20573  0.73360  0.86286  1.0000
  C   C558      1.0  0.27687  0.68556  0.68610  1.0000
  H   H973      1.0  0.19015  0.73341  0.75984  1.0000
  H   H974      1.0  0.10391  0.69813  0.84450  1.0000
  H   H975      1.0  0.36870  0.77373  0.58947  1.0000
  C   C559      1.0  0.15655  0.68278  0.72293  1.0000
  C   C560      1.0  0.35527  0.73102  0.55957  1.0000
  C   C561      1.0  0.18333  0.76533  0.82052  1.0000
  H   H976      1.0  0.16001  0.75582  0.86942  1.0000
  H   H977      1.0  0.12632  0.84132  0.96221  1.0000
  H   H978      1.0  0.29762  0.92623  0.57818  1.0000
  H   H979      1.0  0.40935  0.81436  0.85759  1.0000
  H   H980      1.0  0.28166  0.77645  0.60433  1.0000
  H   H981      1.0  0.01500  0.69672  0.88044  1.0000
  H   H982      1.0  0.41311  0.84410  0.82238  1.0000
  H   H983      1.0  0.18731  0.76144  0.89051  1.0000
  H   H984      1.0  0.43626  0.80883  0.63740  1.0000
  C   C562      1.0  0.19641  0.75815  0.79329  1.0000
  H   H985      1.0  0.02248  0.89004  0.92556  1.0000
  H   H986      1.0  0.39937  0.73949  0.96231  1.0000
  C   C563      1.0  0.31506  0.91787  0.58787  1.0000
  H   H987      1.0  0.22411  0.72906  0.83249  1.0000
  H   H988      1.0  0.33984  0.72129  0.54853  1.0000
  H   H989      1.0  0.04203  0.95394  0.86535  1.0000
  C   C564      1.0  0.03950  0.68256  0.82928  1.0000
  H   H990      1.0  0.01002  0.72219  0.81434  1.0000
  C   C565      1.0  0.34145  0.95903  0.58144  1.0000
  N   N31       1.0  0.35023  0.98416  0.59313  1.0000
  Fe  Fe67      1.0  0.44105  0.99101  0.55843  1.0000
  H   H991      1.0  0.06652  0.67200  0.76888  1.0000
  H   H992      1.0  0.04164  0.68672  0.80781  1.0000
  H   H993      1.0  0.49280  0.77165  0.98704  1.0000
  H   H994      1.0  0.29153  0.97938  0.59703  1.0000
  H   H995      1.0  0.02028  0.72841  0.84690  1.0000
  H   H996      1.0  0.38358  0.98853  0.56583  1.0000
  H   H997      1.0  0.17585  0.82573  0.99174  1.0000
  H   H998      1.0  0.24125  0.68388  0.92256  1.0000
  H   H999      1.0  0.02171  0.93309  0.99968  1.0000
  C   C566      1.0  0.22031  0.68260  0.92939  1.0000
  H   H1000     1.0  0.23579  0.68346  0.76958  1.0000
  C   C567      1.0  0.39735  0.99208  0.65155  1.0000
  H   H1001     1.0  0.38272  0.98605  0.66713  1.0000
  H   H1002     1.0  0.16416  0.85850  0.98627  1.0000
  H   H1003     1.0  0.18719  0.67788  0.76556  1.0000
  H   H1004     1.0  0.08881  0.68424  0.71221  1.0000
  C   C568      1.0  0.15797  0.83826  0.98994  1.0000
  C   C569      1.0  0.14430  0.75688  0.99942  1.0000
  H   H1005     1.0  0.32405  0.99500  0.62645  1.0000
  N   N32       1.0  0.01146  0.68822  0.83906  1.0000
  C   C570      1.0  0.00859  0.68055  0.86779  1.0000
  C   C571      1.0  0.00638  0.71693  0.83549  1.0000
  H   H1006     1.0  0.26998  0.67715  0.83677  1.0000
  H   H1007     1.0  0.13112  0.66833  0.69206  1.0000
  C   C572      1.0  0.23268  0.66525  0.97440  1.0000
  S   S129      1.0  0.10976  0.75448  0.99564  1.0000
  C   C573      1.0  0.20130  0.66667  0.75250  1.0000
  H   H1008     1.0  0.15419  0.66596  0.73641  1.0000
  H   H1009     1.0  0.09040  0.66609  0.84376  1.0000
  H   H1010     1.0  0.33194  0.66529  0.96751  1.0000
  H   H1011     1.0  0.91987  0.05810  0.07909  1.0000
  C   C574      1.0  0.65135  0.06911  0.48435  1.0000
  C   C575      1.0  0.87711  0.31925  0.45825  1.0000
  C   C576      1.0  0.72304  0.11051  0.46187  1.0000
  S   S130      1.0  0.79868  0.01672  0.05910  1.0000
  S   S131      1.0  0.87244  0.03100  0.07064  1.0000
  H   H1012     1.0  0.71937  0.05251  0.42815  1.0000
  H   H1013     1.0  0.75046  0.03205  0.45045  1.0000
  H   H1014     1.0  0.53970  0.22659  0.48921  1.0000
  C   C577      1.0  0.72199  0.07380  0.42993  1.0000
  H   H1015     1.0  0.74315  0.04757  0.38520  1.0000
  H   H1016     1.0  0.70938  0.11956  0.44772  1.0000
  H   H1017     1.0  0.76096  0.12081  0.47778  1.0000
  H   H1018     1.0  0.65060  0.04726  0.42452  1.0000
  H   H1019     1.0  0.68749  0.02702  0.16630  1.0000
  H   H1020     1.0  0.53316  0.04354  0.48360  1.0000
  H   H1021     1.0  0.58289  0.23545  0.49039  1.0000
  H   H1022     1.0  0.74450  0.10289  0.40770  1.0000
  H   H1023     1.0  0.62458  0.23598  0.46266  1.0000
  N   N33       1.0  0.72412  0.08132  0.45847  1.0000
  H   H1024     1.0  0.97597  0.06121  0.04340  1.0000
  H   H1025     1.0  0.71895  0.01385  0.28474  1.0000
  H   H1026     1.0  0.73581  0.03172  0.48355  1.0000
  C   C578      1.0  0.90449  0.01955  0.07688  1.0000
  C   C579      1.0  0.53770  0.27610  0.41068  1.0000
  C   C580      1.0  0.53419  0.25070  0.42681  1.0000
  H   H1027     1.0  0.99666  0.14796  0.10492  1.0000
  C   C581      1.0  0.95037  0.02912  0.08461  1.0000
  C   C582      1.0  0.92445  0.03754  0.08015  1.0000
  H   H1028     1.0  0.55538  0.15963  0.46493  1.0000
  H   H1029     1.0  0.73326  0.16121  0.47670  1.0000
  H   H1030     1.0  0.96560  0.04311  0.08726  1.0000
  H   H1031     1.0  0.62391  0.27117  0.46380  1.0000
  H   H1032     1.0  0.58218  0.27032  0.49129  1.0000
  H   H1033     1.0  0.51598  0.22160  0.46548  1.0000
  C   C583      1.0  0.67670  0.00550  0.25238  1.0000
  H   H1034     1.0  0.62082  0.02723  0.23185  1.0000
  H   H1035     1.0  0.63212  0.07886  0.48084  1.0000
  C   C584      1.0  0.70629  0.00844  0.24452  1.0000
  H   H1036     1.0  0.52976  0.29330  0.42163  1.0000
  H   H1037     1.0  0.70395  0.07037  0.49504  1.0000
  H   H1038     1.0  0.61284  0.28956  0.01255  1.0000
  C   C585      1.0  0.67344  0.08338  0.46936  1.0000
  H   H1039     1.0  0.58322  0.24030  0.43848  1.0000
  H   H1040     1.0  0.57398  0.20253  0.45997  1.0000
  H   H1041     1.0  0.76433  0.07527  0.41778  1.0000
  H   H1042     1.0  0.67443  0.02244  0.43280  1.0000
  C   C586      1.0  0.54331  0.17669  0.47180  1.0000
  H   H1043     1.0  0.62969  0.00911  0.44616  1.0000
  C   C587      1.0  0.97467  0.01956  0.01071  1.0000
  C   C588      1.0  0.74955  0.12506  0.45999  1.0000
  C   C589      1.0  0.77778  0.03143  0.48150  1.0000
  H   H1044     1.0  0.51441  0.31976  0.07665  1.0000
  H   H1045     1.0  0.50880  0.01055  0.45988  1.0000
  C   C590      1.0  0.53167  0.27271  0.47046  1.0000
  C   C591      1.0  0.70070  0.07004  0.47356  1.0000
  H   H1046     1.0  0.89722  0.32498  0.46329  1.0000
  H   H1047     1.0  0.80817  0.32586  0.48233  1.0000
  H   H1048     1.0  0.54950  0.19802  0.43585  1.0000
  H   H1049     1.0  0.76025  0.32320  0.48006  1.0000
  H   H1050     1.0  0.57828  0.27388  0.44397  1.0000
  C   C592      1.0  0.95636  0.00263  0.08633  1.0000
  S   S132      1.0  0.50713  0.01114  0.33142  1.0000
  H   H1051     1.0  0.66377  0.00570  0.15236  1.0000
  H   H1052     1.0  0.51303  0.24583  0.42735  1.0000
  C   C593      1.0  0.95355  0.04176  0.01361  1.0000
  N   N34       1.0  0.54426  0.25087  0.45433  1.0000
  H   H1053     1.0  0.87030  0.30347  0.47167  1.0000
  C   C594      1.0  0.96491  0.06605  0.02559  1.0000
  H   H1054     1.0  0.99784  0.11918  0.08437  1.0000
  H   H1055     1.0  0.71469  0.11562  0.48187  1.0000
  H   H1056     1.0  0.55886  0.27914  0.40554  1.0000
  H   H1057     1.0  0.72306  0.07501  0.37519  1.0000
  C   C595      1.0  0.74875  0.07020  0.47019  1.0000
  H   H1058     1.0  0.53737  0.27102  0.49128  1.0000
  H   H1059     1.0  0.51011  0.08830  0.49988  1.0000
  H   H1060     1.0  0.69861  0.04919  0.46855  1.0000
  C   C596      1.0  0.74209  0.06909  0.38366  1.0000
  C   C597      1.0  0.52326  0.27488  0.38491  1.0000
  C   C598      1.0  0.51300  0.03882  0.49112  1.0000
  H   H1061     1.0  0.66092  0.02142  0.20785  1.0000
  H   H1062     1.0  0.57960  0.00234  0.24075  1.0000
  C   C599      1.0  0.63543  0.00827  0.42487  1.0000
  C   C600      1.0  0.58781  0.25316  0.47897  1.0000
  H   H1063     1.0  0.61591  0.29955  0.05968  1.0000
  C   C601      1.0  0.65784  0.02726  0.41997  1.0000
  C   C602      1.0  0.57364  0.25453  0.45250  1.0000
  H   H1064     1.0  0.76198  0.11934  0.44251  1.0000
  H   H1065     1.0  0.97921  0.01374  0.03114  1.0000
  C   C603      1.0  0.75148  0.04020  0.47056  1.0000
  H   H1066     1.0  0.75836  0.07540  0.36997  1.0000
  C   C604      1.0  0.55255  0.20101  0.45712  1.0000
  H   H1067     1.0  0.66863  0.02569  0.25306  1.0000
  H   H1068     1.0  0.54542  0.17888  0.49339  1.0000
  H   H1069     1.0  0.50523  0.13309  0.41549  1.0000
  C   C605      1.0  0.58946  0.01241  0.25684  1.0000
  H   H1070     1.0  0.77897  0.00989  0.48195  1.0000
  H   H1071     1.0  0.66506  0.02666  0.39900  1.0000
  H   H1072     1.0  0.70391  0.08263  0.42181  1.0000
  H   H1073     1.0  0.79450  0.03861  0.46889  1.0000
  H   H1074     1.0  0.52736  0.29249  0.37293  1.0000
  C   C606      1.0  0.74492  0.15442  0.45894  1.0000
  C   C607      1.0  0.61772  0.25323  0.47430  1.0000
  H   H1075     1.0  0.97832  0.07562  0.01095  1.0000
  C   C608      1.0  0.68300  0.00652  0.16193  1.0000
  C   C609      1.0  0.74489  0.08156  0.41069  1.0000
  H   H1076     1.0  0.52239  0.17294  0.46791  1.0000
  H   H1077     1.0  0.94869  0.07995  0.03126  1.0000
  H   H1078     1.0  0.52907  0.32339  0.20426  1.0000
  H   H1079     1.0  0.76681  0.07759  0.46002  1.0000
  H   H1080     1.0  0.54415  0.23506  0.41483  1.0000
  H   H1081     1.0  0.66880  0.08377  0.44826  1.0000
  C   C610      1.0  0.53724  0.22551  0.46755  1.0000
  Fe  Fe68      1.0  0.84063  0.00255  0.06218  1.0000
  H   H1082     1.0  0.61869  0.01516  0.41316  1.0000
  H   H1083     1.0  0.99316  0.02808  0.00217  1.0000
  H   H1084     1.0  0.58658  0.00126  0.27542  1.0000
  C   C611      1.0  0.50686  0.01149  0.48173  1.0000
  H   H1085     1.0  0.73427  0.15998  0.44105  1.0000
  H   H1086     1.0  0.63002  0.31908  0.01724  1.0000
  H   H1087     1.0  0.53935  0.29181  0.46383  1.0000
  H   H1088     1.0  0.67287  0.10367  0.47668  1.0000
  H   H1089     1.0  0.62711  0.02616  0.26659  1.0000
  C   C612      1.0  0.60128  0.31026  0.04791  1.0000
  H   H1090     1.0  0.87808  0.31173  0.43775  1.0000
  C   C613      1.0  0.61042  0.31014  0.01884  1.0000
  H   H1091     1.0  0.65043  0.04866  0.47767  1.0000
  H   H1092     1.0  0.58196  0.30066  0.05064  1.0000
  H   H1093     1.0  0.76412  0.16437  0.45837  1.0000
  S   S133      1.0  0.93387  0.29091  0.48979  1.0000
  H   H1094     1.0  0.57990  0.03183  0.25968  1.0000
  H   H1095     1.0  0.74984  0.07696  0.49093  1.0000
  C   C614      1.0  0.61882  0.01537  0.25005  1.0000
  H   H1096     1.0  0.74163  0.02510  0.25928  1.0000
  C   C615      1.0  0.72041  0.02372  0.26530  1.0000
  H   H1097     1.0  0.52975  0.25755  0.37316  1.0000
  H   H1098     1.0  0.93690  0.03552  0.02676  1.0000
  H   H1099     1.0  0.71189  0.04366  0.26725  1.0000
  H   H1100     1.0  0.70851  0.01953  0.22585  1.0000
  H   H1101     1.0  0.62738  0.25253  0.49352  1.0000
  H   H1102     1.0  0.72336  0.00449  0.41504  1.0000
  C   C616      1.0  0.52800  0.31213  0.18570  1.0000
  H   H1103     1.0  0.56213  0.00042  0.38768  1.0000
  C   C617      1.0  0.52890  0.33030  0.16183  1.0000
  H   H1104     1.0  0.50952  0.30090  0.18651  1.0000
  H   H1105     1.0  0.52875  0.31804  0.14393  1.0000
  C   C618      1.0  0.50108  0.27429  0.47101  1.0000
  H   H1106     1.0  0.54500  0.29825  0.18440  1.0000
  C   C619      1.0  0.66041  0.99984  0.20715  1.0000
  H   H1107     1.0  0.50166  0.27413  0.38909  1.0000
  C   C620      1.0  0.58998  0.32419  0.00161  1.0000
  H   H1108     1.0  0.57253  0.31137  0.00253  1.0000
  H   H1109     1.0  0.69861  0.99880  0.14788  1.0000
  H   H1110     1.0  0.59944  0.33047  0.05544  1.0000
  Fe  Fe69      1.0  0.67417  0.27427  0.77628  1.0000
  S   S134      1.0  0.65646  0.26892  0.81731  1.0000
  S   S135      1.0  0.65202  0.28063  0.73891  1.0000
  Fe  Fe70      1.0  0.73083  0.27091  0.79397  1.0000
  S   S136      1.0  0.71822  0.26531  0.83657  1.0000
  C   C621      1.0  0.75635  0.15244  0.90940  1.0000
  Fe  Fe71      1.0  0.68837  0.23826  0.82126  1.0000
  S   S137      1.0  0.68081  0.19793  0.83704  1.0000
  Fe  Fe72      1.0  0.68719  0.29676  0.82981  1.0000
  S   S138      1.0  0.70313  0.24145  0.77939  1.0000
  Fe  Fe73      1.0  0.76690  0.07660  0.80389  1.0000
  S   S139      1.0  0.72858  0.05615  0.80968  1.0000
  S   S140      1.0  0.77495  0.11912  0.80969  1.0000
  Fe  Fe74      1.0  0.79574  0.02710  0.78637  1.0000
  C   C622      1.0  0.97127  0.10787  0.90334  1.0000
  H   H1111     1.0  0.77924  0.02340  0.59283  1.0000
  Fe  Fe75      1.0  0.73917  0.03649  0.77055  1.0000
  H   H1112     1.0  0.97399  0.24662  0.58188  1.0000
  Fe  Fe76      1.0  0.75286  0.02474  0.82916  1.0000
  C   C623      1.0  0.76862  0.01664  0.61098  1.0000
  S   S141      1.0  0.77614  0.05911  0.76418  1.0000
  S   S142      1.0  0.79032  0.04679  0.82556  1.0000
  H   H1113     1.0  0.97121  0.08679  0.90781  1.0000
  H   H1114     1.0  0.52799  0.25661  0.65440  1.0000
  H   H1115     1.0  0.74157  0.08772  0.98872  1.0000
  S   S143      1.0  0.93379  0.27325  0.55074  1.0000
  C   C624      1.0  0.98016  0.17808  0.80523  1.0000
  H   H1116     1.0  0.87309  0.15524  0.83761  1.0000
  H   H1117     1.0  0.86346  0.00699  0.86162  1.0000
  H   H1118     1.0  0.77271  0.30279  0.67236  1.0000
  H   H1119     1.0  0.61688  0.19953  0.77677  1.0000
  H   H1120     1.0  0.86767  0.10788  0.82337  1.0000
  Fe  Fe77      1.0  0.91659  0.28495  0.78618  1.0000
  S   S144      1.0  0.95706  0.28611  0.80242  1.0000
  S   S145      1.0  0.88081  0.29648  0.81173  1.0000
  Fe  Fe78      1.0  0.93774  0.26407  0.73387  1.0000
  S   S146      1.0  0.97955  0.26295  0.74641  1.0000
  S   S147      1.0  0.92822  0.24911  0.69385  1.0000
  Fe  Fe79      1.0  0.96290  0.24599  0.78453  1.0000
  H   H1121     1.0  0.60432  0.07144  0.52752  1.0000
  S   S148      1.0  0.92168  0.24458  0.77044  1.0000
  Fe  Fe80      1.0  0.68308  0.22187  0.60164  1.0000
  S   S149      1.0  0.67769  0.26357  0.58999  1.0000
  S   S150      1.0  0.68280  0.20591  0.64321  1.0000
  Fe  Fe81      1.0  0.68876  0.20440  0.54466  1.0000
  S   S151      1.0  0.68457  0.24493  0.52887  1.0000
  H   H1122     1.0  0.96678  0.16744  0.84457  1.0000
  Fe  Fe82      1.0  0.71200  0.25560  0.56095  1.0000
  S   S152      1.0  0.74587  0.28465  0.55966  1.0000
  Fe  Fe83      1.0  0.65094  0.24842  0.55919  1.0000
  S   S153      1.0  0.61046  0.26538  0.54925  1.0000
  S   S154      1.0  0.71846  0.21444  0.57438  1.0000
  S   S155      1.0  0.65416  0.20747  0.57323  1.0000
  Fe  Fe84      1.0  0.71279  0.03061  0.54856  1.0000
  H   H1123     1.0  0.78308  0.22006  0.81140  1.0000
  S   S156      1.0  0.74076  0.06365  0.54581  1.0000
  S   S157      1.0  0.68214  0.02823  0.58146  1.0000
  H   H1124     1.0  0.96243  0.01733  0.91329  1.0000
  C   C625      1.0  0.70206  0.14208  0.53023  1.0000
  C   C626      1.0  0.68652  0.12006  0.53325  1.0000
  C   C627      1.0  0.69810  0.09612  0.53975  1.0000
  C   C628      1.0  0.72535  0.09404  0.54225  1.0000
  C   C629      1.0  0.74077  0.11619  0.54008  1.0000
  C   C630      1.0  0.72908  0.14028  0.53429  1.0000
  H   H1125     1.0  0.54322  0.03437  0.57199  1.0000
  H   H1126     1.0  0.52187  0.26306  0.59479  1.0000
  H   H1127     1.0  0.76187  0.11460  0.54202  1.0000
  C   C631      1.0  0.64547  0.29032  0.92434  1.0000
  C   C632      1.0  0.83226  0.27038  0.52999  1.0000
  H   H1128     1.0  0.60475  0.22193  0.61092  1.0000
  C   C633      1.0  0.78660  0.25582  0.53476  1.0000
  C   C634      1.0  0.77900  0.27867  0.54802  1.0000
  C   C635      1.0  0.79821  0.29746  0.55209  1.0000
  C   C636      1.0  0.82468  0.29338  0.54311  1.0000
  H   H1129     1.0  0.65807  0.12554  0.66891  1.0000
  H   H1130     1.0  0.77209  0.24126  0.53133  1.0000
  H   H1131     1.0  0.79251  0.31526  0.56222  1.0000
  C   C637      1.0  0.81303  0.25173  0.52586  1.0000
  H   H1132     1.0  0.66528  0.09122  0.67148  1.0000
  C   C638      1.0  0.93713  0.28232  0.62221  1.0000
  C   C639      1.0  0.93596  0.26419  0.64276  1.0000
  C   C640      1.0  0.93088  0.27239  0.66873  1.0000
  C   C641      1.0  0.65912  0.10886  0.68278  1.0000
  H   H1133     1.0  0.75696  0.18393  0.72813  1.0000
  H   H1134     1.0  0.94175  0.27582  0.60251  1.0000
  H   H1135     1.0  0.93925  0.24377  0.63860  1.0000
  H   H1136     1.0  0.52590  0.02516  0.61751  1.0000
  H   H1137     1.0  0.60564  0.09754  0.55090  1.0000
  H   H1138     1.0  0.55425  0.07461  0.50804  1.0000
  H   H1139     1.0  0.94551  0.04753  0.99447  1.0000
  C   C642      1.0  0.73382  0.08363  0.89037  1.0000
  H   H1140     1.0  0.86767  0.22412  0.79279  1.0000
  H   H1141     1.0  0.72344  0.13234  0.72272  1.0000
  H   H1142     1.0  0.91053  0.20533  0.87916  1.0000
  H   H1143     1.0  0.53396  0.05891  0.61368  1.0000
  H   H1144     1.0  0.97665  0.12022  0.83875  1.0000
  C   C643      1.0  0.86957  0.00808  0.84100  1.0000
  C   C644      1.0  0.86848  0.20255  0.79131  1.0000
  H   H1145     1.0  0.78729  0.03259  0.88555  1.0000
  H   H1146     1.0  0.77460  0.17110  0.75544  1.0000
  H   H1147     1.0  0.68611  0.07907  0.54169  1.0000
  H   H1148     1.0  0.50996  0.02326  0.57308  1.0000
  C   C645      1.0  0.92765  0.31692  0.65334  1.0000
  H   H1149     1.0  0.56568  0.31046  0.95603  1.0000
  H   H1150     1.0  0.95701  0.11779  0.91732  1.0000
  H   H1151     1.0  0.74115  0.15723  0.53161  1.0000
  H   H1152     1.0  0.76915  0.32757  0.51363  1.0000
  N   N35       1.0  0.52084  0.06524  0.53377  1.0000
  H   H1153     1.0  0.97232  0.02372  0.96214  1.0000
  H   H1154     1.0  0.62464  0.32120  0.85452  1.0000
  C   C646      1.0  0.73476  0.15726  0.75346  1.0000
  C   C647      1.0  0.53231  0.22076  0.54971  1.0000
  C   C648      1.0  0.55583  0.20807  0.55660  1.0000
  C   C649      1.0  0.57997  0.22120  0.55588  1.0000
  C   C650      1.0  0.58078  0.24750  0.54909  1.0000
  C   C651      1.0  0.55722  0.26023  0.54235  1.0000
  C   C652      1.0  0.53321  0.24688  0.54229  1.0000
  H   H1155     1.0  0.55536  0.18794  0.56262  1.0000
  H   H1156     1.0  0.59782  0.21102  0.56099  1.0000
  H   H1157     1.0  0.55750  0.28064  0.53737  1.0000
  S   S158      1.0  0.97545  0.21205  0.81130  1.0000
  C   C653      1.0  0.66071  0.25992  0.71233  1.0000
  C   C654      1.0  0.66998  0.23468  0.71668  1.0000
  C   C655      1.0  0.67639  0.21821  0.69531  1.0000
  C   C656      1.0  0.67408  0.22706  0.66941  1.0000
  C   C657      1.0  0.66488  0.25236  0.66497  1.0000
  C   C658      1.0  0.65786  0.26865  0.68641  1.0000
  H   H1158     1.0  0.67178  0.22776  0.73655  1.0000
  H   H1159     1.0  0.68359  0.19874  0.69883  1.0000
  H   H1160     1.0  0.66294  0.25932  0.64508  1.0000
  H   H1161     1.0  0.65044  0.28811  0.68292  1.0000
  C   C659      1.0  0.80018  0.27504  0.78256  1.0000
  C   C660      1.0  0.80203  0.28812  0.80646  1.0000
  C   C661      1.0  0.82688  0.29492  0.81516  1.0000
  C   C662      1.0  0.84986  0.28898  0.79985  1.0000
  H   H1162     1.0  0.78440  0.29266  0.81840  1.0000
  H   H1163     1.0  0.82828  0.23495  0.81125  1.0000
  C   C663      1.0  0.70714  0.17595  0.83049  1.0000
  C   C664      1.0  0.73188  0.18490  0.82213  1.0000
  C   C665      1.0  0.75265  0.16719  0.81647  1.0000
  C   C666      1.0  0.74868  0.14046  0.81851  1.0000
  C   C667      1.0  0.72392  0.13142  0.82684  1.0000
  C   C668      1.0  0.70324  0.14918  0.83310  1.0000
  H   H1164     1.0  0.73497  0.20551  0.82001  1.0000
  H   H1165     1.0  0.77167  0.17416  0.80972  1.0000
  H   H1166     1.0  0.72072  0.11083  0.82846  1.0000
  H   H1167     1.0  0.68407  0.14219  0.83953  1.0000
  S   S159      1.0  0.70268  0.30440  0.78812  1.0000
  N   N36       1.0  0.76558  0.06355  0.62924  1.0000
  C   C669      1.0  0.78242  0.07357  0.60638  1.0000
  C   C670      1.0  0.73705  0.06648  0.62247  1.0000
  C   C671      1.0  0.77139  0.07895  0.65348  1.0000
  C   C672      1.0  0.77149  0.03529  0.63459  1.0000
  H   H1168     1.0  0.92470  0.00922  0.80095  1.0000
  C   C673      1.0  0.81243  0.06765  0.60731  1.0000
  C   C674      1.0  0.75339  0.07385  0.67835  1.0000
  C   C675      1.0  0.72654  0.09473  0.61921  1.0000
  C   C676      1.0  0.69742  0.09511  0.61278  1.0000
  H   H1169     1.0  0.70482  0.30154  0.72493  1.0000
  C   C677      1.0  0.82720  0.07925  0.58337  1.0000
  C   C678      1.0  0.76070  0.09119  0.70116  1.0000
  H   H1170     1.0  0.78008  0.09501  0.60471  1.0000
  H   H1171     1.0  0.77564  0.06603  0.58738  1.0000
  H   H1172     1.0  0.73361  0.05641  0.60360  1.0000
  H   H1173     1.0  0.72415  0.05655  0.63735  1.0000
  H   H1174     1.0  0.77069  0.10014  0.64920  1.0000
  H   H1175     1.0  0.79192  0.07483  0.65936  1.0000
  H   H1176     1.0  0.79156  0.03266  0.64233  1.0000
  H   H1177     1.0  0.75796  0.02790  0.65055  1.0000
  C   C679      1.0  0.73306  0.07268  0.97615  1.0000
  C   C680      1.0  0.99103  0.16850  0.78131  1.0000
  H   H1178     1.0  0.82065  0.07596  0.62526  1.0000
  H   H1179     1.0  0.81664  0.04645  0.60708  1.0000
  H   H1180     1.0  0.75556  0.05346  0.68508  1.0000
  H   H1181     1.0  0.73235  0.07782  0.67462  1.0000
  H   H1182     1.0  0.72840  0.10615  0.63748  1.0000
  H   H1183     1.0  0.73738  0.10466  0.60279  1.0000
  H   H1184     1.0  0.69025  0.11549  0.61068  1.0000
  H   H1185     1.0  0.87235  0.22488  0.83782  1.0000
  H   H1186     1.0  0.52058  0.08158  0.57327  1.0000
  C   C681      1.0  0.74046  0.10088  0.93541  1.0000
  H   H1187     1.0  0.84857  0.07448  0.58422  1.0000
  H   H1188     1.0  0.81991  0.07112  0.56483  1.0000
  H   H1189     1.0  0.82460  0.10069  0.58310  1.0000
  H   H1190     1.0  0.74714  0.08762  0.71847  1.0000
  H   H1191     1.0  0.78116  0.08674  0.70696  1.0000
  H   H1192     1.0  0.75904  0.11196  0.69555  1.0000
  N   N37       1.0  0.84888  0.25773  0.61898  1.0000
  C   C682      1.0  0.84073  0.25909  0.64787  1.0000
  C   C683      1.0  0.82515  0.25117  0.60359  1.0000
  C   C684      1.0  0.87047  0.23735  0.61526  1.0000
  C   C685      1.0  0.85940  0.28329  0.60902  1.0000
  C   C686      1.0  0.85058  0.00931  0.82176  1.0000
  C   C687      1.0  0.86222  0.26808  0.66645  1.0000
  C   C688      1.0  0.87817  0.22992  0.58630  1.0000
  C   C689      1.0  0.81219  0.22488  0.61057  1.0000
  C   C690      1.0  0.79052  0.21881  0.59167  1.0000
  H   H1193     1.0  0.61641  0.26303  0.60537  1.0000
  C   C691      1.0  0.85129  0.27079  0.69484  1.0000
  C   C692      1.0  0.90250  0.21198  0.58484  1.0000
  H   H1194     1.0  0.83489  0.23960  0.65524  1.0000
  H   H1195     1.0  0.82279  0.27163  0.65105  1.0000
  H   H1196     1.0  0.80935  0.26624  0.60657  1.0000
  H   H1197     1.0  0.83012  0.25151  0.58206  1.0000
  H   H1198     1.0  0.86539  0.21923  0.62612  1.0000
  H   H1199     1.0  0.88876  0.24398  0.62425  1.0000
  H   H1200     1.0  0.87932  0.28672  0.61654  1.0000
  H   H1201     1.0  0.86248  0.28284  0.58719  1.0000
  H   H1202     1.0  0.73746  0.05334  0.98486  1.0000
  H   H1203     1.0  0.60500  0.00849  0.59695  1.0000
  H   H1204     1.0  0.87852  0.25348  0.66650  1.0000
  C   C693      1.0  0.57450  0.23238  0.67226  1.0000
  H   H1205     1.0  0.88285  0.24727  0.57424  1.0000
  H   H1206     1.0  0.86191  0.21966  0.57708  1.0000
  H   H1207     1.0  0.82673  0.20857  0.60952  1.0000
  H   H1208     1.0  0.80288  0.22558  0.63073  1.0000
  H   H1209     1.0  0.79912  0.21562  0.57144  1.0000
  H   H1210     1.0  0.78034  0.20087  0.59810  1.0000
  H   H1211     1.0  0.77567  0.23494  0.59132  1.0000
  H   H1212     1.0  0.53539  0.11922  0.52353  1.0000
  H   H1213     1.0  0.69913  0.04484  0.87782  1.0000
  C   C694      1.0  0.77753  0.09715  0.90318  1.0000
  H   H1214     1.0  0.60622  0.28966  0.96371  1.0000
  H   H1215     1.0  0.58447  0.27883  0.60400  1.0000
  C   C695      1.0  0.50679  0.08812  0.52163  1.0000
  H   H1216     1.0  0.91973  0.22185  0.59280  1.0000
  H   H1217     1.0  0.89879  0.19385  0.59613  1.0000
  H   H1218     1.0  0.90738  0.20683  0.56394  1.0000
  C   C696      1.0  0.68907  0.12097  0.76241  1.0000
  C   C697      1.0  0.66266  0.11088  0.77424  1.0000
  C   C698      1.0  0.66707  0.08687  0.79129  1.0000
  H   H1219     1.0  0.70030  0.10451  0.75284  1.0000
  H   H1220     1.0  0.70078  0.12606  0.77955  1.0000
  H   H1221     1.0  0.64920  0.10541  0.75865  1.0000
  H   H1222     1.0  0.65301  0.12587  0.78720  1.0000
  H   H1223     1.0  0.68029  0.09615  0.71613  1.0000
  H   H1224     1.0  0.73975  0.14019  0.76570  1.0000
  H   H1225     1.0  0.67672  0.07098  0.77941  1.0000
  H   H1226     1.0  0.67951  0.09158  0.80804  1.0000
  H   H1227     1.0  0.64785  0.07991  0.79944  1.0000
  H   H1228     1.0  0.68509  0.02367  0.64504  1.0000
  H   H1229     1.0  0.69338  0.07210  0.85607  1.0000
  H   H1230     1.0  0.86294  0.01557  0.96914  1.0000
  H   H1231     1.0  0.98663  0.31952  0.68819  1.0000
  H   H1232     1.0  0.76661  0.06984  0.94950  1.0000
  S   S160      1.0  0.50206  0.20408  0.55364  1.0000
  H   H1233     1.0  0.82617  0.18381  0.84292  1.0000
  C   C699      1.0  0.61510  0.30258  0.61791  1.0000
  H   H1234     1.0  0.83063  0.10422  0.88753  1.0000
  H   H1235     1.0  0.69881  0.07544  0.91599  1.0000
  C   C700      1.0  0.76048  0.16629  0.74012  1.0000
  H   H1236     1.0  0.88439  0.20188  0.73772  1.0000
  S   S161      1.0  0.98174  0.04887  0.86076  1.0000
  C   C701      1.0  0.74156  0.12982  0.89691  1.0000
  C   C702      1.0  0.51486  0.11540  0.53057  1.0000
  C   C703      1.0  0.84185  0.30764  0.61533  1.0000
  H   H1237     1.0  0.99730  0.14002  0.90279  1.0000
  H   H1238     1.0  0.75181  0.11469  0.94707  1.0000
  C   C704      1.0  0.73821  0.25744  0.68686  1.0000
  H   H1239     1.0  0.88793  0.02172  0.94370  1.0000
  H   H1240     1.0  0.89128  0.01164  0.76699  1.0000
  H   H1241     1.0  0.82283  0.30656  0.60548  1.0000
  H   H1242     1.0  0.71946  0.10694  0.93896  1.0000
  H   H1243     1.0  0.99536  0.18181  0.76528  1.0000
  C   C705      1.0  0.99758  0.14182  0.77852  1.0000
  C   C706      1.0  0.75005  0.17809  0.89558  1.0000
  H   H1244     1.0  0.66914  0.06394  0.88145  1.0000
  C   C707      1.0  0.67900  0.11393  0.70386  1.0000
  H   H1245     1.0  0.69832  0.11687  0.69342  1.0000
  H   H1246     1.0  0.94017  0.20906  0.85895  1.0000
  C   C708      1.0  0.59737  0.23091  0.69165  1.0000
  H   H1247     1.0  0.74488  0.13103  0.87518  1.0000
  H   H1248     1.0  0.77800  0.14939  0.90785  1.0000
  C   C709      1.0  0.73628  0.31161  0.65261  1.0000
  H   H1249     1.0  0.83772  0.30998  0.63680  1.0000
  H   H1250     1.0  0.82931  0.23097  0.84641  1.0000
  H   H1251     1.0  0.91162  0.17828  0.83792  1.0000
  H   H1252     1.0  0.58193  0.19938  0.71608  1.0000
  H   H1253     1.0  0.76017  0.19420  0.90521  1.0000
  H   H1254     1.0  0.63346  0.30088  0.62900  1.0000
  H   H1255     1.0  0.51518  0.25706  0.53761  1.0000
  C   C710      1.0  0.74516  0.07384  0.94814  1.0000
  H   H1256     1.0  0.86815  0.19706  0.85840  1.0000
  H   H1257     1.0  0.86739  0.27638  0.70775  1.0000
  C   C711      1.0  0.55027  0.06626  0.52803  1.0000
  C   C712      1.0  0.56679  0.08115  0.54801  1.0000
  N   N38       1.0  0.59821  0.32995  0.97321  1.0000
  C   C713      1.0  0.59478  0.26522  0.64361  1.0000
  H   H1258     1.0  0.80658  0.03670  0.92950  1.0000
  H   H1259     1.0  0.74750  0.01487  0.60670  1.0000
  C   C714      1.0  0.59352  0.08873  0.53568  1.0000
  H   H1260     1.0  0.73561  0.21603  0.68020  1.0000
  H   H1261     1.0  0.59658  0.18520  0.65850  1.0000
  C   C715      1.0  0.82171  0.22275  0.82809  1.0000
  C   C716      1.0  0.99408  0.23945  0.58608  1.0000
  H   H1262     1.0  0.91479  0.20736  0.81857  1.0000
  S   S162      1.0  0.79365  0.01554  0.98050  1.0000
  H   H1263     1.0  0.55923  0.04633  0.52694  1.0000
  H   H1264     1.0  0.59089  0.10313  0.51965  1.0000
  H   H1265     1.0  0.57049  0.06863  0.56535  1.0000
  H   H1266     1.0  0.55694  0.09911  0.55549  1.0000
  C   C717      1.0  0.99285  0.12417  0.79932  1.0000
  C   C718      1.0  0.55835  0.23856  0.62767  1.0000
  C   C719      1.0  0.78551  0.31806  0.72530  1.0000
  H   H1267     1.0  0.83167  0.20069  0.76994  1.0000
  H   H1268     1.0  0.64966  0.13486  0.72725  1.0000
  S   S163      1.0  0.76981  0.26491  0.77126  1.0000
  S   S164      1.0  0.97692  0.02072  0.80247  1.0000
  H   H1269     1.0  0.63924  0.10552  0.69198  1.0000
  C   C720      1.0  0.84788  0.27659  0.77560  1.0000
  H   H1270     1.0  0.71133  0.07550  0.97604  1.0000
  H   H1271     1.0  0.64965  0.21222  0.77590  1.0000
  H   H1272     1.0  0.76949  0.15072  0.72741  1.0000
  H   H1273     1.0  0.73825  0.27061  0.72723  1.0000
  H   H1274     1.0  0.77959  0.09133  0.86026  1.0000
  C   C721      1.0  0.85836  0.01081  0.79505  1.0000
  C   C722      1.0  0.82311  0.26950  0.76707  1.0000
  Fe  Fe85      1.0  0.93594  0.31549  0.56079  1.0000
  N   N39       1.0  0.74835  0.10289  0.90653  1.0000
  H   H1275     1.0  0.64140  0.18094  0.73868  1.0000
  C   C723      1.0  0.87557  0.20344  0.83849  1.0000
  H   H1276     1.0  0.69462  0.08488  0.59395  1.0000
  H   H1277     1.0  0.84190  0.10134  0.80108  1.0000
  H   H1278     1.0  0.58200  0.27970  0.65453  1.0000
  Fe  Fe86      1.0  0.99943  0.05348  0.81958  1.0000
  C   C724      1.0  0.91855  0.21273  0.85997  1.0000
  H   H1279     1.0  0.86552  0.27232  0.76360  1.0000
  H   H1280     1.0  0.72023  0.13428  0.90049  1.0000
  H   H1281     1.0  0.78525  0.24458  0.83625  1.0000
  C   C725      1.0  0.79164  0.22457  0.83060  1.0000
  C   C726      1.0  0.77913  0.02187  0.90219  1.0000
  C   C727      1.0  0.53677  0.25954  0.63428  1.0000
  H   H1282     1.0  0.72709  0.17315  0.76650  1.0000
  C   C728      1.0  0.71453  0.14955  0.73296  1.0000
  H   H1283     1.0  0.64060  0.18691  0.79902  1.0000
  H   H1284     1.0  0.82077  0.07210  0.87790  1.0000
  H   H1285     1.0  0.74688  0.31309  0.74464  1.0000
  C   C729      1.0  0.97505  0.16035  0.82592  1.0000
  N   N40       1.0  0.68714  0.14382  0.74392  1.0000
  C   C730      1.0  0.81892  0.09318  0.87354  1.0000
  C   C731      1.0  0.84623  0.14222  0.80977  1.0000
  H   H1286     1.0  0.83627  0.14795  0.79166  1.0000
  H   H1287     1.0  0.66328  0.29069  0.93628  1.0000
  S   S165      1.0  0.86539  0.26343  0.51905  1.0000
  H   H1288     1.0  0.68239  0.16699  0.77968  1.0000
  H   H1289     1.0  0.87245  0.11469  0.78852  1.0000
  H   H1290     1.0  0.88946  0.19763  0.78604  1.0000
  H   H1291     1.0  0.68547  0.08553  0.62863  1.0000
  H   H1292     1.0  0.57537  0.18603  0.63101  1.0000
  Fe  Fe87      1.0  0.90309  0.28643  0.52277  1.0000
  C   C732      1.0  0.67044  0.13799  0.72078  1.0000
  H   H1293     1.0  0.65180  0.29316  0.90332  1.0000
  C   C733      1.0  0.67666  0.16771  0.75872  1.0000
  H   H1294     1.0  0.71361  0.16532  0.71792  1.0000
  H   H1295     1.0  0.63471  0.15627  0.76296  1.0000
  S   S166      1.0  0.61553  0.01817  0.54136  1.0000
  S   S167      1.0  0.99969  0.25497  0.50815  1.0000
  C   C734      1.0  0.51335  0.06446  0.56287  1.0000
  C   C735      1.0  0.71237  0.02155  0.70580  1.0000
  H   H1296     1.0  0.74188  0.06359  0.89293  1.0000
  C   C736      1.0  0.92678  0.29882  0.67401  1.0000
  H   H1297     1.0  0.83079  0.14104  0.82590  1.0000
  C   C737      1.0  0.93282  0.30868  0.62739  1.0000
  H   H1298     1.0  0.85170  0.20269  0.72520  1.0000
  H   H1299     1.0  0.60465  0.25067  0.69539  1.0000
  H   H1300     1.0  0.76369  0.22520  0.69849  1.0000
  H   H1301     1.0  0.88578  0.15775  0.80472  1.0000
  H   H1302     1.0  0.73904  0.31524  0.61004  1.0000
  H   H1303     1.0  0.60586  0.02433  0.67970  1.0000
  C   C738      1.0  0.63802  0.19436  0.77873  1.0000
  H   H1304     1.0  0.83921  0.30792  0.54639  1.0000
  C   C739      1.0  0.64655  0.17363  0.75848  1.0000
  H   H1305     1.0  0.68598  0.18560  0.75066  1.0000
  H   H1306     1.0  0.66987  0.15509  0.70734  1.0000
  H   H1307     1.0  0.82835  0.30468  0.83388  1.0000
  C   C740      1.0  0.74247  0.22933  0.69557  1.0000
  H   H1308     1.0  0.91498  0.23405  0.85885  1.0000
  H   H1309     1.0  0.75696  0.17728  0.87455  1.0000
  H   H1310     1.0  0.92233  0.30530  0.69388  1.0000
  Fe  Fe88      1.0  0.96132  0.01466  0.84403  1.0000
  C   C741      1.0  0.69062  0.06480  0.87655  1.0000
  H   H1311     1.0  0.81922  0.18558  0.80911  1.0000
  H   H1312     1.0  0.73106  0.22552  0.71429  1.0000
  H   H1313     1.0  0.60481  0.22001  0.73189  1.0000
  C   C742      1.0  0.69712  0.03035  0.68489  1.0000
  C   C743      1.0  0.70353  0.08281  0.89583  1.0000
  H   H1314     1.0  0.86272  0.22946  0.74428  1.0000
  H   H1315     1.0  0.68518  0.04783  0.68742  1.0000
  H   H1316     1.0  0.50593  0.23853  0.61495  1.0000
  C   C744      1.0  0.86825  0.01326  0.94779  1.0000
  Fe  Fe89      1.0  0.96961  0.30308  0.76279  1.0000
  S   S168      1.0  0.92853  0.30450  0.74812  1.0000
  H   H1317     1.0  0.85462  0.17373  0.76367  1.0000
  C   C745      1.0  0.86772  0.16159  0.81748  1.0000
  S   S169      1.0  0.71101  0.03923  0.73609  1.0000
  H   H1318     1.0  0.51958  0.32576  0.95139  1.0000
  H   H1319     1.0  0.78172  0.07645  0.90778  1.0000
  C   C746      1.0  0.85788  0.11491  0.80546  1.0000
  H   H1320     1.0  0.79276  0.29811  0.72905  1.0000
  H   H1321     1.0  0.82709  0.09648  0.85323  1.0000
  Fe  Fe90      1.0  0.96486  0.28219  0.51911  1.0000
  C   C747      1.0  0.83145  0.19426  0.82425  1.0000
  H   H1322     1.0  0.78871  0.10818  0.91769  1.0000
  C   C748      1.0  0.52044  0.04359  0.60757  1.0000
  C   C749      1.0  0.90598  0.19915  0.83703  1.0000
  C   C750      1.0  0.88518  0.01070  0.78763  1.0000
  H   H1323     1.0  0.78383  0.21108  0.84597  1.0000
  H   H1324     1.0  0.82170  0.25948  0.74853  1.0000
  H   H1325     1.0  0.61025  0.15171  0.62684  1.0000
  N   N41       1.0  0.86047  0.19030  0.81740  1.0000
  H   H1326     1.0  0.63614  0.27108  0.92632  1.0000
  H   H1327     1.0  0.61420  0.21876  0.68395  1.0000
  C   C751      1.0  0.60212  0.27622  0.61595  1.0000
  C   C752      1.0  0.71282  0.31001  0.70607  1.0000
  H   H1328     1.0  0.83554  0.28604  0.69628  1.0000
  C   C753      1.0  0.86358  0.20806  0.74214  1.0000
  C   C754      1.0  0.85275  0.19485  0.76721  1.0000
  H   H1329     1.0  0.73705  0.08771  0.86896  1.0000
  C   C755      1.0  0.75389  0.31368  0.67685  1.0000
  N   N42       1.0  0.74219  0.30502  0.70321  1.0000
  H   H1330     1.0  0.75022  0.15467  0.93053  1.0000
  H   H1331     1.0  0.69417  0.10226  0.89381  1.0000
  H   H1332     1.0  0.57168  0.23161  0.72716  1.0000
  H   H1333     1.0  0.63530  0.17595  0.62711  1.0000
  C   C756      1.0  0.96052  0.00630  0.96745  1.0000
  H   H1334     1.0  0.98955  0.29223  0.59129  1.0000
  H   H1335     1.0  0.56044  0.24734  0.68056  1.0000
  H   H1336     1.0  0.73665  0.05798  0.93673  1.0000
  H   H1337     1.0  0.72849  0.18235  0.89664  1.0000
  C   C757      1.0  0.79004  0.10212  0.87532  1.0000
  H   H1338     1.0  0.78927  0.12304  0.87019  1.0000
  H   H1339     1.0  0.54850  0.21955  0.62951  1.0000
  H   H1340     1.0  0.61334  0.26459  0.65434  1.0000
  S   S170      1.0  0.96895  0.32363  0.53126  1.0000
  H   H1341     1.0  0.66563  0.12143  0.52993  1.0000
  H   H1342     1.0  0.61272  0.17496  0.60042  1.0000
  H   H1343     1.0  0.74978  0.26000  0.66804  1.0000
  C   C758      1.0  0.69703  0.01667  0.66079  1.0000
  C   C759      1.0  0.79011  0.02407  0.92716  1.0000
  C   C760      1.0  0.61626  0.30866  0.96204  1.0000
  H   H1344     1.0  0.76885  0.27222  0.70918  1.0000
  C   C761      1.0  0.51447  0.25821  0.61504  1.0000
  H   H1345     1.0  0.71701  0.26024  0.68344  1.0000
  C   C762      1.0  0.57367  0.33038  0.95732  1.0000
  C   C763      1.0  0.74750  0.27647  0.70787  1.0000
  H   H1346     1.0  0.84332  0.25208  0.70212  1.0000
  H   H1347     1.0  0.93954  0.01304  0.96745  1.0000
  H   H1348     1.0  0.60937  0.31130  0.91945  1.0000
  C   C764      1.0  0.58824  0.21973  0.71829  1.0000
  H   H1349     1.0  0.51306  0.11764  0.55227  1.0000
  C   C765      1.0  0.75489  0.31967  0.72498  1.0000
  H   H1350     1.0  0.63419  0.30630  0.97356  1.0000
  C   C766      1.0  0.59545  0.19027  0.63732  1.0000
  H   H1351     1.0  0.56402  0.24032  0.60634  1.0000
  H   H1352     1.0  0.87044  0.28704  0.66042  1.0000
  C   C767      1.0  0.98091  0.13355  0.82283  1.0000
  C   C768      1.0  0.99873  0.11880  0.90636  1.0000
  H   H1353     1.0  0.70236  0.29977  0.69061  1.0000
  C   C769      1.0  0.60223  0.21921  0.63264  1.0000
  N   N43       1.0  0.58246  0.23886  0.64409  1.0000
  C   C770      1.0  0.59094  0.00056  0.55848  1.0000
  H   H1354     1.0  0.56346  0.21394  0.67326  1.0000
  C   C771      1.0  0.61468  0.17221  0.62196  1.0000
  C   C772      1.0  0.62342  0.01126  0.67709  1.0000
  H   H1355     1.0  0.99255  0.21944  0.59405  1.0000
  C   C773      1.0  0.75241  0.31522  0.62682  1.0000
  H   H1356     1.0  0.62220  0.22233  0.64014  1.0000
  S   S171      1.0  0.68848  0.17045  0.51709  1.0000
  H   H1357     1.0  0.96455  0.11104  0.88305  1.0000
  S   S172      1.0  0.68663  0.01649  0.51739  1.0000
  H   H1358     1.0  0.54472  0.27938  0.63290  1.0000
  H   H1359     1.0  0.50486  0.15584  0.52372  1.0000
  H   H1360     1.0  0.98557  0.31630  0.63014  1.0000
  H   H1361     1.0  0.72063  0.32694  0.65348  1.0000
  C   C774      1.0  0.62600  0.31199  0.93286  1.0000
  C   C775      1.0  0.90416  0.00950  0.80689  1.0000
  H   H1362     1.0  0.72629  0.29282  0.65149  1.0000
  S   S173      1.0  0.74107  0.00490  0.86838  1.0000
  H   H1363     1.0  0.62033  0.30979  0.59776  1.0000
  C   C776      1.0  0.77985  0.01034  0.94919  1.0000
  H   H1364     1.0  0.82996  0.00833  0.82758  1.0000
  H   H1365     1.0  0.60140  0.31689  0.62783  1.0000
  Fe  Fe91      1.0  0.65766  0.00947  0.55114  1.0000
  H   H1366     1.0  0.99392  0.25675  0.62446  1.0000
  H   H1367     1.0  0.85363  0.02420  0.93620  1.0000
  C   C777      1.0  0.72758  0.99879  0.70219  1.0000
  C   C778      1.0  0.52259  0.03982  0.57773  1.0000
  H   H1368     1.0  0.76700  0.29904  0.62380  1.0000
  H   H1369     1.0  0.63855  0.02146  0.66477  1.0000
  C   C779      1.0  0.51058  0.04084  0.52165  1.0000
  H   H1370     1.0  0.52123  0.02350  0.52931  1.0000
  H   H1371     1.0  0.79468  0.32473  0.70634  1.0000
  H   H1372     1.0  0.65442  0.06936  0.50588  1.0000
  H   H1373     1.0  0.81863  0.23389  0.51570  1.0000
  S   S174      1.0  0.83489  0.01159  0.77070  1.0000
  H   H1374     1.0  0.66206  0.33157  0.71351  1.0000
  C   C780      1.0  0.89640  0.00821  0.83358  1.0000
  C   C781      1.0  0.75720  0.00640  0.89895  1.0000
  S   S175      1.0  0.90362  0.32824  0.53459  1.0000
  H   H1375     1.0  0.63130  0.00715  0.69679  1.0000
  H   H1376     1.0  0.78677  0.32932  0.76665  1.0000
  H   H1377     1.0  0.77951  0.03869  0.50194  1.0000
  H   H1378     1.0  0.93174  0.00141  0.92180  1.0000
  S   S176      1.0  0.75955  0.00289  0.79060  1.0000
  S   S177      1.0  0.91980  0.00579  0.85796  1.0000
  S   S178      1.0  0.68130  0.32995  0.85978  1.0000
  C   C782      1.0  0.58993  0.99932  0.58602  1.0000
  H   H1379     1.0  0.63627  0.33060  0.92992  1.0000
  H   H1380     1.0  0.86017  0.33114  0.58412  1.0000
  C   C783      1.0  0.95339  0.99854  0.91887  1.0000
  H   H1381     1.0  0.74582  0.59988  0.29892  1.0000
  S   S179      1.0  0.97826  0.56236  0.46359  1.0000
  H   H1382     1.0  0.79474  0.35318  0.46436  1.0000
  H   H1383     1.0  0.58670  0.52968  0.15578  1.0000
  H   H1384     1.0  0.50980  0.35082  0.06041  1.0000
  Fe  Fe92      1.0  0.93805  0.55830  0.44653  1.0000
  S   S180      1.0  0.92733  0.59063  0.41723  1.0000
  H   H1385     1.0  0.52814  0.59046  0.03611  1.0000
  S   S181      1.0  0.94469  0.51561  0.43745  1.0000
  H   H1386     1.0  0.53538  0.38636  0.18533  1.0000
  C   C784      1.0  0.66030  0.64158  0.33374  1.0000
  C   C785      1.0  0.65233  0.60737  0.01819  1.0000
  C   C786      1.0  0.58200  0.54154  0.17370  1.0000
  H   H1387     1.0  0.55532  0.43281  0.15247  1.0000
  H   H1388     1.0  0.59389  0.60361  0.06978  1.0000
  H   H1389     1.0  0.83958  0.64790  0.08698  1.0000
  H   H1390     1.0  0.93709  0.60617  0.47314  1.0000
  C   C787      1.0  0.69965  0.65501  0.35659  1.0000
  C   C788      1.0  0.65016  0.62072  0.38650  1.0000
  C   C789      1.0  0.51830  0.57151  0.23735  1.0000
  Fe  Fe93      1.0  0.55701  0.64593  0.00434  1.0000
  H   H1391     1.0  0.65971  0.64768  0.00757  1.0000
  H   H1392     1.0  0.52701  0.40244  0.12736  1.0000
  S   S182      1.0  0.52171  0.47173  0.20014  1.0000
  H   H1393     1.0  0.84625  0.62993  0.11650  1.0000
  C   C790      1.0  0.67686  0.61484  0.37145  1.0000
  H   H1394     1.0  0.83366  0.43209  0.43449  1.0000
  C   C791      1.0  0.58877  0.63461  0.18738  1.0000
  S   S183      1.0  0.52169  0.53694  0.23712  1.0000
  C   C792      1.0  0.53986  0.58649  0.24429  1.0000
  C   C793      1.0  0.53787  0.61386  0.24558  1.0000
  Fe  Fe94      1.0  0.50065  0.47941  0.16297  1.0000
  H   H1395     1.0  0.99703  0.33894  0.48051  1.0000
  C   C794      1.0  0.50482  0.34908  0.16275  1.0000
  H   H1396     1.0  0.55815  0.57681  0.24901  1.0000
  H   H1397     1.0  0.55451  0.62500  0.25132  1.0000
  H   H1398     1.0  0.55450  0.59604  0.09695  1.0000
  C   C795      1.0  0.51408  0.62666  0.24037  1.0000
  H   H1399     1.0  0.60073  0.51245  0.19805  1.0000
  C   C796      1.0  0.55493  0.55567  0.17099  1.0000
  C   C797      1.0  0.52278  0.46418  0.09914  1.0000
  C   C798      1.0  0.54058  0.46620  0.07745  1.0000
  C   C799      1.0  0.54005  0.44849  0.05654  1.0000
  H   H1400     1.0  0.92469  0.62334  0.15734  1.0000
  H   H1401     1.0  0.61654  0.64904  0.09315  1.0000
  H   H1402     1.0  0.55496  0.48141  0.07682  1.0000
  H   H1403     1.0  0.55403  0.45015  0.03999  1.0000
  H   H1404     1.0  0.62820  0.60913  0.42204  1.0000
  H   H1405     1.0  0.84985  0.61267  0.45868  1.0000
  C   C800      1.0  0.85479  0.40908  0.46319  1.0000
  H   H1406     1.0  0.54954  0.56830  0.05292  1.0000
  H   H1407     1.0  0.86908  0.43316  0.43086  1.0000
  C   C801      1.0  0.92309  0.43913  0.46389  1.0000
  C   C802      1.0  0.93114  0.41333  0.45919  1.0000
  C   C803      1.0  0.50409  0.44464  0.09964  1.0000
  H   H1408     1.0  0.64935  0.58391  0.40782  1.0000
  H   H1409     1.0  0.68620  0.65384  0.25052  1.0000
  H   H1410     1.0  0.92467  0.45334  0.44820  1.0000
  H   H1411     1.0  0.93895  0.40771  0.43985  1.0000
  C   C804      1.0  0.91965  0.64004  0.49403  1.0000
  Fe  Fe95      1.0  0.92774  0.50890  0.47855  1.0000
  C   C805      1.0  0.89784  0.60288  0.40330  1.0000
  C   C806      1.0  0.89933  0.62413  0.38584  1.0000
  C   C807      1.0  0.87646  0.63502  0.37488  1.0000
  C   C808      1.0  0.85165  0.62503  0.38160  1.0000
  C   C809      1.0  0.85020  0.60373  0.39902  1.0000
  C   C810      1.0  0.87311  0.59258  0.40958  1.0000
  H   H1412     1.0  0.89893  0.61312  0.18030  1.0000
  H   H1413     1.0  0.50306  0.35784  0.18275  1.0000
  H   H1414     1.0  0.87164  0.57595  0.42247  1.0000
  H   H1415     1.0  0.98625  0.45530  0.41850  1.0000
  H   H1416     1.0  0.84311  0.65495  0.46259  1.0000
  H   H1417     1.0  0.58742  0.64918  0.17137  1.0000
  H   H1418     1.0  0.54262  0.34108  0.10928  1.0000
  S   S184      1.0  0.50970  0.66104  0.24326  1.0000
  Fe  Fe96      1.0  0.54228  0.66443  0.05874  1.0000
  H   H1419     1.0  0.79950  0.62781  0.10651  1.0000
  C   C811      1.0  0.96767  0.63285  0.47955  1.0000
  S   S185      1.0  0.52046  0.40688  0.03059  1.0000
  H   H1420     1.0  0.50407  0.56616  0.17709  1.0000
  H   H1421     1.0  0.63564  0.63853  0.12057  1.0000
  C   C812      1.0  0.62322  0.65457  0.11287  1.0000
  C   C813      1.0  0.91220  0.44632  0.48857  1.0000
  H   H1422     1.0  0.91419  0.65721  0.12341  1.0000
  C   C814      1.0  0.88681  0.65522  0.46281  1.0000
  H   H1423     1.0  0.76347  0.58547  0.32547  1.0000
  C   C815      1.0  0.88354  0.61178  0.48417  1.0000
  H   H1424     1.0  0.51620  0.41409  0.17492  1.0000
  H   H1425     1.0  0.62003  0.64853  0.29894  1.0000
  H   H1426     1.0  0.83118  0.59571  0.40427  1.0000
  H   H1427     1.0  0.89190  0.65872  0.16811  1.0000
  N   N44       1.0  0.68401  0.63202  0.34815  1.0000
  C   C816      1.0  0.58291  0.57500  0.00409  1.0000
  C   C817      1.0  0.58162  0.52321  0.19737  1.0000
  H   H1428     1.0  0.58895  0.59358  0.19318  1.0000
  H   H1429     1.0  0.92624  0.66031  0.49640  1.0000
  C   C818      1.0  0.83099  0.39193  0.47149  1.0000
  C   C819      1.0  0.83665  0.64770  0.10876  1.0000
  H   H1430     1.0  0.67079  0.62723  0.05025  1.0000
  H   H1431     1.0  0.59212  0.56947  0.07696  1.0000
  H   H1432     1.0  0.85599  0.42568  0.47702  1.0000
  H   H1433     1.0  0.69171  0.59831  0.32319  1.0000
  C   C820      1.0  0.85435  0.60631  0.47892  1.0000
  H   H1434     1.0  0.52858  0.54681  0.01601  1.0000
  H   H1435     1.0  0.52405  0.59670  0.12817  1.0000
  H   H1436     1.0  0.54771  0.56194  0.19099  1.0000
  H   H1437     1.0  0.86242  0.56606  0.46711  1.0000
  H   H1438     1.0  0.88023  0.66207  0.07622  1.0000
  H   H1439     1.0  0.54768  0.34085  0.16210  1.0000
  H   H1440     1.0  0.56568  0.50896  0.19588  1.0000
  H   H1441     1.0  0.57519  0.40488  0.16178  1.0000
  C   C821      1.0  0.55757  0.41709  0.16731  1.0000
  H   H1442     1.0  0.50369  0.60075  0.17278  1.0000
  H   H1443     1.0  0.59824  0.55518  0.17607  1.0000
  C   C822      1.0  0.65345  0.61497  0.04719  1.0000
  H   H1444     1.0  0.65667  0.61527  0.30028  1.0000
  H   H1445     1.0  0.54670  0.37599  0.13775  1.0000
  H   H1446     1.0  0.56074  0.42616  0.18672  1.0000
  H   H1447     1.0  0.59339  0.57160  0.13511  1.0000
  H   H1448     1.0  0.93573  0.63515  0.45318  1.0000
  C   C823      1.0  0.59114  0.54902  0.00766  1.0000
  H   H1449     1.0  0.86645  0.35766  0.44656  1.0000
  H   H1450     1.0  0.69271  0.61506  0.38595  1.0000
  H   H1451     1.0  0.74163  0.62581  0.33995  1.0000
  C   C824      1.0  0.99494  0.43573  0.41410  1.0000
  S   S186      1.0  0.91831  0.55108  0.48637  1.0000
  C   C825      1.0  0.76870  0.33705  0.49398  1.0000
  H   H1452     1.0  0.63351  0.61538  0.37425  1.0000
  H   H1453     1.0  0.56856  0.55490  0.11909  1.0000
  C   C826      1.0  0.64537  0.62061  0.31877  1.0000
  H   H1454     1.0  0.75561  0.35456  0.49538  1.0000
  C   C827      1.0  0.64770  0.60504  0.41204  1.0000
  H   H1455     1.0  0.58332  0.34243  0.01189  1.0000
  C   C828      1.0  0.50370  0.42670  0.07881  1.0000
  C   C829      1.0  0.51697  0.54990  0.03475  1.0000
  H   H1456     1.0  0.57757  0.61419  0.11531  1.0000
  C   C830      1.0  0.53280  0.40073  0.16929  1.0000
  C   C831      1.0  0.58600  0.60718  0.17655  1.0000
  H   H1457     1.0  0.87801  0.65136  0.36155  1.0000
  H   H1458     1.0  0.87368  0.39796  0.46357  1.0000
  H   H1459     1.0  0.72763  0.59862  0.35764  1.0000
  C   C832      1.0  0.88691  0.64368  0.15364  1.0000
  N   N45       1.0  0.50446  0.36997  0.14193  1.0000
  C   C833      1.0  0.50326  0.58195  0.16228  1.0000
  C   C834      1.0  0.52824  0.38706  0.14275  1.0000
  H   H1460     1.0  0.67595  0.59416  0.36523  1.0000
  H   H1461     1.0  0.67076  0.59665  0.01262  1.0000
  C   C835      1.0  0.57289  0.57372  0.12869  1.0000
  H   H1462     1.0  0.98288  0.41956  0.46264  1.0000
  C   C836      1.0  0.57345  0.59491  0.10696  1.0000
  H   H1463     1.0  0.89086  0.64266  0.44517  1.0000
  H   H1464     1.0  0.73258  0.57203  0.31649  1.0000
  H   H1465     1.0  0.65526  0.59723  0.05948  1.0000
  H   H1466     1.0  0.82536  0.38083  0.45399  1.0000
  Fe  Fe97      1.0  0.98334  0.51948  0.45731  1.0000
  S   S187      1.0  0.90012  0.47807  0.49401  1.0000
  H   H1467     1.0  0.81391  0.40540  0.47581  1.0000
  S   S188      1.0  0.94045  0.36300  0.47271  1.0000
  H   H1468     1.0  0.64586  0.65193  0.34714  1.0000
  H   H1469     1.0  0.89022  0.63646  0.11144  1.0000
  H   H1470     1.0  0.85235  0.40461  0.42067  1.0000
  H   H1471     1.0  0.64753  0.64145  0.39159  1.0000
  H   H1472     1.0  0.58699  0.58951  0.01862  1.0000
  H   H1473     1.0  0.55380  0.62027  0.15267  1.0000
  H   H1474     1.0  0.87605  0.36046  0.49305  1.0000
  C   C837      1.0  0.80707  0.64581  0.11517  1.0000
  H   H1475     1.0  0.64281  0.60280  0.33082  1.0000
  H   H1476     1.0  0.63526  0.62583  0.05370  1.0000
  H   H1477     1.0  0.70445  0.62756  0.31005  1.0000
  H   H1478     1.0  0.80304  0.64532  0.13686  1.0000
  C   C838      1.0  0.52325  0.33896  0.07254  1.0000
  H   H1479     1.0  0.60154  0.54348  0.02503  1.0000
  C   C839      1.0  0.55834  0.60356  0.16572  1.0000
  H   H1480     1.0  0.60180  0.60410  0.16111  1.0000
  H   H1481     1.0  0.57845  0.53432  0.21600  1.0000
  C   C840      1.0  0.52175  0.42858  0.05723  1.0000
  H   H1482     1.0  0.86590  0.63879  0.15708  1.0000
  H   H1483     1.0  0.98117  0.62318  0.46467  1.0000
  H   H1484     1.0  0.54444  0.60590  0.18313  1.0000
  H   H1485     1.0  0.54131  0.54005  0.16534  1.0000
  C   C841      1.0  0.90330  0.61936  0.15964  1.0000
  C   C842      1.0  0.85838  0.34274  0.46027  1.0000
  C   C843      1.0  0.84894  0.57727  0.48079  1.0000
  N   N46       1.0  0.89079  0.63977  0.48778  1.0000
  S   S189      1.0  0.51764  0.65139  0.02560  1.0000
  S   S190      1.0  0.82175  0.63895  0.37006  1.0000
  C   C844      1.0  0.61822  0.63063  0.31106  1.0000
  C   C845      1.0  0.70143  0.61653  0.32878  1.0000
  C   C846      1.0  0.93915  0.62752  0.47322  1.0000
  H   H1486     1.0  0.51976  0.53254  0.04740  1.0000
  H   H1487     1.0  0.50925  0.35705  0.25498  1.0000
  H   H1488     1.0  0.60820  0.63641  0.19637  1.0000
  C   C847      1.0  0.92933  0.39484  0.47939  1.0000
  C   C848      1.0  0.72912  0.60854  0.33823  1.0000
  C   C849      1.0  0.85217  0.42036  0.43557  1.0000
  C   C850      1.0  0.74351  0.59032  0.31851  1.0000
  C   C851      1.0  0.52636  0.57960  0.14132  1.0000
  H   H1489     1.0  0.57309  0.63893  0.20277  1.0000
  H   H1490     1.0  0.91834  0.63222  0.38068  1.0000
  H   H1491     1.0  0.97142  0.65400  0.47901  1.0000
  H   H1492     1.0  0.52301  0.56208  0.12909  1.0000
  H   H1493     1.0  0.71621  0.64860  0.36889  1.0000
  H   H1494     1.0  0.89486  0.60310  0.46704  1.0000
  S   S191      1.0  0.58161  0.65543  0.03867  1.0000
  C   C852      1.0  0.52868  0.57289  0.04880  1.0000
  H   H1495     1.0  0.61471  0.58952  0.09415  1.0000
  N   N47       1.0  0.55374  0.57827  0.15188  1.0000
  H   H1496     1.0  0.97893  0.42141  0.41385  1.0000
  H   H1497     1.0  0.60850  0.61569  0.29932  1.0000
  S   S192      1.0  0.52421  0.48662  0.12508  1.0000
  C   C853      1.0  0.79646  0.34426  0.48409  1.0000
  C   C854      1.0  0.59491  0.58891  0.08572  1.0000
  S   S193      1.0  0.53506  0.65259  0.10093  1.0000
  H   H1498     1.0  0.60551  0.63496  0.32891  1.0000
  H   H1499     1.0  0.66329  0.61044  0.42561  1.0000
  H   H1500     1.0  0.63429  0.35970  0.00547  1.0000
  H   H1501     1.0  0.63589  0.59366  0.01643  1.0000
  H   H1502     1.0  0.62663  0.63735  0.00568  1.0000
  H   H1503     1.0  0.60551  0.65737  0.12619  1.0000
  H   H1504     1.0  0.99077  0.38719  0.49251  1.0000
  H   H1505     1.0  0.52869  0.66226  0.15679  1.0000
  H   H1506     1.0  0.89843  0.60324  0.14631  1.0000
  N   N48       1.0  0.83527  0.37428  0.49477  1.0000
  H   H1507     1.0  0.84047  0.61609  0.49322  1.0000
  H   H1508     1.0  0.51776  0.57690  0.06781  1.0000
  H   H1509     1.0  0.83924  0.33687  0.45292  1.0000
  H   H1510     1.0  0.79626  0.66267  0.10684  1.0000
  C   C855      1.0  0.85604  0.35338  0.48893  1.0000
  S   S194      1.0  0.96667  0.50934  0.49740  1.0000
  H   H1511     1.0  0.99737  0.45019  0.46624  1.0000
  S   S195      1.0  0.73525  0.65977  0.27651  1.0000
  H   H1512     1.0  0.66639  0.65638  0.31892  1.0000
  H   H1513     1.0  0.82836  0.57366  0.47545  1.0000
  H   H1514     1.0  0.53790  0.37162  0.09272  1.0000
  C   C856      1.0  0.89276  0.65313  0.12495  1.0000
  C   C857      1.0  0.52843  0.35299  0.09825  1.0000
  H   H1515     1.0  0.97202  0.62503  0.49935  1.0000
  C   C858      1.0  0.64746  0.63158  0.00063  1.0000
  C   C859      1.0  0.50239  0.35840  0.11466  1.0000
  H   H1516     1.0  0.70904  0.66434  0.33891  1.0000
  H   H1517     1.0  0.54209  0.33594  0.06098  1.0000
  C   C860      1.0  0.55079  0.34872  0.96750  1.0000
  Fe  Fe98      1.0  0.57330  0.46784  0.97343  1.0000
  C   C861      1.0  0.98741  0.55495  0.61434  1.0000
  H   H1518     1.0  0.85293  0.33656  0.50246  1.0000
  Fe  Fe99      1.0  0.56596  0.41950  0.93938  1.0000
  S   S196      1.0  0.52304  0.41728  0.95302  1.0000
  S   S197      1.0  0.57748  0.38649  0.91038  1.0000
  Fe  Fe100     1.0  0.52133  0.46036  0.94744  1.0000
  H   H1519     1.0  0.90165  0.43337  0.52788  1.0000
  H   H1520     1.0  0.98019  0.52010  0.54755  1.0000
  S   S198      1.0  0.56308  0.46263  0.93098  1.0000
  H   H1521     1.0  0.98355  0.44026  0.55971  1.0000
  H   H1522     1.0  0.61267  0.36218  0.94980  1.0000
  C   C862      1.0  0.93799  0.38746  0.69856  1.0000
  H   H1523     1.0  0.79102  0.35582  0.74353  1.0000
  H   H1524     1.0  0.70574  0.34729  0.72604  1.0000
  H   H1525     1.0  0.95296  0.50727  0.65869  1.0000
  C   C863      1.0  0.97416  0.44967  0.54268  1.0000
  H   H1526     1.0  0.50719  0.52202  0.98786  1.0000
  C   C864      1.0  0.99128  0.51618  0.58766  1.0000
  H   H1527     1.0  0.86195  0.38470  0.58272  1.0000
  C   C865      1.0  0.97804  0.56876  0.59248  1.0000
  C   C866      1.0  0.63555  0.56857  0.92731  1.0000
  H   H1528     1.0  0.51785  0.53909  0.94123  1.0000
  S   S199      1.0  0.56363  0.61494  0.97350  1.0000
  H   H1529     1.0  0.88328  0.39389  0.55536  1.0000
  C   C867      1.0  0.96982  0.38240  0.76152  1.0000
  C   C868      1.0  0.96662  0.40971  0.76062  1.0000
  H   H1530     1.0  0.97003  0.47360  0.68838  1.0000
  H   H1531     1.0  0.79479  0.37839  0.50921  1.0000
  H   H1532     1.0  0.99757  0.41992  0.63257  1.0000
  H   H1533     1.0  0.95457  0.37065  0.77067  1.0000
  H   H1534     1.0  0.94880  0.41868  0.76910  1.0000
  H   H1535     1.0  0.95890  0.63086  0.82077  1.0000
  C   C869      1.0  0.64273  0.60188  0.96286  1.0000
  H   H1536     1.0  0.98493  0.40071  0.67697  1.0000
  C   C870      1.0  0.57049  0.58225  0.98106  1.0000
  H   H1537     1.0  0.67190  0.33475  0.67896  1.0000
  S   S200      1.0  0.98071  0.45990  0.74800  1.0000
  H   H1538     1.0  0.91427  0.42148  0.68839  1.0000
  C   C871      1.0  0.98033  0.42148  0.67293  1.0000
  C   C872      1.0  0.57264  0.53732  0.96628  1.0000
  C   C873      1.0  0.56543  0.56339  0.96224  1.0000
  S   S201      1.0  0.96538  0.57415  0.54035  1.0000
  H   H1539     1.0  0.53142  0.35164  0.93004  1.0000
  H   H1540     1.0  0.55638  0.56904  0.94415  1.0000
  H   H1541     1.0  0.56885  0.52296  0.95147  1.0000
  C   C874      1.0  0.60667  0.37225  0.89527  1.0000
  H   H1542     1.0  0.65436  0.38590  0.95432  1.0000
  H   H1543     1.0  0.50859  0.56911  0.98051  1.0000
  C   C875      1.0  0.65210  0.34625  0.87243  1.0000
  C   C876      1.0  0.65442  0.36793  0.88899  1.0000
  C   C877      1.0  0.63190  0.38096  0.90019  1.0000
  C   C878      1.0  0.62684  0.33781  0.86717  1.0000
  C   C879      1.0  0.99282  0.37041  0.75086  1.0000
  H   H1544     1.0  0.75000  0.34072  0.72384  1.0000
  H   H1545     1.0  0.63407  0.39766  0.91269  1.0000
  H   H1546     1.0  0.57831  0.33649  0.93665  1.0000
  H   H1547     1.0  0.97612  0.65287  0.87025  1.0000
  C   C880      1.0  0.94461  0.40805  0.64387  1.0000
  H   H1548     1.0  0.85460  0.41381  0.56452  1.0000
  H   H1549     1.0  0.63198  0.60959  0.92185  1.0000
  H   H1550     1.0  0.92843  0.43540  0.61502  1.0000
  H   H1551     1.0  0.61296  0.64250  0.95959  1.0000
  H   H1552     1.0  0.93978  0.40999  0.57505  1.0000
  H   H1553     1.0  0.98466  0.43188  0.69141  1.0000
  H   H1554     1.0  0.94092  0.51368  0.69199  1.0000
  H   H1555     1.0  0.99659  0.49585  0.58554  1.0000
  H   H1556     1.0  0.93600  0.37445  0.68151  1.0000
  C   C881      1.0  0.93551  0.41663  0.69096  1.0000
  H   H1557     1.0  0.95760  0.39035  0.64274  1.0000
  H   H1558     1.0  0.92355  0.45469  0.65646  1.0000
  H   H1559     1.0  0.50641  0.57133  0.93285  1.0000
  H   H1560     1.0  0.63741  0.56464  0.90581  1.0000
  H   H1561     1.0  0.92026  0.35974  0.72576  1.0000
  S   S202      1.0  0.99810  0.33598  0.75152  1.0000
  H   H1562     1.0  0.91768  0.38786  0.51994  1.0000
  C   C882      1.0  0.52664  0.34600  0.95082  1.0000
  H   H1563     1.0  0.64767  0.55390  0.93767  1.0000
  C   C883      1.0  0.98192  0.52991  0.56600  1.0000
  H   H1564     1.0  0.89695  0.38176  0.71123  1.0000
  H   H1565     1.0  0.97638  0.34617  0.66745  1.0000
  C   C884      1.0  0.94470  0.45307  0.66136  1.0000
  H   H1566     1.0  0.92423  0.40064  0.64693  1.0000
  H   H1567     1.0  0.74277  0.60625  0.96682  1.0000
  H   H1568     1.0  0.97235  0.41418  0.52115  1.0000
  H   H1569     1.0  0.75944  0.33446  0.67768  1.0000
  C   C885      1.0  0.67955  0.63354  0.96220  1.0000
  C   C886      1.0  0.90999  0.42775  0.50874  1.0000
  C   C887      1.0  0.86243  0.39358  0.56280  1.0000
  C   C888      1.0  0.94004  0.40051  0.59470  1.0000
  H   H1570     1.0  0.94124  0.42731  0.70881  1.0000
  H   H1571     1.0  0.68155  0.63410  0.94030  1.0000
  H   H1572     1.0  0.58495  0.34379  0.87452  1.0000
  H   H1573     1.0  0.82589  0.37614  0.55382  1.0000
  H   H1574     1.0  0.72699  0.61610  0.93718  1.0000
  H   H1575     1.0  0.87672  0.63702  0.52848  1.0000
  H   H1576     1.0  0.76280  0.33397  0.62674  1.0000
  H   H1577     1.0  0.66906  0.36303  0.69980  1.0000
  N   N49       1.0  0.65140  0.62840  0.97110  1.0000
  H   H1578     1.0  0.98230  0.60911  0.80402  1.0000
  H   H1579     1.0  0.73380  0.63988  0.96213  1.0000
  H   H1580     1.0  0.99583  0.37886  0.56647  1.0000
  S   S203      1.0  0.59807  0.49810  0.99224  1.0000
  H   H1581     1.0  0.95748  0.38332  0.70690  1.0000
  H   H1582     1.0  0.99656  0.35484  0.60872  1.0000
  H   H1583     1.0  0.95253  0.45096  0.54688  1.0000
  C   C889      1.0  0.94464  0.42067  0.61596  1.0000
  H   H1584     1.0  0.85403  0.65213  0.50779  1.0000
  H   H1585     1.0  0.68537  0.65315  0.96852  1.0000
  H   H1586     1.0  0.99052  0.62639  0.73330  1.0000
  C   C890      1.0  0.70380  0.33897  0.70604  1.0000
  C   C891      1.0  0.58609  0.53015  0.98867  1.0000
  C   C892      1.0  0.79571  0.33503  0.74719  1.0000
  C   C893      1.0  0.64964  0.38539  0.97586  1.0000
  H   H1587     1.0  0.91932  0.50009  0.66894  1.0000
  C   C894      1.0  0.91685  0.38011  0.71938  1.0000
  S   S204      1.0  0.53152  0.46867  0.98891  1.0000
  C   C895      1.0  0.63401  0.64832  0.95792  1.0000
  H   H1588     1.0  0.96847  0.44315  0.50173  1.0000
  C   C896      1.0  0.70088  0.61469  0.97241  1.0000
  H   H1589     1.0  0.66532  0.59742  0.92506  1.0000
  N   N50       1.0  0.95170  0.42502  0.66687  1.0000
  C   C897      1.0  0.72770  0.61962  0.95872  1.0000
  H   H1590     1.0  0.51047  0.35900  0.95866  1.0000
  H   H1591     1.0  0.70316  0.61791  0.99379  1.0000
  C   C898      1.0  0.97989  0.43395  0.51752  1.0000
  H   H1592     1.0  0.95600  0.38549  0.59427  1.0000
  C   C899      1.0  0.94001  0.50008  0.67519  1.0000
  H   H1593     1.0  0.69610  0.59414  0.96887  1.0000
  S   S205      1.0  0.57967  0.42503  0.98075  1.0000
  H   H1594     1.0  0.92417  0.33727  0.65747  1.0000
  C   C900      1.0  0.91890  0.40206  0.50427  1.0000
  H   H1595     1.0  0.91761  0.39282  0.73696  1.0000
  H   H1596     1.0  0.93714  0.46822  0.70184  1.0000
  H   H1597     1.0  0.95613  0.46038  0.64384  1.0000
  C   C901      1.0  0.61049  0.35629  0.97081  1.0000
  H   H1598     1.0  0.63611  0.40190  0.98126  1.0000
  H   H1599     1.0  0.55675  0.36927  0.96634  1.0000
  H   H1600     1.0  0.65400  0.58617  0.97254  1.0000
  H   H1601     1.0  0.81162  0.35064  0.52169  1.0000
  C   C902      1.0  0.98627  0.42552  0.74908  1.0000
  C   C903      1.0  0.60434  0.35070  0.87857  1.0000
  H   H1602     1.0  0.92083  0.39097  0.59849  1.0000
  H   H1603     1.0  0.67382  0.37472  0.89314  1.0000
  C   C904      1.0  0.94892  0.47289  0.68365  1.0000
  C   C905      1.0  0.97543  0.55629  0.56814  1.0000
  H   H1604     1.0  0.62188  0.59909  0.96971  1.0000
  H   H1605     1.0  0.71594  0.35062  0.69194  1.0000
  H   H1606     1.0  0.61457  0.56645  0.93382  1.0000
  H   H1607     1.0  0.97302  0.58919  0.59437  1.0000
  S   S206      1.0  0.98924  0.52886  0.71430  1.0000
  H   H1608     1.0  0.63906  0.64927  0.93639  1.0000
  C   C906      1.0  0.99950  0.64400  0.81902  1.0000
  C   C907      1.0  0.63727  0.35956  0.98370  1.0000
  H   H1609     1.0  0.86393  0.39884  0.51199  1.0000
  C   C908      1.0  0.84592  0.37777  0.54435  1.0000
  H   H1610     1.0  0.96334  0.43044  0.61073  1.0000
  H   H1611     1.0  0.92291  0.63006  0.51320  1.0000
  C   C909      1.0  0.64469  0.59603  0.93290  1.0000
  H   H1612     1.0  0.83080  0.40841  0.51971  1.0000
  H   H1613     1.0  0.85481  0.35805  0.54255  1.0000
  C   C910      1.0  0.84412  0.39105  0.51701  1.0000
  H   H1614     1.0  0.65169  0.34406  0.97774  1.0000
  H   H1615     1.0  0.98155  0.46970  0.54033  1.0000
  C   C911      1.0  0.97664  0.62983  0.80725  1.0000
  H   H1616     1.0  0.97187  0.63844  0.78790  1.0000
  H   H1617     1.0  0.95988  0.66332  0.91521  1.0000
  C   C912      1.0  0.67493  0.34217  0.69910  1.0000
  H   H1618     1.0  0.87403  0.33495  0.61606  1.0000
  H   H1619     1.0  0.84227  0.34931  0.60966  1.0000
  C   C913      1.0  0.87534  0.65064  0.51145  1.0000
  H   H1620     1.0  0.98954  0.56468  0.63296  1.0000
  C   C914      1.0  0.85547  0.33223  0.60564  1.0000
  Fe  Fe101     1.0  0.53687  0.42583  0.99340  1.0000
  H   H1621     1.0  0.54449  0.34445  0.98820  1.0000
  Fe  Fe102     1.0  0.95872  0.55190  0.50262  1.0000
  H   H1622     1.0  0.59712  0.37132  0.97993  1.0000
  C   C915      1.0  0.50079  0.55291  0.94274  1.0000
  H   H1623     1.0  0.66823  0.38777  0.98626  1.0000
  H   H1624     1.0  0.99469  0.65572  0.91494  1.0000
  C   C916      1.0  0.99341  0.33691  0.67705  1.0000
  C   C917      1.0  0.80932  0.36262  0.50366  1.0000
  H   H1625     1.0  0.81743  0.33249  0.74802  1.0000
  H   H1626     1.0  0.99920  0.45142  0.64817  1.0000
  C   C918      1.0  0.99445  0.52866  0.61176  1.0000
  Fe  Fe103     1.0  0.93636  0.33203  0.50385  1.0000
  H   H1627     1.0  0.88914  0.60027  0.50178  1.0000
  H   H1628     1.0  0.98999  0.33397  0.58170  1.0000
  H   H1629     1.0  0.85159  0.57013  0.50119  1.0000
  S   S207      1.0  0.93477  0.33176  0.60196  1.0000
  Fe  Fe104     1.0  0.81665  0.70859  0.29380  1.0000
  S   S208      1.0  0.83906  0.73020  0.26143  1.0000
  Fe  Fe105     1.0  0.77726  0.72136  0.33853  1.0000
  S   S209      1.0  0.61179  0.72624  0.02280  1.0000
  S   S210      1.0  0.75425  0.75376  0.35948  1.0000
  H   H1630     1.0  0.51719  0.86421  0.23281  1.0000
  H   H1631     1.0  0.56736  0.96629  0.43687  1.0000
  S   S211      1.0  0.82092  0.71315  0.33777  1.0000
  S   S212      1.0  0.77403  0.71996  0.29488  1.0000
  Fe  Fe106     1.0  0.59026  0.71539  0.26951  1.0000
  S   S213      1.0  0.54884  0.71501  0.28689  1.0000
  S   S214      1.0  0.62383  0.71380  0.29727  1.0000
  Fe  Fe107     1.0  0.57142  0.72977  0.21583  1.0000
  S   S215      1.0  0.52892  0.73195  0.22960  1.0000
  S   S216      1.0  0.58452  0.73637  0.17366  1.0000
  Fe  Fe108     1.0  0.54326  0.75298  0.26520  1.0000
  H   H1632     1.0  0.68842  0.67321  0.04951  1.0000
  S   S217      1.0  0.58506  0.75366  0.24921  1.0000
  H   H1633     1.0  0.51639  0.87973  0.31572  1.0000
  S   S218      1.0  0.54072  0.70642  0.04707  1.0000
  C   C919      1.0  0.88254  0.68056  0.08708  1.0000
  Fe  Fe109     1.0  0.50669  0.94547  0.29192  1.0000
  S   S219      1.0  0.58092  0.69137  0.23433  1.0000
  Fe  Fe110     1.0  0.79677  0.73336  0.11246  1.0000
  S   S220      1.0  0.80200  0.71342  0.07331  1.0000
  S   S221      1.0  0.79475  0.70822  0.14894  1.0000
  Fe  Fe111     1.0  0.78395  0.78453  0.08670  1.0000
  S   S222      1.0  0.78684  0.76830  0.04557  1.0000
  S   S223      1.0  0.77335  0.82562  0.09811  1.0000
  Fe  Fe112     1.0  0.76443  0.73424  0.06272  1.0000
  S   S224      1.0  0.73263  0.70691  0.04892  1.0000
  Fe  Fe113     1.0  0.82399  0.74893  0.05986  1.0000
  S   S225      1.0  0.86122  0.74711  0.03294  1.0000
  S   S226      1.0  0.75862  0.75254  0.10252  1.0000
  S   S227      1.0  0.82189  0.76698  0.10010  1.0000
  Fe  Fe114     1.0  0.82719  0.94818  0.04591  1.0000
  S   S228      1.0  0.78461  0.95841  0.04074  1.0000
  S   S229      1.0  0.84427  0.90822  0.03808  1.0000
  C   C920      1.0  0.78509  0.97671  0.15946  1.0000
  S   S230      1.0  0.82996  0.96693  0.08538  1.0000
  Fe  Fe115     1.0  0.54012  0.98275  0.32123  1.0000
  H   H1634     1.0  0.59857  0.77696  0.29913  1.0000
  C   C921      1.0  0.93628  0.98460  0.08360  1.0000
  S   S231      1.0  0.50959  0.90868  0.26640  1.0000
  Fe  Fe116     1.0  0.73311  0.94505  0.33337  1.0000
  S   S232      1.0  0.71954  0.90384  0.33330  1.0000
  S   S233      1.0  0.72889  0.97163  0.36965  1.0000
  Fe  Fe117     1.0  0.74919  0.94374  0.27262  1.0000
  S   S234      1.0  0.73611  0.90273  0.26907  1.0000
  S   S235      1.0  0.77091  0.96473  0.23848  1.0000
  Fe  Fe118     1.0  0.70152  0.91506  0.29520  1.0000
  S   S236      1.0  0.66061  0.90353  0.28592  1.0000
  Fe  Fe119     1.0  0.75561  0.89560  0.30730  1.0000
  S   S237      1.0  0.78479  0.86225  0.30984  1.0000
  S   S238      1.0  0.71289  0.95689  0.29628  1.0000
  S   S239      1.0  0.77088  0.93607  0.30985  1.0000
  C   C922      1.0  0.60331  0.96526  0.31958  1.0000
  C   C923      1.0  0.59497  0.94765  0.30085  1.0000
  C   C924      1.0  0.61271  0.92893  0.29005  1.0000
  C   C925      1.0  0.63858  0.92746  0.29845  1.0000
  C   C926      1.0  0.64686  0.94515  0.31705  1.0000
  C   C927      1.0  0.62938  0.96426  0.32729  1.0000
  H   H1635     1.0  0.57482  0.94822  0.29487  1.0000
  H   H1636     1.0  0.60621  0.91546  0.27547  1.0000
  H   H1637     1.0  0.66654  0.94375  0.32416  1.0000
  H   H1638     1.0  0.82385  0.91793  0.12596  1.0000
  C   C928      1.0  0.76232  0.96801  0.14795  1.0000
  C   C929      1.0  0.74247  0.95706  0.16443  1.0000
  C   C930      1.0  0.74528  0.95482  0.19193  1.0000
  C   C931      1.0  0.76746  0.96465  0.20357  1.0000
  H   H1639     1.0  0.52756  0.88157  0.40686  1.0000
  H   H1640     1.0  0.87238  0.72938  0.10332  1.0000
  H   H1641     1.0  0.72474  0.95035  0.15580  1.0000
  H   H1642     1.0  0.73004  0.94603  0.20416  1.0000
  C   C932      1.0  0.59838  0.82464  0.27571  1.0000
  C   C933      1.0  0.79345  0.84825  0.08146  1.0000
  C   C934      1.0  0.78836  0.87478  0.08525  1.0000
  C   C935      1.0  0.80415  0.89318  0.07220  1.0000
  C   C936      1.0  0.82494  0.88513  0.05500  1.0000
  C   C937      1.0  0.83019  0.85856  0.05129  1.0000
  C   C938      1.0  0.81451  0.84012  0.06460  1.0000
  H   H1643     1.0  0.77184  0.88117  0.09788  1.0000
  H   H1644     1.0  0.79996  0.91362  0.07525  1.0000
  H   H1645     1.0  0.84626  0.85222  0.03803  1.0000
  H   H1646     1.0  0.81857  0.81963  0.06156  1.0000
  S   S240      1.0  0.52856  0.78773  0.29081  1.0000
  C   C939      1.0  0.72241  0.96433  0.40363  1.0000
  C   C940      1.0  0.71887  0.93897  0.41284  1.0000
  H   H1647     1.0  0.69475  0.68841  0.15850  1.0000
  C   C941      1.0  0.83332  0.74125  0.20877  1.0000
  H   H1648     1.0  0.71970  0.92309  0.39897  1.0000
  H   H1649     1.0  0.66391  0.71985  0.09735  1.0000
  C   C942      1.0  0.65437  0.69610  0.03881  1.0000
  C   C943      1.0  0.68120  0.69232  0.04425  1.0000
  C   C944      1.0  0.69881  0.71309  0.04303  1.0000
  C   C945      1.0  0.68928  0.73770  0.03614  1.0000
  H   H1650     1.0  0.65914  0.90159  0.35593  1.0000
  C   C946      1.0  0.96122  0.83940  0.09339  1.0000
  C   C947      1.0  0.80746  0.91470  0.36302  1.0000
  H   H1651     1.0  0.84715  0.75660  0.21147  1.0000
  C   C948      1.0  0.52274  0.83064  0.25767  1.0000
  C   C949      1.0  0.64979  0.72951  0.21394  1.0000
  H   H1652     1.0  0.64207  0.67517  0.25817  1.0000
  H   H1653     1.0  0.78136  0.89247  0.48840  1.0000
  C   C950      1.0  0.57014  0.71339  0.15361  1.0000
  C   C951      1.0  0.57665  0.71294  0.12659  1.0000
  C   C952      1.0  0.56613  0.69406  0.11047  1.0000
  H   H1654     1.0  0.76375  0.89598  0.38705  1.0000
  H   H1655     1.0  0.64393  0.81421  0.29724  1.0000
  C   C953      1.0  0.91505  0.69050  0.04916  1.0000
  H   H1656     1.0  0.59018  0.72693  0.11821  1.0000
  H   H1657     1.0  0.65663  0.67554  0.09786  1.0000
  H   H1658     1.0  0.86840  0.93612  0.11336  1.0000
  Fe  Fe120     1.0  0.51946  0.69283  0.01191  1.0000
  H   H1659     1.0  0.67847  0.66925  0.39236  1.0000
  C   C954      1.0  0.94729  0.76785  0.04804  1.0000
  C   C955      1.0  0.92799  0.76884  0.06878  1.0000
  C   C956      1.0  0.90132  0.76405  0.06423  1.0000
  C   C957      1.0  0.89380  0.75696  0.03910  1.0000
  H   H1660     1.0  0.87308  0.69540  0.42895  1.0000
  H   H1661     1.0  0.91026  0.85942  0.03245  1.0000
  H   H1662     1.0  0.88668  0.76539  0.08021  1.0000
  H   H1663     1.0  0.65512  0.78444  0.10710  1.0000
  H   H1664     1.0  0.82893  0.74924  0.16729  1.0000
  C   C958      1.0  0.76258  0.78413  0.34624  1.0000
  C   C959      1.0  0.74399  0.80466  0.34675  1.0000
  C   C960      1.0  0.75037  0.82877  0.33534  1.0000
  C   C961      1.0  0.77562  0.83250  0.32408  1.0000
  C   C962      1.0  0.79428  0.81213  0.32414  1.0000
  C   C963      1.0  0.78766  0.78789  0.33472  1.0000
  H   H1665     1.0  0.72448  0.80162  0.35538  1.0000
  H   H1666     1.0  0.73592  0.84443  0.33538  1.0000
  H   H1667     1.0  0.81397  0.81500  0.31590  1.0000
  H   H1668     1.0  0.80211  0.77216  0.33425  1.0000
  C   C964      1.0  0.82581  0.72546  0.23029  1.0000
  C   C965      1.0  0.80786  0.70573  0.22674  1.0000
  C   C966      1.0  0.79831  0.70107  0.20172  1.0000
  C   C967      1.0  0.80607  0.71646  0.18012  1.0000
  H   H1669     1.0  0.80185  0.69349  0.24316  1.0000
  H   H1670     1.0  0.78501  0.68522  0.19911  1.0000
  H   H1671     1.0  0.60907  0.80639  0.26977  1.0000
  H   H1672     1.0  0.52988  0.83246  0.00540  1.0000
  C   C968      1.0  0.67655  0.70829  0.30270  1.0000
  C   C969      1.0  0.65508  0.70067  0.28834  1.0000
  H   H1673     1.0  0.83788  0.69108  0.43120  1.0000
  H   H1674     1.0  0.86560  0.86440  0.09261  1.0000
  H   H1675     1.0  0.63861  0.93450  0.23535  1.0000
  H   H1676     1.0  0.67383  0.72295  0.31785  1.0000
  H   H1677     1.0  0.79163  0.88919  0.44024  1.0000
  C   C970      1.0  0.65412  0.71127  0.19036  1.0000
  H   H1678     1.0  0.56438  0.75419  0.03985  1.0000
  H   H1679     1.0  0.89672  0.95925  0.01967  1.0000
  N   N51       1.0  0.75814  0.79336  0.23838  1.0000
  C   C971      1.0  0.78377  0.79367  0.25257  1.0000
  C   C972      1.0  0.73963  0.77591  0.25387  1.0000
  C   C973      1.0  0.76399  0.78240  0.21109  1.0000
  C   C974      1.0  0.74767  0.82095  0.23698  1.0000
  C   C975      1.0  0.72018  0.82487  0.22534  1.0000
  C   C976      1.0  0.80734  0.80672  0.23761  1.0000
  C   C977      1.0  0.74115  0.76903  0.19732  1.0000
  C   C978      1.0  0.73184  0.78490  0.28227  1.0000
  C   C979      1.0  0.71194  0.76674  0.29551  1.0000
  C   C980      1.0  0.70941  0.85242  0.23016  1.0000
  C   C981      1.0  0.83143  0.80760  0.25457  1.0000
  C   C982      1.0  0.74721  0.76640  0.16777  1.0000
  H   H1680     1.0  0.79032  0.77346  0.25747  1.0000
  H   H1681     1.0  0.78105  0.80397  0.27173  1.0000
  H   H1682     1.0  0.72093  0.77322  0.24387  1.0000
  H   H1683     1.0  0.74853  0.75599  0.25506  1.0000
  H   H1684     1.0  0.77979  0.76706  0.21171  1.0000
  H   H1685     1.0  0.77202  0.79774  0.19774  1.0000
  H   H1686     1.0  0.74744  0.83022  0.25681  1.0000
  H   H1687     1.0  0.76116  0.83305  0.22463  1.0000
  H   H1688     1.0  0.70547  0.81149  0.23413  1.0000
  H   H1689     1.0  0.72178  0.82200  0.20366  1.0000
  H   H1690     1.0  0.81324  0.79587  0.21939  1.0000
  H   H1691     1.0  0.80242  0.82699  0.23226  1.0000
  H   H1692     1.0  0.72209  0.77956  0.19994  1.0000
  H   H1693     1.0  0.73857  0.74920  0.20564  1.0000
  H   H1694     1.0  0.74939  0.78472  0.29438  1.0000
  H   H1695     1.0  0.72281  0.80466  0.28251  1.0000
  H   H1696     1.0  0.70671  0.77356  0.31582  1.0000
  H   H1697     1.0  0.69367  0.76595  0.28429  1.0000
  H   H1698     1.0  0.72074  0.74700  0.29697  1.0000
  H   H1699     1.0  0.72333  0.86695  0.22186  1.0000
  H   H1700     1.0  0.69032  0.85504  0.22049  1.0000
  H   H1701     1.0  0.70591  0.85594  0.25162  1.0000
  H   H1702     1.0  0.83657  0.78796  0.26207  1.0000
  H   H1703     1.0  0.84858  0.81484  0.24265  1.0000
  H   H1704     1.0  0.82758  0.82095  0.27147  1.0000
  H   H1705     1.0  0.76641  0.75616  0.16399  1.0000
  H   H1706     1.0  0.60453  0.97265  0.38772  1.0000
  H   H1707     1.0  0.64298  0.84747  0.28901  1.0000
  C   C983      1.0  0.96098  0.88014  0.06679  1.0000
  C   C984      1.0  0.59345  0.85942  0.30865  1.0000
  C   C985      1.0  0.94524  0.83951  0.04863  1.0000
  C   C986      1.0  0.70492  0.67674  0.27958  1.0000
  H   H1708     1.0  0.71665  0.98943  0.24231  1.0000
  C   C987      1.0  0.85733  0.68104  0.43262  1.0000
  N   N52       1.0  0.60545  0.83272  0.30311  1.0000
  C   C988      1.0  0.58544  0.86612  0.33781  1.0000
  C   C989      1.0  0.57982  0.89513  0.34146  1.0000
  N   N53       1.0  0.62478  0.95935  0.42236  1.0000
  H   H1709     1.0  0.57197  0.81349  0.32116  1.0000
  H   H1710     1.0  0.59781  0.81814  0.34289  1.0000
  H   H1711     1.0  0.60687  0.87465  0.30076  1.0000
  H   H1712     1.0  0.57484  0.86216  0.29798  1.0000
  N   N54       1.0  0.87695  0.67648  0.11626  1.0000
  H   H1713     1.0  0.59978  0.84839  0.21097  1.0000
  C   C990      1.0  0.90037  0.83923  0.08762  1.0000
  C   C991      1.0  0.78745  0.97534  0.18709  1.0000
  H   H1714     1.0  0.64151  0.86141  0.33462  1.0000
  C   C992      1.0  0.96573  0.89810  0.09056  1.0000
  H   H1715     1.0  0.65776  0.94478  0.37614  1.0000
  H   H1716     1.0  0.59355  0.86322  0.25674  1.0000
  H   H1717     1.0  0.56718  0.85570  0.34379  1.0000
  H   H1718     1.0  0.60081  0.86049  0.35163  1.0000
  H   H1719     1.0  0.57208  0.89903  0.36186  1.0000
  H   H1720     1.0  0.59829  0.90604  0.33838  1.0000
  H   H1721     1.0  0.56503  0.90219  0.32744  1.0000
  H   H1722     1.0  0.65590  0.96903  0.46746  1.0000
  H   H1723     1.0  0.56800  0.76755  0.33675  1.0000
  H   H1724     1.0  0.99485  0.79851  0.10808  1.0000
  S   S241      1.0  0.75726  0.97105  0.11345  1.0000
  H   H1725     1.0  0.87904  0.92965  0.14602  1.0000
  H   H1726     1.0  0.70262  0.75380  0.03488  1.0000
  C   C993      1.0  0.55954  0.79529  0.03016  1.0000
  C   C994      1.0  0.88477  0.69964  0.13202  1.0000
  H   H1727     1.0  0.62518  0.93230  0.37269  1.0000
  H   H1728     1.0  0.62554  0.84832  0.25083  1.0000
  C   C995      1.0  0.63510  0.83322  0.30361  1.0000
  H   H1729     1.0  0.95308  0.81952  0.09469  1.0000
  S   S242      1.0  0.58139  0.98814  0.33416  1.0000
  H   H1730     1.0  0.97486  0.88752  0.10696  1.0000
  S   S243      1.0  0.76659  0.67970  0.34413  1.0000
  H   H1731     1.0  0.90925  0.82282  0.09854  1.0000
  H   H1732     1.0  0.54770  0.69523  0.18533  1.0000
  H   H1733     1.0  0.99601  0.82715  0.06858  1.0000
  H   H1734     1.0  0.71524  0.99595  0.46298  1.0000
  H   H1735     1.0  0.98120  0.94950  0.02407  1.0000
  H   H1736     1.0  0.92634  0.99814  0.00907  1.0000
  C   C996      1.0  0.76140  0.88529  0.48460  1.0000
  H   H1737     1.0  0.93394  0.70009  0.04383  1.0000
  C   C997      1.0  0.67153  0.91678  0.21373  1.0000
  H   H1738     1.0  0.95803  0.84762  0.11354  1.0000
  C   C998      1.0  0.66261  0.74135  0.03004  1.0000
  N   N55       1.0  0.54092  0.79184  0.00798  1.0000
  H   H1739     1.0  0.84906  0.82533  0.39798  1.0000
  C   C999      1.0  0.86152  0.93403  0.13429  1.0000
  H   H1740     1.0  0.74007  0.66745  0.10146  1.0000
  N   N56       1.0  0.81387  0.88620  0.17187  1.0000
  C   C1000     1.0  0.81329  0.88105  0.20119  1.0000
  C   C1001     1.0  0.82293  0.86180  0.15743  1.0000
  C   C1002     1.0  0.83428  0.90669  0.16625  1.0000
  C   C1003     1.0  0.78778  0.89593  0.16208  1.0000
  C   C1004     1.0  0.76236  0.88440  0.17521  1.0000
  C   C1005     1.0  0.80843  0.90504  0.21916  1.0000
  H   H1741     1.0  0.91617  0.67025  0.04172  1.0000
  C   C1006     1.0  0.80648  0.83718  0.16250  1.0000
  C   C1007     1.0  0.82022  0.81330  0.15015  1.0000
  C   C1008     1.0  0.80546  0.89697  0.24809  1.0000
  C   C1009     1.0  0.93955  0.76205  0.02265  1.0000
  H   H1742     1.0  0.83229  0.87179  0.20679  1.0000
  H   H1743     1.0  0.79801  0.86704  0.20713  1.0000
  H   H1744     1.0  0.82274  0.86479  0.13570  1.0000
  H   H1745     1.0  0.84373  0.85701  0.16207  1.0000
  H   H1746     1.0  0.85293  0.90149  0.17603  1.0000
  H   H1747     1.0  0.82744  0.92572  0.17472  1.0000
  H   H1748     1.0  0.78562  0.91734  0.16461  1.0000
  H   H1749     1.0  0.78739  0.89315  0.14037  1.0000
  H   H1750     1.0  0.75635  0.89590  0.19302  1.0000
  H   H1751     1.0  0.76477  0.86408  0.18166  1.0000
  H   H1752     1.0  0.82522  0.91847  0.21757  1.0000
  H   H1753     1.0  0.79035  0.91573  0.21373  1.0000
  H   H1754     1.0  0.93651  0.82037  0.05316  1.0000
  H   H1755     1.0  0.52233  0.83241  0.32449  1.0000
  H   H1756     1.0  0.80336  0.83288  0.18369  1.0000
  H   H1757     1.0  0.78716  0.83942  0.15325  1.0000
  H   H1758     1.0  0.80757  0.79614  0.15322  1.0000
  H   H1759     1.0  0.82352  0.81630  0.12863  1.0000
  H   H1760     1.0  0.83941  0.80929  0.15922  1.0000
  H   H1761     1.0  0.80133  0.91443  0.26048  1.0000
  H   H1762     1.0  0.78897  0.88337  0.25120  1.0000
  H   H1763     1.0  0.82388  0.88747  0.25466  1.0000
  H   H1764     1.0  0.91228  0.71115  0.08574  1.0000
  H   H1765     1.0  0.58009  0.79765  0.02211  1.0000
  C   C1010     1.0  0.63888  0.67956  0.11062  1.0000
  H   H1766     1.0  0.74358  0.87137  0.13995  1.0000
  C   C1011     1.0  0.75184  0.84760  0.40748  1.0000
  N   N57       1.0  0.66498  0.71165  0.13954  1.0000
  C   C1012     1.0  0.66201  0.73004  0.11658  1.0000
  C   C1013     1.0  0.64540  0.68995  0.13829  1.0000
  C   C1014     1.0  0.65866  0.72706  0.16447  1.0000
  C   C1015     1.0  0.69281  0.70112  0.14096  1.0000
  H   H1767     1.0  0.50920  0.80097  0.03645  1.0000
  C   C1016     1.0  0.68226  0.75219  0.11425  1.0000
  H   H1768     1.0  0.80478  0.98296  0.19577  1.0000
  C   C1017     1.0  0.82315  0.73703  0.18376  1.0000
  C   C1018     1.0  0.67234  0.77443  0.09713  1.0000
  C   C1019     1.0  0.51857  0.85738  0.25288  1.0000
  H   H1769     1.0  0.64164  0.73862  0.11726  1.0000
  H   H1770     1.0  0.57387  0.83069  0.22771  1.0000
  C   C1020     1.0  0.55285  0.69505  0.16445  1.0000
  H   H1771     1.0  0.64058  0.73935  0.16216  1.0000
  H   H1772     1.0  0.67464  0.74073  0.16841  1.0000
  H   H1773     1.0  0.70669  0.71718  0.14394  1.0000
  H   H1774     1.0  0.64428  0.71818  0.23184  1.0000
  H   H1775     1.0  0.68683  0.76068  0.13344  1.0000
  H   H1776     1.0  0.70098  0.74438  0.10500  1.0000
  H   H1777     1.0  0.65183  0.67327  0.15062  1.0000
  H   H1778     1.0  0.58016  0.79459  0.08051  1.0000
  H   H1779     1.0  0.85623  0.68441  0.47452  1.0000
  C   C1021     1.0  0.64502  0.72062  0.03130  1.0000
  H   H1780     1.0  0.66643  0.76715  0.07778  1.0000
  H   H1781     1.0  0.68824  0.78869  0.09370  1.0000
  H   H1782     1.0  0.93373  0.77339  0.08848  1.0000
  H   H1783     1.0  0.74227  0.85929  0.45918  1.0000
  H   H1784     1.0  0.89496  0.83206  0.06800  1.0000
  H   H1785     1.0  0.98018  0.87575  0.05610  1.0000
  C   C1022     1.0  0.64158  0.95314  0.46978  1.0000
  C   C1023     1.0  0.61808  0.95744  0.45159  1.0000
  H   H1786     1.0  0.73670  0.90491  0.14826  1.0000
  H   H1787     1.0  0.90994  0.87751  0.07266  1.0000
  H   H1788     1.0  0.65561  0.76038  0.02423  1.0000
  H   H1789     1.0  0.73162  0.75505  0.15872  1.0000
  H   H1790     1.0  0.74794  0.78580  0.15821  1.0000
  H   H1791     1.0  0.57707  0.82015  0.27546  1.0000
  C   C1024     1.0  0.70252  0.69964  0.37708  1.0000
  C   C1025     1.0  0.87485  0.84748  0.10246  1.0000
  C   C1026     1.0  0.56078  0.77275  0.05030  1.0000
  C   C1027     1.0  0.73955  0.88515  0.15651  1.0000
  C   C1028     1.0  0.84159  0.91222  0.13684  1.0000
  H   H1792     1.0  0.63630  0.69922  0.18955  1.0000
  Fe  Fe121     1.0  0.57891  0.69671  0.02474  1.0000
  C   C1029     1.0  0.76247  0.86660  0.46121  1.0000
  C   C1030     1.0  0.52136  0.83931  0.30442  1.0000
  H   H1793     1.0  0.72106  0.87946  0.16724  1.0000
  H   H1794     1.0  0.51547  0.93843  0.43638  1.0000
  H   H1795     1.0  0.72544  0.87396  0.38649  1.0000
  C   C1031     1.0  0.99700  0.96335  0.01886  1.0000
  H   H1796     1.0  0.52067  0.99687  0.48995  1.0000
  C   C1032     1.0  0.92658  0.83252  0.00377  1.0000
  H   H1797     1.0  0.96522  0.83464  0.04046  1.0000
  H   H1798     1.0  0.63971  0.82819  0.34636  1.0000
  C   C1033     1.0  0.68358  0.66932  0.26480  1.0000
  H   H1799     1.0  0.65716  0.93122  0.42304  1.0000
  C   C1034     1.0  0.71632  0.98006  0.44916  1.0000
  S   S244      1.0  0.84192  0.98249  0.02321  1.0000
  H   H1800     1.0  0.79100  0.92923  0.36456  1.0000
  S   S245      1.0  0.53066  0.97982  0.27868  1.0000
  H   H1801     1.0  0.67119  0.69833  0.19431  1.0000
  C   C1035     1.0  0.70347  0.68491  0.11714  1.0000
  H   H1802     1.0  0.71196  0.91461  0.44714  1.0000
  H   H1803     1.0  0.90565  0.92857  0.00454  1.0000
  C   C1036     1.0  0.72545  0.86292  0.40529  1.0000
  Fe  Fe122     1.0  0.76689  0.67772  0.30010  1.0000
  H   H1804     1.0  0.65865  0.90171  0.20592  1.0000
  H   H1805     1.0  0.92094  0.87106  0.10456  1.0000
  H   H1806     1.0  0.94136  0.86859  0.01722  1.0000
  C   C1037     1.0  0.71364  0.95467  0.45849  1.0000
  H   H1807     1.0  0.64195  0.88804  0.38435  1.0000
  H   H1808     1.0  0.94678  0.90688  0.09820  1.0000
  C   C1038     1.0  0.70220  0.84455  0.40562  1.0000
  H   H1809     1.0  0.62017  0.97666  0.23417  1.0000
  C   C1039     1.0  0.67688  0.83889  0.32830  1.0000
  C   C1040     1.0  0.77254  0.88040  0.43565  1.0000
  H   H1810     1.0  0.70457  0.83032  0.38928  1.0000
  H   H1811     1.0  0.80648  0.90373  0.34430  1.0000
  H   H1812     1.0  0.68483  0.84550  0.34711  1.0000
  H   H1813     1.0  0.82342  0.88274  0.38440  1.0000
  C   C1041     1.0  0.91028  0.69082  0.07908  1.0000
  H   H1814     1.0  0.70066  0.83391  0.42466  1.0000
  H   H1815     1.0  0.87970  0.69672  0.15334  1.0000
  H   H1816     1.0  0.81677  0.85642  0.42016  1.0000
  C   C1042     1.0  0.60337  0.78454  0.31868  1.0000
  H   H1817     1.0  0.58272  0.99675  0.42998  1.0000
  Fe  Fe123     1.0  0.78797  0.97914  0.07987  1.0000
  H   H1818     1.0  0.68358  0.81852  0.32468  1.0000
  C   C1043     1.0  0.65490  0.94080  0.22165  1.0000
  N   N58       1.0  0.66079  0.98881  0.23479  1.0000
  C   C1044     1.0  0.71453  0.93422  0.44011  1.0000
  C   C1045     1.0  0.54213  0.67628  0.14827  1.0000
  H   H1819     1.0  0.60598  0.81552  0.22172  1.0000
  H   H1820     1.0  0.72197  0.87672  0.42176  1.0000
  S   S246      1.0  0.98072  0.77326  0.05517  1.0000
  C   C1046     1.0  0.65867  0.68141  0.26904  1.0000
  C   C1047     1.0  0.65552  0.90354  0.37757  1.0000
  H   H1821     1.0  0.94073  0.96410  0.08528  1.0000
  H   H1822     1.0  0.75428  0.83622  0.38903  1.0000
  H   H1823     1.0  0.74405  0.69791  0.11773  1.0000
  H   H1824     1.0  0.95413  0.76119  0.00650  1.0000
  C   C1048     1.0  0.91303  0.75627  0.01832  1.0000
  H   H1825     1.0  0.77560  0.85003  0.46617  1.0000
  H   H1826     1.0  0.68497  0.85145  0.31220  1.0000
  C   C1049     1.0  0.70144  0.69660  0.29809  1.0000
  H   H1827     1.0  0.82633  0.92522  0.36262  1.0000
  H   H1828     1.0  0.75909  0.89727  0.43217  1.0000
  H   H1829     1.0  0.77870  0.87010  0.36899  1.0000
  C   C1050     1.0  0.93012  0.85214  0.02581  1.0000
  H   H1830     1.0  0.59686  0.74681  0.33669  1.0000
  H   H1831     1.0  0.58320  0.75980  0.08341  1.0000
  H   H1832     1.0  0.62492  0.78252  0.32103  1.0000
  H   H1833     1.0  0.63589  0.97790  0.34170  1.0000
  H   H1834     1.0  0.84231  0.67291  0.14241  1.0000
  H   H1835     1.0  0.66805  0.74018  0.21763  1.0000
  H   H1836     1.0  0.64102  0.68006  0.04012  1.0000
  H   H1837     1.0  0.59383  0.77344  0.35952  1.0000
  C   C1051     1.0  0.64346  0.93034  0.38377  1.0000
  H   H1838     1.0  0.67466  0.90108  0.38716  1.0000
  C   C1052     1.0  0.59387  0.81313  0.32226  1.0000
  H   H1839     1.0  0.92612  0.67891  0.08774  1.0000
  H   H1840     1.0  0.81100  0.84023  0.37220  1.0000
  H   H1841     1.0  0.87875  0.85258  0.12314  1.0000
  H   H1842     1.0  0.62543  0.91737  0.42086  1.0000
  H   H1843     1.0  0.90148  0.67095  0.46074  1.0000
  H   H1844     1.0  0.62662  0.69417  0.10030  1.0000
  C   C1053     1.0  0.55510  0.98531  0.40175  1.0000
  C   C1054     1.0  0.59991  0.96320  0.40712  1.0000
  C   C1055     1.0  0.64678  0.84089  0.33002  1.0000
  H   H1845     1.0  0.79152  0.81445  0.38618  1.0000
  C   C1056     1.0  0.51777  0.86614  0.29958  1.0000
  H   H1846     1.0  0.65194  0.93437  0.46561  1.0000
  H   H1847     1.0  0.52154  0.91107  0.38887  1.0000
  C   C1057     1.0  0.77997  0.88116  0.38769  1.0000
  C   C1058     1.0  0.58965  0.76714  0.33924  1.0000
  C   C1059     1.0  0.60418  0.84446  0.25316  1.0000
  C   C1060     1.0  0.80616  0.89621  0.38651  1.0000
  C   C1061     1.0  0.83223  0.81243  0.39483  1.0000
  H   H1848     1.0  0.89899  0.70115  0.03930  1.0000
  C   C1062     1.0  0.80720  0.82840  0.39016  1.0000
  H   H1849     1.0  0.69157  0.71474  0.38891  1.0000
  H   H1850     1.0  0.60408  0.94132  0.45537  1.0000
  H   H1851     1.0  0.70019  0.69507  0.09832  1.0000
  H   H1852     1.0  0.68359  0.85578  0.40322  1.0000
  N   N59       1.0  0.77585  0.86366  0.41130  1.0000
  Fe  Fe124     1.0  0.81035  0.67064  0.34029  1.0000
  C   C1063     1.0  0.63777  0.93388  0.41388  1.0000
  C   C1064     1.0  0.59542  0.83404  0.22682  1.0000
  C   C1065     1.0  0.79919  0.84550  0.41448  1.0000
  H   H1853     1.0  0.80814  0.90805  0.40449  1.0000
  H   H1854     1.0  0.79524  0.83181  0.43106  1.0000
  H   H1855     1.0  0.74964  0.83276  0.42335  1.0000
  Fe  Fe125     1.0  0.53877  0.69389  0.24969  1.0000
  H   H1856     1.0  0.71777  0.70224  0.30965  1.0000
  H   H1857     1.0  0.60245  0.77633  0.05830  1.0000
  H   H1858     1.0  0.85109  0.89502  0.12718  1.0000
  C   C1066     1.0  0.91958  0.86221  0.08469  1.0000
  H   H1859     1.0  0.86083  0.83124  0.10252  1.0000
  C   C1067     1.0  0.57651  0.97845  0.42098  1.0000
  H   H1860     1.0  0.88259  0.74586  0.16020  1.0000
  H   H1861     1.0  0.83714  0.80015  0.37727  1.0000
  H   H1862     1.0  0.68157  0.90865  0.23101  1.0000
  H   H1863     1.0  0.82928  0.79948  0.41218  1.0000
  H   H1864     1.0  0.52457  0.81715  0.24137  1.0000
  H   H1865     1.0  0.55437  0.81335  0.04145  1.0000
  H   H1866     1.0  0.63348  0.74361  0.21046  1.0000
  H   H1867     1.0  0.90653  0.70196  0.13073  1.0000
  H   H1868     1.0  0.62590  0.69648  0.14704  1.0000
  H   H1869     1.0  0.89512  0.97904  0.07623  1.0000
  C   C1068     1.0  0.67149  0.96132  0.23552  1.0000
  H   H1870     1.0  0.85014  0.72553  0.13121  1.0000
  N   N60       1.0  0.94677  0.85541  0.07336  1.0000
  C   C1069     1.0  0.88380  0.74849  0.13845  1.0000
  H   H1871     1.0  0.52767  0.88091  0.37133  1.0000
  H   H1872     1.0  0.85234  0.95273  0.14108  1.0000
  H   H1873     1.0  0.83653  0.68905  0.11252  1.0000
  H   H1874     1.0  0.64810  0.98196  0.39444  1.0000
  H   H1875     1.0  0.60751  0.97511  0.45910  1.0000
  H   H1876     1.0  0.80053  0.98528  0.14717  1.0000
  H   H1877     1.0  0.54209  0.77163  0.06236  1.0000
  C   C1070     1.0  0.58303  0.77624  0.06925  1.0000
  S   S247      1.0  0.70963  0.94745  0.49279  1.0000
  C   C1071     1.0  0.64403  0.98060  0.41608  1.0000
  C   C1072     1.0  0.54876  0.67578  0.12125  1.0000
  S   S248      1.0  0.51831  0.94715  0.33404  1.0000
  H   H1878     1.0  0.72018  0.69347  0.38786  1.0000
  H   H1879     1.0  0.57204  0.69335  0.08983  1.0000
  H   H1880     1.0  0.90477  0.75022  0.13165  1.0000
  H   H1881     1.0  0.92297  0.93949  0.03260  1.0000
  C   C1073     1.0  0.51817  0.88988  0.38928  1.0000
  H   H1882     1.0  0.74809  0.90213  0.48080  1.0000
  H   H1883     1.0  0.69190  0.96006  0.22711  1.0000
  H   H1884     1.0  0.59143  0.94411  0.40216  1.0000
  C   C1074     1.0  0.87125  0.72573  0.12478  1.0000
  C   C1075     1.0  0.68469  0.67662  0.37263  1.0000
  H   H1885     1.0  0.87320  0.76681  0.13356  1.0000
  H   H1886     1.0  0.68660  0.92176  0.19814  1.0000
  H   H1887     1.0  0.67308  0.95475  0.25631  1.0000
  C   C1076     1.0  0.85944  0.66866  0.45983  1.0000
  H   H1888     1.0  0.63254  0.97894  0.26628  1.0000
  C   C1077     1.0  0.98398  0.92017  0.08250  1.0000
  C   C1078     1.0  0.73308  0.67950  0.11856  1.0000
  H   H1889     1.0  0.86771  0.69412  0.07864  1.0000
  H   H1890     1.0  0.94962  0.89214  0.05281  1.0000
  C   C1079     1.0  0.91046  0.99301  0.07853  1.0000
  H   H1891     1.0  0.51377  0.76716  0.02992  1.0000
  C   C1080     1.0  0.99144  0.83587  0.08814  1.0000
  H   H1892     1.0  0.97490  0.93264  0.06741  1.0000
  C   C1081     1.0  0.52386  0.82136  0.28351  1.0000
  H   H1893     1.0  0.70903  0.70850  0.35799  1.0000
  C   C1082     1.0  0.94347  0.98431  0.00827  1.0000
  C   C1083     1.0  0.51396  0.78665  0.02042  1.0000
  C   C1084     1.0  0.68254  0.99029  0.18715  1.0000
  H   H1894     1.0  0.64586  0.94873  0.20375  1.0000
  H   H1895     1.0  0.98759  0.93240  0.09993  1.0000
  H   H1896     1.0  0.67939  0.96989  0.18139  1.0000
  H   H1897     1.0  0.94748  0.98038  0.02931  1.0000
  H   H1898     1.0  0.66350  0.97589  0.42435  1.0000
  C   C1085     1.0  0.91349  0.94588  0.01428  1.0000
  S   S249      1.0  0.98861  0.99148  0.09208  1.0000
  C   C1086     1.0  0.51587  0.87532  0.27375  1.0000
  H   H1899     1.0  0.66737  0.68431  0.36233  1.0000
  C   C1087     1.0  0.84781  0.67254  0.12093  1.0000
  H   H1900     1.0  0.54949  0.96794  0.39052  1.0000
  C   C1088     1.0  0.72083  0.98481  0.42196  1.0000
  H   H1901     1.0  0.64149  0.99547  0.19787  1.0000
  H   H1902     1.0  0.51019  0.73882  0.09294  1.0000
  H   H1903     1.0  0.70232  0.99107  0.19528  1.0000
  H   H1904     1.0  0.91405  0.81634  0.01100  1.0000
  H   H1905     1.0  0.53730  0.99311  0.41273  1.0000
  H   H1906     1.0  0.73763  0.66901  0.13701  1.0000
  H   H1907     1.0  0.50296  0.95453  0.39236  1.0000
  Fe  Fe126     1.0  0.79937  0.99477  0.02040  1.0000
  C   C1089     1.0  0.63293  0.98851  0.24654  1.0000
  H   H1908     1.0  0.99866  0.97659  0.03574  1.0000
  S   S250      1.0  0.80956  0.66559  0.29603  1.0000
  H   H1909     1.0  0.85895  0.66596  0.41710  1.0000
  C   C1090     1.0  0.63209  0.95258  0.49874  1.0000
  H   H1910     1.0  0.69372  0.66584  0.11710  1.0000
  H   H1911     1.0  0.67516  0.99809  0.27305  1.0000
  H   H1912     1.0  0.57655  0.83719  0.00044  1.0000
  H   H1913     1.0  0.61730  0.93725  0.50230  1.0000
  H   H1914     1.0  0.81169  0.95308  0.89153  1.0000
  H   H1915     1.0  0.98142  0.91033  0.90862  1.0000
  H   H1916     1.0  0.96157  0.88492  0.80994  1.0000
  H   H1917     1.0  0.95709  0.98472  0.90235  1.0000
  H   H1918     1.0  0.88854  0.69083  0.50437  1.0000
  S   S251      1.0  0.55761  0.68652  0.98852  1.0000
  H   H1919     1.0  0.99333  0.96144  0.73943  1.0000
  S   S252      1.0  0.67245  0.96912  0.55932  1.0000
  H   H1920     1.0  0.93539  0.84584  0.80095  1.0000
  C   C1091     1.0  0.95597  0.88119  0.78945  1.0000
  S   S253      1.0  0.71054  0.97440  0.62825  1.0000
  H   H1921     1.0  0.62417  0.67788  0.98824  1.0000
  H   H1922     1.0  0.96977  0.84120  0.79193  1.0000
  C   C1092     1.0  0.95151  0.85207  0.78706  1.0000
  H   H1923     1.0  0.97606  0.72652  0.86599  1.0000
  C   C1093     1.0  0.86309  0.69038  0.53942  1.0000
  H   H1924     1.0  0.79815  0.94857  0.93260  1.0000
  H   H1925     1.0  0.93708  0.97547  0.76042  1.0000
  H   H1926     1.0  0.76960  0.98175  0.63542  1.0000
  H   H1927     1.0  0.63280  0.69702  0.93123  1.0000
  H   H1928     1.0  0.73833  0.96685  0.67613  1.0000
  H   H1929     1.0  0.79837  0.95756  0.97940  1.0000
  H   H1930     1.0  0.86930  0.94157  0.90707  1.0000
  H   H1931     1.0  0.92517  0.89171  0.76281  1.0000
  H   H1932     1.0  0.95696  0.96830  0.94758  1.0000
  H   H1933     1.0  0.92158  0.90430  0.83594  1.0000
  C   C1094     1.0  0.99073  0.97801  0.99306  1.0000
  H   H1934     1.0  0.58065  0.81217  0.97603  1.0000
  H   H1935     1.0  0.95788  0.92192  0.86191  1.0000
  C   C1095     1.0  0.85600  0.94134  0.78574  1.0000
  C   C1096     1.0  0.54877  0.97582  0.58537  1.0000
  H   H1936     1.0  0.95584  0.76367  0.84342  1.0000
  H   H1937     1.0  0.65517  0.68312  0.97117  1.0000
  H   H1938     1.0  0.94959  0.94515  0.99088  1.0000
  C   C1097     1.0  0.86890  0.98462  0.94005  1.0000
  H   H1939     1.0  0.53548  0.96707  0.54673  1.0000
  H   H1940     1.0  0.85602  0.95686  0.80082  1.0000
  H   H1941     1.0  0.82654  0.98383  0.93599  1.0000
  H   H1942     1.0  0.81352  0.92679  0.98668  1.0000
  H   H1943     1.0  0.86410  0.95359  0.85906  1.0000
  H   H1944     1.0  0.62053  0.71530  0.95957  1.0000
  C   C1098     1.0  0.61567  0.98618  0.66366  1.0000
  C   C1099     1.0  0.97874  0.72765  0.84422  1.0000
  C   C1100     1.0  0.55128  0.74420  0.94776  1.0000
  C   C1101     1.0  0.93072  0.89702  0.78309  1.0000
  H   H1945     1.0  0.96213  0.92851  0.81420  1.0000
  C   C1102     1.0  0.81159  0.93585  0.94390  1.0000
  H   H1946     1.0  0.84407  0.91864  0.90528  1.0000
  H   H1947     1.0  0.77559  0.97619  0.60069  1.0000
  H   H1948     1.0  0.97777  0.75873  0.81495  1.0000
  H   H1949     1.0  0.94666  0.84701  0.76659  1.0000
  H   H1950     1.0  0.90433  0.95850  0.78896  1.0000
  H   H1951     1.0  0.87045  0.70905  0.54680  1.0000
  Fe  Fe127     1.0  0.70254  0.97691  0.52634  1.0000
  N   N61       1.0  0.93227  0.92619  0.78532  1.0000
  C   C1103     1.0  0.80061  0.93709  0.97287  1.0000
  C   C1104     1.0  0.87652  0.88475  0.97104  1.0000
  C   C1105     1.0  0.96541  0.98761  0.94375  1.0000
  C   C1106     1.0  0.88064  0.92407  0.78758  1.0000
  C   C1107     1.0  0.62145  0.69575  0.95035  1.0000
  H   H1952     1.0  0.64909  0.94832  0.51119  1.0000
  H   H1953     1.0  0.58397  0.85620  0.95651  1.0000
  H   H1954     1.0  0.53737  0.72926  0.95519  1.0000
  H   H1955     1.0  0.52406  0.77514  0.95772  1.0000
  H   H1956     1.0  0.90745  0.75090  0.99877  1.0000
  C   C1108     1.0  0.90599  0.93903  0.77957  1.0000
  H   H1957     1.0  0.75018  0.98364  0.96249  1.0000
  H   H1958     1.0  0.96460  0.96596  0.71982  1.0000
  H   H1959     1.0  0.76552  0.92662  0.99610  1.0000
  C   C1109     1.0  0.55023  0.97653  0.55780  1.0000
  H   H1960     1.0  0.83808  0.92967  0.78946  1.0000
  H   H1961     1.0  0.52763  0.81555  0.97551  1.0000
  H   H1962     1.0  0.91494  0.88923  0.79638  1.0000
  C   C1110     1.0  0.63945  0.96693  0.66085  1.0000
  C   C1111     1.0  0.92467  0.92550  0.83618  1.0000
  H   H1963     1.0  0.97234  0.92692  0.76843  1.0000
  H   H1964     1.0  0.77487  0.90390  0.97041  1.0000
  H   H1965     1.0  0.64665  0.96403  0.68097  1.0000
  C   C1112     1.0  0.54486  0.77016  0.96125  1.0000
  H   H1966     1.0  0.83161  0.96106  0.84787  1.0000
  C   C1113     1.0  0.93341  0.95929  0.99568  1.0000
  H   H1967     1.0  0.92329  0.96428  0.97735  1.0000
  H   H1968     1.0  0.59935  0.97764  0.67580  1.0000
  C   C1114     1.0  0.56431  0.84832  0.96205  1.0000
  C   C1115     1.0  0.95605  0.96474  0.76228  1.0000
  H   H1969     1.0  0.83970  0.92846  0.85786  1.0000
  H   H1970     1.0  0.94082  0.95298  0.86350  1.0000
  H   H1971     1.0  0.85607  0.93475  0.97715  1.0000
  H   H1972     1.0  0.96504  0.68584  0.87258  1.0000
  C   C1116     1.0  0.99353  0.67356  0.82162  1.0000
  H   H1973     1.0  0.94738  0.92758  0.74482  1.0000
  H   H1974     1.0  0.60105  0.68974  0.94668  1.0000
  H   H1975     1.0  0.90533  0.93590  0.83696  1.0000
  H   H1976     1.0  0.96285  0.71705  0.83486  1.0000
  S   S254      1.0  0.52219  0.96116  0.60272  1.0000
  C   C1117     1.0  0.97566  0.75626  0.83669  1.0000
  C   C1118     1.0  0.72698  0.98476  0.67833  1.0000
  H   H1977     1.0  0.73026  0.98023  0.91865  1.0000
  H   H1978     1.0  0.87564  0.89128  0.99188  1.0000
  C   C1119     1.0  0.84174  0.97217  0.94605  1.0000
  H   H1979     1.0  0.89638  0.88863  0.96210  1.0000
  N   N62       1.0  0.63437  0.94142  0.64759  1.0000
  H   H1980     1.0  0.85672  0.89094  0.93514  1.0000
  C   C1120     1.0  0.65940  0.92497  0.64580  1.0000
  C   C1121     1.0  0.62633  0.94746  0.61982  1.0000
  C   C1122     1.0  0.61197  0.92709  0.66115  1.0000
  C   C1123     1.0  0.61481  0.92029  0.69058  1.0000
  C   C1124     1.0  0.83325  0.95612  0.89018  1.0000
  C   C1125     1.0  0.62668  0.92421  0.60027  1.0000
  C   C1126     1.0  0.67773  0.92556  0.66956  1.0000
  C   C1127     1.0  0.70065  0.90609  0.66584  1.0000
  C   C1128     1.0  0.58857  0.91163  0.70320  1.0000
  C   C1129     1.0  0.56870  0.98721  0.59942  1.0000
  C   C1130     1.0  0.61126  0.93071  0.57579  1.0000
  H   H1981     1.0  0.88442  0.97487  0.95140  1.0000
  H   H1982     1.0  0.73935  0.99164  0.71805  1.0000
  H   H1983     1.0  0.65469  0.90436  0.64186  1.0000
  H   H1984     1.0  0.67216  0.93136  0.62868  1.0000
  H   H1985     1.0  0.63926  0.96250  0.61061  1.0000
  H   H1986     1.0  0.60609  0.95597  0.62018  1.0000
  H   H1987     1.0  0.59305  0.93809  0.65915  1.0000
  H   H1988     1.0  0.60878  0.90835  0.65114  1.0000
  H   H1989     1.0  0.62139  0.93696  0.70216  1.0000
  H   H1990     1.0  0.62897  0.90378  0.69238  1.0000
  C   C1131     1.0  0.98762  0.89010  0.90351  1.0000
  H   H1991     1.0  0.83706  0.97519  0.96739  1.0000
  H   H1992     1.0  0.61797  0.90664  0.60930  1.0000
  H   H1993     1.0  0.64729  0.91926  0.59363  1.0000
  H   H1994     1.0  0.68646  0.94498  0.67135  1.0000
  H   H1995     1.0  0.66733  0.92130  0.68852  1.0000
  H   H1996     1.0  0.69329  0.88600  0.66471  1.0000
  H   H1997     1.0  0.71252  0.91058  0.64756  1.0000
  H   H1998     1.0  0.71370  0.90731  0.68280  1.0000
  H   H1999     1.0  0.58110  0.89461  0.69260  1.0000
  H   H2000     1.0  0.59131  0.90602  0.72406  1.0000
  H   H2001     1.0  0.57365  0.92768  0.70286  1.0000
  H   H2002     1.0  0.75948  0.93477  0.96235  1.0000
  C   C1132     1.0  0.94129  0.93463  0.81184  1.0000
  H   H2003     1.0  0.85841  0.67766  0.55661  1.0000
  H   H2004     1.0  0.61852  0.94871  0.56619  1.0000
  H   H2005     1.0  0.61353  0.91460  0.56135  1.0000
  H   H2006     1.0  0.58995  0.93336  0.58117  1.0000
  N   N63       1.0  0.83980  0.94388  0.93921  1.0000
  C   C1133     1.0  0.84771  0.93912  0.91061  1.0000
  H   H2007     1.0  0.98125  0.88534  0.88345  1.0000
  H   H2008     1.0  0.90231  0.67518  0.53245  1.0000
  H   H2009     1.0  0.87341  0.86349  0.97085  1.0000
  C   C1134     1.0  0.63481  0.67654  0.96872  1.0000
  H   H2010     1.0  0.55612  0.83964  0.94421  1.0000
  C   C1135     1.0  0.75853  0.99410  0.94576  1.0000
  C   C1136     1.0  0.85514  0.89849  0.95556  1.0000
  H   H2011     1.0  0.85501  0.95037  0.76590  1.0000
  H   H2012     1.0  0.88096  0.91650  0.80797  1.0000
  C   C1137     1.0  0.84285  0.94927  0.86207  1.0000
  H   H2013     1.0  0.57181  0.73772  0.95136  1.0000
  H   H2014     1.0  0.92603  0.92503  0.87889  1.0000
  H   H2015     1.0  0.87469  0.98349  0.91876  1.0000
  H   H2016     1.0  0.57165  0.99019  0.52311  1.0000
  H   H2017     1.0  0.55719  0.78495  0.95111  1.0000
  H   H2018     1.0  0.80880  0.91592  0.93623  1.0000
  H   H2019     1.0  0.87902  0.93227  0.95013  1.0000
  C   C1138     1.0  0.57099  0.98926  0.54442  1.0000
  C   C1139     1.0  0.97966  0.66997  0.90829  1.0000
  H   H2020     1.0  0.60833  0.99163  0.64414  1.0000
  H   H2021     1.0  0.83677  0.97706  0.89308  1.0000
  C   C1140     1.0  0.93824  0.93174  0.86165  1.0000
  H   H2022     1.0  0.65569  0.97704  0.64983  1.0000
  H   H2023     1.0  0.90454  0.94280  0.75803  1.0000
  H   H2024     1.0  0.54909  0.74616  0.92618  1.0000
  H   H2025     1.0  0.83580  0.89281  0.96453  1.0000
  H   H2026     1.0  0.97775  0.87669  0.91777  1.0000
  H   H2027     1.0  0.94133  0.95620  0.81319  1.0000
  C   C1141     1.0  0.98085  0.67216  0.87824  1.0000
  C   C1142     1.0  0.85816  0.92840  0.95616  1.0000
  H   H2028     1.0  0.87856  0.90738  0.77404  1.0000
  S   S255      1.0  0.99263  0.98535  0.85363  1.0000
  C   C1143     1.0  0.95239  0.93500  0.76457  1.0000
  Fe  Fe128     1.0  0.69954  0.98847  0.58727  1.0000
  H   H2029     1.0  0.98308  0.68913  0.91740  1.0000
  H   H2030     1.0  0.91684  0.84210  0.98708  1.0000
  H   H2031     1.0  0.98698  0.98507  0.93945  1.0000
  H   H2032     1.0  0.97716  0.99276  0.73797  1.0000
  H   H2033     1.0  0.94598  0.82444  0.99645  1.0000
  H   H2034     1.0  0.56738  0.98701  0.62072  1.0000
  C   C1144     1.0  0.74720  0.99231  0.92086  1.0000
  H   H2035     1.0  0.97277  0.88586  0.77574  1.0000
  S   S256      1.0  0.73139  0.99154  0.55520  1.0000
  C   C1145     1.0  0.77941  0.98953  0.61720  1.0000
  H   H2036     1.0  0.99072  0.76805  0.84617  1.0000
  H   H2037     1.0  0.97259  0.67621  0.82818  1.0000
  H   H2038     1.0  0.96572  0.97186  0.77994  1.0000
  H   H2039     1.0  0.98839  0.96243  0.97843  1.0000
  H   H2040     1.0  0.99073  0.67446  0.73465  1.0000
  C   C1146     1.0  0.77346  0.92484  0.97547  1.0000
  H   H2041     1.0  0.84484  0.69444  0.52868  1.0000
  C   C1147     1.0  0.97386  0.97152  0.73835  1.0000
  H   H2042     1.0  0.55121  0.86458  0.96916  1.0000
  H   H2043     1.0  0.99465  0.68168  0.80121  1.0000
  C   C1148     1.0  0.71179  0.99361  0.65742  1.0000
  H   H2044     1.0  0.80099  0.99000  0.61978  1.0000
  C   C1149     1.0  0.88415  0.67754  0.52113  1.0000
  H   H2045     1.0  0.62329  0.97166  0.50478  1.0000
  C   C1150     1.0  0.56711  0.82785  0.98362  1.0000
  H   H2046     1.0  0.75372  0.87518  0.50258  1.0000
  H   H2047     1.0  0.57238  0.76634  0.99194  1.0000
  C   C1151     1.0  0.55058  0.76907  0.99108  1.0000
  N   N64       1.0  0.96712  0.99641  0.99460  1.0000
  C   C1152     1.0  0.53993  0.81711  0.99296  1.0000
  H   H2048     1.0  0.54252  0.75058  0.99914  1.0000
