data_image0
_chemical_formula_structural       FeS2FeS2FeSFeS4CSHSH2C6H4C3HC2H3C3H4C7H7CH2CHCH7C3HCH3CNC4SHCH18CH3CHC3HCHCH2CFeH5CH7SC2H8CHCH2CHCHCH4CHSFeS2FeS2FeSFeS3HSH2SFeSFeSH2CHS2H2FeSH2C3HCH3C8H4CHCHC2HCHC6H5CHSH2FeH2CH3CH3FeH4CH3CHCH2C2HCH5NH2C3H12CSC2FeH3SHCFeC2H4CHCH4C3HCH5C3H4CHNH3C2H2CH3C2NH2C2H7CH2CNH2C2H5CHC2H4NC2H2C3H2CH4C4HCH2CH2CH5C2HCHFeS2FeS2FeSFeS3CHSH3C7H4C2H3CH4C2HCH2C7H5NC3HNC7H7C3H9CH8CH2C2H4CH4CH6CH2CH4CSCHCH2CH2C2H2SCH3CHC3H8CH6CH5CH5FeHFeHC4SHC2FeS2FeS2FeSFeS3HSH3C2FeS2H3SH2NFeS2HCH7C8H4C3H2CH3C6H5C2H6CH3C2H2NH3CH5CNH2CH3C2SHC3H5CH3CHCHCH4FeCNH4CHCHCH2CH2CHCH5C2SNCH3CH3C2H3CH2C2H3SHCNH3CH3CHNH2CH5CH4C3H2SCH3CFeH3CH2CH2SCH3C2HCH2CHCH2C3H5CHCSH4CH3C2H2CHFeHC2H2C8H5CNHCFeH3CH2SH3CH8CH3S2CHCFeH2C6H2SHCH4CSH2SC2H4FeSC3H2C2H2FeCH3CH2C2NH4CHCH3CHC2H3CSHSH2C2H2C2H5C2HCH7NC2H2CHCSH2SH2SH2FeHCHCHCH2CH2CHC3H2FeSC2HCNCHC4HSH2SFeSFeSH4SH2CFeSCHC3HC2H3C2H3C2H3SCH2SH4CFeH3S2C5FeHCHC2HCNHSHC2HCH4CH2CHCHC2H2CH2CHCFeH2C3HC2HCH4CH6CHCH5SCHNH2CH3CHC2H2SH9CHFeCNCHCH2CHCH4C2H3CH5CHNCHC2HCH2CHCHCH7SCH2C2SH2CSC2H3CHC4H5C3H2C2HCHFeH7C2H4CH11CHCHSC2H2CH2SHSHCNSH2CH3CHCH5SCH4NH4C2HCHC3HNFeH4CHCFeS2C2H2SCSC2HSH2FeCH5FeHCH2CSC3HCH2NHCH3C2H5C2H2CHC2H2CHCH4C2HC2H4CHNC2H3CH4CH5CHFeC2H2FeH2SFeH2C3S2H5CSH6CSCH2C4FeCHSNFeHCSCH2CH6C2H3C2H2C3H2CFeHC2HC2H3CH2CHSHFeHCS4HSFeS2HNHCH3CSHCH5C6H4C2H2C2H3C2H3CSHSHC2H12CH2CHCH3NC3H3NSH4C2H3CHCH2SHCH2CH5CH3CH2CH4CHCH2SCFeCHFeHCFeCH3CH2CH3CHCH3CHCHCH3C2H3CHC2HCHCHC2H3FeSH2SHFeSFeS2HFeS2H5NHCH4C6H4NHC4HCHCHCHCH2C2HCH5C7HCHNH4C2H3CH6C3H2C2FeHCH4CH9CH3CH4C2HCH5S2H6CH3C2H2SHC2H2CHNCH7C2HCHSH5CFeCHCH2SHCHC3FeH3CH2CH7FeCH2C2H2CFeS2HSHFeHSFeCH2CS2HCHC6H5CHC4H6C2H2SCH4CH4CH3NH3CH2CH3SHC2NHCH2CHCH2C3HC2H4CSHCHCSH3FeCH7C3H3C2HCHFeH2CHCH4CH2CH3C2H4FeSHFeSHFeSFeS2CFeS3HCH4CSHCHC6H4CHC2HC3FeH2C2H2CH9C4H5FeHCHCH3CH2CSCH2SH5CH2C2SH2NHCHCH2CNH3C2H4CHSCH2CHCHC2HCH
_chemical_formula_sum              "Fe80 S160 C720 H1280 N40"
_cell_length_a       63.0393
_cell_length_b       63.0912
_cell_length_c       28.9846
_cell_angle_alpha    88.7413
_cell_angle_beta     88.5701
_cell_angle_gamma    123.441

_space_group_name_H-M_alt    "P 1"
_space_group_IT_number       1

loop_
  _space_group_symop_operation_xyz
  'x, y, z'

loop_
  _atom_site_type_symbol
  _atom_site_label
  _atom_site_symmetry_multiplicity
  _atom_site_fract_x
  _atom_site_fract_y
  _atom_site_fract_z
  _atom_site_occupancy
  Fe  Fe1       1.0  0.15827  0.32777  0.27264  1.0000
  S   S1        1.0  0.16660  0.36334  0.23421  1.0000
  S   S2        1.0  0.15429  0.31737  0.35122  1.0000
  Fe  Fe2       1.0  0.15646  0.30239  0.18038  1.0000
  S   S3        1.0  0.16526  0.33620  0.13638  1.0000
  S   S4        1.0  0.15549  0.26898  0.14987  1.0000
  Fe  Fe3       1.0  0.19380  0.35934  0.18891  1.0000
  S   S5        1.0  0.23318  0.39355  0.16827  1.0000
  Fe  Fe4       1.0  0.13743  0.33747  0.18417  1.0000
  S   S6        1.0  0.10588  0.33989  0.15332  1.0000
  S   S7        1.0  0.18735  0.32563  0.22961  1.0000
  S   S8        1.0  0.12669  0.30182  0.22561  1.0000
  S   S9        1.0  0.07088  0.19179  0.01540  1.0000
  C   C1        1.0  0.09024  0.28956  0.46259  1.0000
  S   S10       1.0  0.11724  0.43532  0.04652  1.0000
  H   H1        1.0  0.17154  0.23904  0.02607  1.0000
  S   S11       1.0  0.09728  0.09842  0.99365  1.0000
  H   H2        1.0  0.28038  0.41191  0.32751  1.0000
  H   H3        1.0  0.21704  0.32134  0.37008  1.0000
  C   C2        1.0  0.10994  0.36642  0.12191  1.0000
  C   C3        1.0  0.13333  0.38989  0.11815  1.0000
  C   C4        1.0  0.13534  0.41077  0.09463  1.0000
  C   C5        1.0  0.11415  0.40828  0.07394  1.0000
  C   C6        1.0  0.09099  0.38460  0.07649  1.0000
  C   C7        1.0  0.08887  0.36387  0.10071  1.0000
  H   H4        1.0  0.14968  0.39212  0.13439  1.0000
  H   H5        1.0  0.15331  0.42904  0.09294  1.0000
  H   H6        1.0  0.07452  0.38247  0.06103  1.0000
  H   H7        1.0  0.07069  0.34580  0.10359  1.0000
  C   C8        1.0  0.25483  0.38946  0.13632  1.0000
  C   C9        1.0  0.25082  0.36547  0.13216  1.0000
  C   C10       1.0  0.26902  0.36304  0.10815  1.0000
  H   H8        1.0  0.20809  0.36241  0.32766  1.0000
  C   C11       1.0  0.24103  0.34809  0.31136  1.0000
  C   C12       1.0  0.27687  0.41086  0.11553  1.0000
  H   H9        1.0  0.23388  0.34885  0.14801  1.0000
  H   H10       1.0  0.26594  0.34446  0.10559  1.0000
  H   H11       1.0  0.15720  0.29726  0.43905  1.0000
  C   C13       1.0  0.21367  0.40850  0.30275  1.0000
  C   C14       1.0  0.16521  0.33191  0.40552  1.0000
  C   C15       1.0  0.17415  0.35739  0.41227  1.0000
  H   H12       1.0  0.28738  0.25897  0.06548  1.0000
  H   H13       1.0  0.05671  0.28422  0.43064  1.0000
  H   H14       1.0  0.17493  0.36912  0.38369  1.0000
  H   H15       1.0  0.26138  0.41072  0.39756  1.0000
  C   C16       1.0  0.02345  0.97540  0.05050  1.0000
  C   C17       1.0  0.13136  0.24739  0.11354  1.0000
  C   C18       1.0  0.13131  0.22630  0.09875  1.0000
  C   C19       1.0  0.11283  0.20904  0.06892  1.0000
  C   C20       1.0  0.09434  0.21286  0.05325  1.0000
  C   C21       1.0  0.09435  0.23394  0.06811  1.0000
  C   C22       1.0  0.11274  0.25112  0.09818  1.0000
  H   H16       1.0  0.14552  0.22316  0.11074  1.0000
  H   H17       1.0  0.11268  0.19261  0.05847  1.0000
  H   H18       1.0  0.07993  0.23687  0.05655  1.0000
  H   H19       1.0  0.11247  0.26716  0.10971  1.0000
  H   H20       1.0  0.21745  0.40971  0.26478  1.0000
  H   H21       1.0  0.22926  0.29796  0.32015  1.0000
  H   H22       1.0  0.07904  0.28469  0.05456  1.0000
  C   C23       1.0  0.16392  0.31695  0.44372  1.0000
  H   H23       1.0  0.22627  0.40187  0.36575  1.0000
  H   H24       1.0  0.22956  0.33233  0.98673  1.0000
  C   C24       1.0  0.18105  0.36747  0.45661  1.0000
  H   H25       1.0  0.03916  0.33625  0.02313  1.0000
  C   C25       1.0  0.27699  0.39880  0.25904  1.0000
  H   H26       1.0  0.96421  0.43065  0.02157  1.0000
  H   H27       1.0  0.25214  0.35759  0.39385  1.0000
  H   H28       1.0  0.09248  0.05305  0.02919  1.0000
  H   H29       1.0  0.19966  0.32357  0.32455  1.0000
  H   H30       1.0  0.22622  0.37664  0.27587  1.0000
  H   H31       1.0  0.16705  0.19782  0.02380  1.0000
  H   H32       1.0  0.21711  0.42693  0.31323  1.0000
  C   C26       1.0  0.24595  0.37032  0.38261  1.0000
  C   C27       1.0  0.19834  0.39345  0.06181  1.0000
  C   C28       1.0  0.23114  0.40304  0.32831  1.0000
  H   H33       1.0  0.23861  0.34792  0.27345  1.0000
  C   C29       1.0  0.03280  0.32730  0.98929  1.0000
  H   H34       1.0  0.15562  0.26241  0.01720  1.0000
  H   H35       1.0  0.99313  0.98017  0.99937  1.0000
  H   H36       1.0  0.10587  0.30506  0.08866  1.0000
  C   C30       1.0  0.16677  0.31090  0.03036  1.0000
  N   N1        1.0  0.24707  0.37292  0.33035  1.0000
  C   C31       1.0  0.29105  0.38444  0.08723  1.0000
  C   C32       1.0  0.22042  0.39388  0.03742  1.0000
  C   C33       1.0  0.25617  0.37345  0.98809  1.0000
  C   C34       1.0  0.16688  0.27622  0.98792  1.0000
  S   S12       1.0  0.07124  0.45649  0.99701  1.0000
  H   H37       1.0  0.28734  0.38854  0.32289  1.0000
  C   C35       1.0  0.22744  0.37772  0.31411  1.0000
  H   H38       1.0  0.00858  0.05354  0.05895  1.0000
  H   H39       1.0  0.28014  0.42948  0.11878  1.0000
  H   H40       1.0  0.26570  0.40646  0.24777  1.0000
  H   H41       1.0  0.10359  0.28369  0.45527  1.0000
  H   H42       1.0  0.24978  0.37419  0.02346  1.0000
  H   H43       1.0  0.27108  0.38152  0.23981  1.0000
  H   H44       1.0  0.26027  0.34263  0.00817  1.0000
  H   H45       1.0  0.20037  0.41199  0.05657  1.0000
  H   H46       1.0  0.19829  0.39000  0.09951  1.0000
  H   H47       1.0  0.19345  0.39343  0.31148  1.0000
  H   H48       1.0  0.05951  0.25715  0.42792  1.0000
  H   H49       1.0  0.12427  0.33912  0.02939  1.0000
  H   H50       1.0  0.18785  0.32268  0.03143  1.0000
  H   H51       1.0  0.15877  0.29845  0.06222  1.0000
  H   H52       1.0  0.19521  0.28262  0.32546  1.0000
  H   H53       1.0  0.25085  0.41950  0.32065  1.0000
  H   H54       1.0  0.22586  0.36085  0.39626  1.0000
  H   H55       1.0  0.23806  0.40841  0.05388  1.0000
  C   C36       1.0  0.25550  0.38996  0.46124  1.0000
  H   H56       1.0  0.21227  0.30054  0.27318  1.0000
  H   H57       1.0  0.23566  0.38469  0.46756  1.0000
  H   H58       1.0  0.28375  0.28509  0.05574  1.0000
  C   C37       1.0  0.01973  0.05528  0.02719  1.0000
  H   H59       1.0  0.15990  0.32377  0.02987  1.0000
  C   C38       1.0  0.26279  0.39482  0.40957  1.0000
  C   C39       1.0  0.10398  0.32363  0.02627  1.0000
  C   C40       1.0  0.09958  0.30019  0.05280  1.0000
  H   H60       1.0  0.09175  0.32889  0.04347  1.0000
  C   C41       1.0  0.27359  0.39340  0.31219  1.0000
  H   H61       1.0  0.04005  0.06460  0.03559  1.0000
  C   C42       1.0  0.15823  0.29493  0.98757  1.0000
  H   H62       1.0  0.25718  0.34585  0.31636  1.0000
  H   H63       1.0  0.11052  0.29319  0.03622  1.0000
  C   C43       1.0  0.21327  0.29978  0.31134  1.0000
  Fe  Fe5       1.0  0.08820  0.43289  0.99799  1.0000
  H   H64       1.0  0.25720  0.44911  0.00478  1.0000
  H   H65       1.0  0.29331  0.28021  0.11129  1.0000
  H   H66       1.0  0.18712  0.28676  0.99782  1.0000
  H   H67       1.0  0.27159  0.41852  0.01069  1.0000
  H   H68       1.0  0.21707  0.37486  0.04384  1.0000
  C   C44       1.0  0.21665  0.32349  0.33210  1.0000
  H   H69       1.0  0.17979  0.37805  0.04900  1.0000
  H   H70       1.0  0.04893  0.30511  0.99513  1.0000
  H   H71       1.0  0.07973  0.28509  0.39110  1.0000
  H   H72       1.0  0.10088  0.31055  0.45764  1.0000
  H   H73       1.0  0.18732  0.38703  0.46139  1.0000
  H   H74       1.0  0.25710  0.37441  0.47542  1.0000
  H   H75       1.0  0.16215  0.41901  0.99845  1.0000
  S   S13       1.0  0.99877  0.41551  0.00144  1.0000
  C   C45       1.0  0.22138  0.39965  0.98496  1.0000
  C   C46       1.0  0.07020  0.27824  0.42602  1.0000
  H   H76       1.0  0.01553  0.98338  0.07376  1.0000
  H   H77       1.0  0.09510  0.01931  0.99213  1.0000
  H   H78       1.0  0.28307  0.40116  0.40523  1.0000
  H   H79       1.0  0.08317  0.35135  0.99889  1.0000
  H   H80       1.0  0.01063  0.01750  0.03625  1.0000
  H   H81       1.0  0.12675  0.37464  0.01352  1.0000
  H   H82       1.0  0.01309  0.31025  0.99424  1.0000
  H   H83       1.0  0.96673  0.97602  0.06747  1.0000
  C   C47       1.0  0.17503  0.21111  0.99297  1.0000
  H   H84       1.0  0.19611  0.22243  0.99364  1.0000
  C   C48       1.0  0.16523  0.22852  0.99372  1.0000
  H   H85       1.0  0.13713  0.28401  0.98815  1.0000
  H   H86       1.0  0.14420  0.21644  0.99467  1.0000
  C   C49       1.0  0.09658  0.05443  0.99238  1.0000
  H   H87       1.0  0.03984  0.97675  0.06704  1.0000
  C   C50       1.0  0.03229  0.99021  0.00399  1.0000
  H   H88       1.0  0.04541  0.01046  0.01148  1.0000
  C   C51       1.0  0.00937  0.02907  0.00845  1.0000
  H   H89       1.0  0.01807  0.06733  0.00118  1.0000
  H   H90       1.0  0.26835  0.40746  0.47998  1.0000
  H   H91       1.0  0.98905  0.02043  0.00116  1.0000
  H   H92       1.0  0.04344  0.98434  0.98412  1.0000
  C   C52       1.0  0.27287  0.45104  0.98273  1.0000
  H   H93       1.0  0.27722  0.38689  0.98507  1.0000
  S   S14       1.0  0.05179  0.12051  0.98328  1.0000
  Fe  Fe6       1.0  0.16888  0.36839  0.72246  1.0000
  S   S15       1.0  0.20487  0.38095  0.68039  1.0000
  S   S16       1.0  0.16659  0.39741  0.76393  1.0000
  Fe  Fe7       1.0  0.14677  0.31266  0.70527  1.0000
  S   S17       1.0  0.18083  0.32076  0.66221  1.0000
  S   S18       1.0  0.11144  0.27398  0.72423  1.0000
  Fe  Fe8       1.0  0.20334  0.34842  0.71714  1.0000
  S   S19       1.0  0.23485  0.34762  0.75170  1.0000
  Fe  Fe9       1.0  0.17940  0.35248  0.62816  1.0000
  S   S20       1.0  0.18654  0.36579  0.55088  1.0000
  S   S21       1.0  0.16926  0.33775  0.76228  1.0000
  S   S22       1.0  0.14351  0.34252  0.66823  1.0000
  H   H94       1.0  0.08336  0.29149  0.83375  1.0000
  S   S23       1.0  0.07831  0.12125  0.88200  1.0000
  H   H95       1.0  0.17226  0.23538  0.92048  1.0000
  H   H96       1.0  0.07247  0.99030  0.60842  1.0000
  S   S24       1.0  0.06114  0.16102  0.90024  1.0000
  Fe  Fe10      1.0  0.04312  0.11879  0.90844  1.0000
  S   S25       1.0  0.00633  0.08786  0.87771  1.0000
  Fe  Fe11      1.0  0.09717  0.16382  0.88073  1.0000
  S   S26       1.0  0.12628  0.19303  0.82706  1.0000
  H   H97       1.0  0.25401  0.38195  0.91787  1.0000
  H   H98       1.0  0.04735  0.41132  0.74292  1.0000
  C   C53       1.0  0.09813  0.03531  0.97147  1.0000
  H   H99       1.0  0.20319  0.38317  0.89721  1.0000
  S   S27       1.0  0.04791  0.43070  0.89672  1.0000
  S   S28       1.0  0.10465  0.01293  0.89549  1.0000
  H   H100      1.0  0.14941  0.26863  0.55264  1.0000
  H   H101      1.0  0.21006  0.41814  0.84721  1.0000
  Fe  Fe12      1.0  0.06721  0.40975  0.90695  1.0000
  S   S29       1.0  0.06600  0.38161  0.85732  1.0000
  H   H102      1.0  0.13585  0.36573  0.50428  1.0000
  H   H103      1.0  0.11319  0.31234  0.80224  1.0000
  C   C54       1.0  0.10554  0.07686  0.91848  1.0000
  C   C55       1.0  0.10789  0.05818  0.89783  1.0000
  C   C56       1.0  0.10371  0.03706  0.92398  1.0000
  H   H104      1.0  0.05394  0.41459  0.80332  1.0000
  C   C57       1.0  0.13602  0.24451  0.93423  1.0000
  H   H105      1.0  0.28825  0.42257  0.62311  1.0000
  H   H106      1.0  0.10849  0.09284  0.89783  1.0000
  H   H107      1.0  0.14795  0.02601  0.82634  1.0000
  C   C58       1.0  0.21855  0.40749  0.83634  1.0000
  C   C59       1.0  0.98219  0.06238  0.91323  1.0000
  C   C60       1.0  0.09404  0.38564  0.83252  1.0000
  C   C61       1.0  0.11797  0.40315  0.84916  1.0000
  C   C62       1.0  0.13999  0.40638  0.82806  1.0000
  C   C63       1.0  0.13826  0.39166  0.79086  1.0000
  C   C64       1.0  0.11426  0.37358  0.77506  1.0000
  C   C65       1.0  0.09226  0.37069  0.79570  1.0000
  H   H108      1.0  0.11949  0.41400  0.87865  1.0000
  H   H109      1.0  0.15847  0.42032  0.84069  1.0000
  H   H110      1.0  0.11268  0.36219  0.74635  1.0000
  H   H111      1.0  0.07378  0.35690  0.78286  1.0000
  C   C66       1.0  0.25595  0.37235  0.78720  1.0000
  H   H112      1.0  0.07820  0.35746  0.94171  1.0000
  C   C67       1.0  0.08081  0.28317  0.59643  1.0000
  H   H113      1.0  0.01301  0.45406  0.85922  1.0000
  C   C68       1.0  0.09988  0.07509  0.96593  1.0000
  C   C69       1.0  0.26937  0.36792  0.81979  1.0000
  H   H114      1.0  0.23704  0.42081  0.81751  1.0000
  C   C70       1.0  0.04821  0.25063  0.65607  1.0000
  H   H115      1.0  0.26506  0.34890  0.82553  1.0000
  C   C71       1.0  0.11564  0.25148  0.75246  1.0000
  C   C72       1.0  0.13881  0.25341  0.74851  1.0000
  C   C73       1.0  0.14150  0.23492  0.77040  1.0000
  C   C74       1.0  0.12139  0.21484  0.79769  1.0000
  C   C75       1.0  0.09818  0.21286  0.80138  1.0000
  C   C76       1.0  0.09527  0.23099  0.77856  1.0000
  H   H116      1.0  0.15455  0.26894  0.72807  1.0000
  H   H117      1.0  0.15938  0.23639  0.76677  1.0000
  H   H118      1.0  0.08239  0.19725  0.82144  1.0000
  H   H119      1.0  0.07720  0.22921  0.78146  1.0000
  H   H120      1.0  0.15265  0.43037  0.69880  1.0000
  C   C77       1.0  0.97785  0.06549  0.95940  1.0000
  H   H121      1.0  0.17017  0.31535  0.51660  1.0000
  S   S30       1.0  0.05171  0.39710  0.98028  1.0000
  H   H122      1.0  0.27372  0.46010  0.94888  1.0000
  H   H123      1.0  0.98996  0.08376  0.97446  1.0000
  Fe  Fe13      1.0  0.07347  0.16316  0.97319  1.0000
  H   H124      1.0  0.04502  0.04009  0.97309  1.0000
  H   H125      1.0  0.12450  0.23621  0.96726  1.0000
  C   C78       1.0  0.22188  0.39460  0.87821  1.0000
  H   H126      1.0  0.16619  0.30845  0.95728  1.0000
  H   H127      1.0  0.02322  0.45654  0.91752  1.0000
  H   H128      1.0  0.07861  0.00965  0.65749  1.0000
  C   C79       1.0  0.24363  0.38055  0.95074  1.0000
  H   H129      1.0  0.05606  0.98217  0.76185  1.0000
  H   H130      1.0  0.04879  0.24414  0.58387  1.0000
  H   H131      1.0  0.22369  0.36403  0.94749  1.0000
  Fe  Fe14      1.0  0.08764  0.12418  0.95660  1.0000
  H   H132      1.0  0.11741  0.37434  0.53776  1.0000
  H   H133      1.0  0.17081  0.39797  0.97736  1.0000
  H   H134      1.0  0.14349  0.00577  0.75197  1.0000
  H   H135      1.0  0.12811  0.32406  0.57596  1.0000
  C   C80       1.0  0.00947  0.98514  0.97552  1.0000
  H   H136      1.0  0.08621  0.24494  0.88418  1.0000
  H   H137      1.0  0.14113  0.44328  0.76918  1.0000
  H   H138      1.0  0.13930  0.36896  0.56599  1.0000
  C   C81       1.0  0.12554  0.36258  0.53802  1.0000
  H   H139      1.0  0.16894  0.19964  0.96165  1.0000
  C   C82       1.0  0.13027  0.38270  0.97779  1.0000
  H   H140      1.0  0.09467  0.00144  0.72791  1.0000
  H   H141      1.0  0.07374  0.24557  0.61547  1.0000
  C   C83       1.0  0.28032  0.33980  0.67396  1.0000
  C   C84       1.0  0.24316  0.41444  0.90904  1.0000
  H   H142      1.0  0.03580  0.23002  0.66576  1.0000
  C   C85       1.0  0.11512  0.31769  0.54685  1.0000
  H   H143      1.0  0.07088  0.02468  0.83666  1.0000
  H   H144      1.0  0.10400  0.99602  0.80143  1.0000
  H   H145      1.0  0.26161  0.42250  0.88917  1.0000
  H   H146      1.0  0.28537  0.42803  0.95404  1.0000
  H   H147      1.0  0.12767  0.32270  0.51549  1.0000
  N   N2        1.0  0.09751  0.33793  0.94575  1.0000
  H   H148      1.0  0.19579  0.98052  0.93713  1.0000
  H   H149      1.0  0.22678  0.38132  0.86518  1.0000
  C   C86       1.0  0.03484  0.00971  0.90608  1.0000
  C   C87       1.0  0.08303  0.44596  0.75832  1.0000
  C   C88       1.0  0.99050  0.99843  0.91883  1.0000
  H   H150      1.0  0.05262  0.01526  0.92325  1.0000
  H   H151      1.0  0.06391  0.04397  0.80177  1.0000
  H   H152      1.0  0.09376  0.29287  0.62525  1.0000
  H   H153      1.0  0.99460  0.98487  0.85175  1.0000
  H   H154      1.0  0.11261  0.05997  0.86123  1.0000
  H   H155      1.0  0.11711  0.27607  0.62324  1.0000
  H   H156      1.0  0.08456  0.33934  0.87775  1.0000
  H   H157      1.0  0.13868  0.35849  0.93989  1.0000
  H   H158      1.0  0.04141  0.01001  0.80719  1.0000
  H   H159      1.0  0.08830  0.21829  0.89904  1.0000
  H   H160      1.0  0.21937  0.41605  0.98085  1.0000
  H   H161      1.0  0.07228  0.30809  0.90038  1.0000
  C   C89       1.0  0.28156  0.41720  0.80323  1.0000
  S   S31       1.0  0.10388  0.44487  0.92483  1.0000
  C   C90       1.0  0.10423  0.33453  0.54607  1.0000
  C   C91       1.0  0.12730  0.28066  0.58915  1.0000
  Fe  Fe15      1.0  0.08349  0.46498  0.92216  1.0000
  H   H162      1.0  0.02603  0.03037  0.85488  1.0000
  H   H163      1.0  0.05588  0.04955  0.88116  1.0000
  H   H164      1.0  0.04292  0.31073  0.93693  1.0000
  S   S32       1.0  0.11013  0.16714  0.95341  1.0000
  H   H165      1.0  0.25155  0.40057  0.75465  1.0000
  C   C92       1.0  0.08411  0.99792  0.63933  1.0000
  Fe  Fe16      1.0  0.03586  0.42162  0.97184  1.0000
  C   C93       1.0  0.17548  0.24717  0.95091  1.0000
  C   C94       1.0  0.12359  0.25537  0.90473  1.0000
  H   H166      1.0  0.12249  0.24369  0.58776  1.0000
  H   H167      1.0  0.19505  0.28277  0.78811  1.0000
  H   H168      1.0  0.11859  0.39083  0.97348  1.0000
  H   H169      1.0  0.12586  0.34605  0.85631  1.0000
  C   C95       1.0  0.17914  0.35232  0.49505  1.0000
  H   H170      1.0  0.12974  0.25719  0.86780  1.0000
  C   C96       1.0  0.19152  0.29043  0.81938  1.0000
  H   H171      1.0  0.02893  0.99135  0.89048  1.0000
  H   H172      1.0  0.16413  0.25350  0.85145  1.0000
  H   H173      1.0  0.25169  0.31060  0.72296  1.0000
  H   H174      1.0  0.20955  0.30835  0.82739  1.0000
  C   C97       1.0  0.08973  0.32771  0.89802  1.0000
  C   C98       1.0  0.09821  0.31173  0.82440  1.0000
  C   C99       1.0  0.10678  0.98071  0.79164  1.0000
  H   H175      1.0  0.19666  0.26625  0.86401  1.0000
  C   C100      1.0  0.18227  0.27105  0.85993  1.0000
  H   H176      1.0  0.17696  0.29458  0.81156  1.0000
  H   H177      1.0  0.13278  0.22772  0.91562  1.0000
  H   H178      1.0  0.12573  0.37270  0.90772  1.0000
  H   H179      1.0  0.99000  0.46644  0.90815  1.0000
  H   H180      1.0  0.17057  0.29274  0.89580  1.0000
  C   C101      1.0  0.17900  0.28187  0.90504  1.0000
  C   C102      1.0  0.10967  0.27608  0.54885  1.0000
  C   C103      1.0  0.28893  0.38810  0.84388  1.0000
  H   H181      1.0  0.08964  0.32008  0.80408  1.0000
  H   H182      1.0  0.20560  0.39285  0.81224  1.0000
  H   H183      1.0  0.09595  0.25520  0.54633  1.0000
  H   H184      1.0  0.12196  0.28215  0.51677  1.0000
  C   C104      1.0  0.26171  0.39696  0.77983  1.0000
  H   H185      1.0  0.99195  0.01512  0.90160  1.0000
  N   N3        1.0  0.09583  0.28939  0.55115  1.0000
  H   H186      1.0  0.09433  0.33263  0.57962  1.0000
  H   H187      1.0  0.11786  0.31727  0.88660  1.0000
  H   H188      1.0  0.24061  0.43049  0.91174  1.0000
  C   C105      1.0  0.10986  0.32661  0.86778  1.0000
  C   C106      1.0  0.05551  0.02703  0.82580  1.0000
  H   H189      1.0  0.29181  0.38666  0.64736  1.0000
  H   H190      1.0  0.98246  0.40035  0.90754  1.0000
  C   C107      1.0  0.17111  0.32711  0.48794  1.0000
  H   H191      1.0  0.17053  0.97971  0.90768  1.0000
  H   H192      1.0  0.14053  0.97880  0.78123  1.0000
  H   H193      1.0  0.15069  0.26791  0.61473  1.0000
  C   C108      1.0  0.13809  0.26418  0.58560  1.0000
  C   C109      1.0  0.25032  0.34676  0.98193  1.0000
  N   N4        1.0  0.16387  0.26250  0.94402  1.0000
  H   H194      1.0  0.28392  0.38838  0.70555  1.0000
  H   H195      1.0  0.06862  0.29085  0.59556  1.0000
  C   C110      1.0  0.04252  0.03047  0.86748  1.0000
  C   C111      1.0  0.15813  0.40480  0.97221  1.0000
  H   H196      1.0  0.14358  0.30078  0.58833  1.0000
  H   H197      1.0  0.25710  0.34537  0.94707  1.0000
  H   H198      1.0  0.09079  0.44830  0.72246  1.0000
  H   H199      1.0  0.28580  0.35543  0.74135  1.0000
  H   H200      1.0  0.11595  0.99561  0.69993  1.0000
  H   H201      1.0  0.07088  0.40627  0.76425  1.0000
  H   H202      1.0  0.11860  0.43525  0.72600  1.0000
  C   C112      1.0  0.12356  0.36252  0.94112  1.0000
  H   H203      1.0  0.17124  0.01816  0.81810  1.0000
  H   H204      1.0  0.03608  0.25827  0.65282  1.0000
  C   C113      1.0  0.13825  0.44978  0.73569  1.0000
  N   N5        1.0  0.01499  0.00609  0.94118  1.0000
  H   H205      1.0  0.12879  0.27434  0.91516  1.0000
  H   H206      1.0  0.07358  0.45651  0.76011  1.0000
  C   C114      1.0  0.05033  0.31955  0.97040  1.0000
  C   C115      1.0  0.06261  0.41782  0.76794  1.0000
  H   H207      1.0  0.19849  0.29640  0.91607  1.0000
  H   H208      1.0  0.02523  0.04503  0.93982  1.0000
  H   H209      1.0  0.10698  0.44117  0.80456  1.0000
  H   H210      1.0  0.26721  0.34539  0.66331  1.0000
  H   H211      1.0  0.07970  0.29927  0.97322  1.0000
  C   C116      1.0  0.09459  0.23784  0.90829  1.0000
  H   H212      1.0  0.06157  0.26026  0.68421  1.0000
  C   C117      1.0  0.06289  0.25448  0.61051  1.0000
  C   C118      1.0  0.15061  0.01006  0.82382  1.0000
  H   H213      1.0  0.27975  0.42433  0.68234  1.0000
  H   H214      1.0  0.97478  0.99146  0.94557  1.0000
  H   H215      1.0  0.16219  0.41426  0.93735  1.0000
  H   H216      1.0  0.25083  0.30007  0.66543  1.0000
  N   N6        1.0  0.24427  0.40469  0.95652  1.0000
  C   C119      1.0  0.02478  0.03088  0.96431  1.0000
  C   C120      1.0  0.26908  0.42484  0.97641  1.0000
  H   H217      1.0  0.09068  0.32939  0.51820  1.0000
  H   H218      1.0  0.06553  0.25947  0.51272  1.0000
  C   C121      1.0  0.02333  0.46748  0.88690  1.0000
  C   C122      1.0  0.07773  0.28061  0.51216  1.0000
  C   C123      1.0  0.26367  0.31221  0.69253  1.0000
  H   H219      1.0  0.19651  0.26002  0.95344  1.0000
  H   H220      1.0  0.29141  0.34035  0.64312  1.0000
  C   C124      1.0  0.09804  0.31808  0.97486  1.0000
  H   H221      1.0  0.06420  0.28659  0.51681  1.0000
  H   H222      1.0  0.09659  0.45994  0.82576  1.0000
  H   H223      1.0  0.17652  0.46299  0.70948  1.0000
  H   H224      1.0  0.27557  0.30502  0.70260  1.0000
  C   C125      1.0  0.97588  0.41581  0.96747  1.0000
  C   C126      1.0  0.15648  0.44978  0.69994  1.0000
  C   C127      1.0  0.97117  0.40671  0.92283  1.0000
  C   C128      1.0  0.13597  0.99342  0.78385  1.0000
  H   H225      1.0  0.11259  0.31499  0.96064  1.0000
  C   C129      1.0  0.10433  0.45652  0.79381  1.0000
  H   H226      1.0  0.08735  0.23712  0.94403  1.0000
  H   H227      1.0  0.14405  0.99877  0.85703  1.0000
  C   C130      1.0  0.07815  0.34292  0.96452  1.0000
  H   H228      1.0  0.28647  0.43635  0.79618  1.0000
  H   H229      1.0  0.10448  0.01015  0.62758  1.0000
  C   C131      1.0  0.09599  0.98591  0.71374  1.0000
  H   H230      1.0  0.13987  0.45547  0.84758  1.0000
  H   H231      1.0  0.96943  0.03617  0.85827  1.0000
  H   H232      1.0  0.03261  0.34091  0.96457  1.0000
  H   H233      1.0  0.20357  0.38323  0.97193  1.0000
  H   H234      1.0  0.15385  0.45541  0.66505  1.0000
  C   C132      1.0  0.96611  0.03872  0.89391  1.0000
  C   C133      1.0  0.98132  0.97774  0.88256  1.0000
  H   H235      1.0  0.06268  0.97706  0.81958  1.0000
  C   C134      1.0  0.07939  0.97592  0.67109  1.0000
  H   H236      1.0  0.96190  0.09139  0.80401  1.0000
  Fe  Fe17      1.0  0.16599  0.83026  0.25637  1.0000
  S   S33       1.0  0.17406  0.86525  0.21598  1.0000
  S   S34       1.0  0.15511  0.81978  0.33440  1.0000
  Fe  Fe18      1.0  0.16507  0.80378  0.16647  1.0000
  S   S35       1.0  0.17292  0.83670  0.12094  1.0000
  S   S36       1.0  0.16480  0.77194  0.13030  1.0000
  Fe  Fe19      1.0  0.20156  0.86097  0.17209  1.0000
  S   S37       1.0  0.23825  0.89504  0.14037  1.0000
  Fe  Fe20      1.0  0.14501  0.83838  0.16710  1.0000
  S   S38       1.0  0.11299  0.83984  0.13632  1.0000
  S   S39       1.0  0.19587  0.82808  0.21559  1.0000
  S   S40       1.0  0.13481  0.80338  0.20955  1.0000
  C   C135      1.0  0.11286  0.83956  0.42440  1.0000
  H   H237      1.0  0.04399  0.62152  0.09554  1.0000
  S   S41       1.0  0.12423  0.93695  0.03713  1.0000
  H   H238      1.0  0.15755  0.88882  0.00576  1.0000
  H   H239      1.0  0.04614  0.86561  0.33721  1.0000
  H   H240      1.0  0.96984  0.51455  0.99402  1.0000
  C   C136      1.0  0.08570  0.87679  0.33537  1.0000
  C   C137      1.0  0.11683  0.86689  0.10748  1.0000
  C   C138      1.0  0.09581  0.86461  0.08662  1.0000
  C   C139      1.0  0.09781  0.88580  0.06456  1.0000
  C   C140      1.0  0.12087  0.90956  0.06345  1.0000
  C   C141      1.0  0.14197  0.91180  0.08402  1.0000
  C   C142      1.0  0.14003  0.89055  0.10574  1.0000
  H   H241      1.0  0.07778  0.84638  0.08783  1.0000
  H   H242      1.0  0.08144  0.88383  0.04893  1.0000
  H   H243      1.0  0.15985  0.93013  0.08343  1.0000
  H   H244      1.0  0.15633  0.89258  0.12183  1.0000
  C   C143      1.0  0.25783  0.88951  0.10505  1.0000
  C   C144      1.0  0.25670  0.86678  0.10905  1.0000
  H   H245      1.0  0.27632  0.94410  0.18301  1.0000
  H   H246      1.0  0.11616  0.89378  0.23634  1.0000
  H   H247      1.0  0.11770  0.87137  0.98600  1.0000
  C   C145      1.0  0.27559  0.90875  0.07345  1.0000
  H   H248      1.0  0.24296  0.85174  0.13312  1.0000
  H   H249      1.0  0.17253  0.91170  0.23554  1.0000
  H   H250      1.0  0.21614  0.89301  0.04067  1.0000
  H   H251      1.0  0.13787  0.81686  0.03697  1.0000
  C   C146      1.0  0.16400  0.83187  0.39111  1.0000
  C   C147      1.0  0.18180  0.85760  0.39867  1.0000
  H   H252      1.0  0.18576  0.88625  0.06128  1.0000
  C   C148      1.0  0.15203  0.81502  0.43003  1.0000
  H   H253      1.0  0.19118  0.87090  0.36941  1.0000
  H   H254      1.0  0.12952  0.66489  0.05008  1.0000
  C   C149      1.0  0.04815  0.54241  0.06900  1.0000
  C   C150      1.0  0.13791  0.74548  0.10651  1.0000
  C   C151      1.0  0.14158  0.73031  0.07698  1.0000
  C   C152      1.0  0.12077  0.70894  0.05751  1.0000
  C   C153      1.0  0.09601  0.70219  0.06811  1.0000
  C   C154      1.0  0.09228  0.71724  0.09793  1.0000
  C   C155      1.0  0.11315  0.73898  0.11669  1.0000
  H   H255      1.0  0.16068  0.73520  0.06907  1.0000
  H   H256      1.0  0.12384  0.69763  0.03440  1.0000
  H   H257      1.0  0.07316  0.71215  0.10639  1.0000
  H   H258      1.0  0.11007  0.75042  0.13965  1.0000
  H   H259      1.0  0.07858  0.72541  0.00969  1.0000
  N   N7        1.0  0.12791  0.64094  0.10595  1.0000
  C   C156      1.0  0.14003  0.62692  0.11998  1.0000
  C   C157      1.0  0.13514  0.66175  0.13923  1.0000
  C   C158      1.0  0.09947  0.62214  0.10635  1.0000
  H   H260      1.0  0.06098  0.80042  0.19297  1.0000
  N   N8        1.0  0.10202  0.85127  0.29618  1.0000
  C   C159      1.0  0.13702  0.60666  0.08630  1.0000
  C   C160      1.0  0.08348  0.63351  0.09716  1.0000
  C   C161      1.0  0.12344  0.65293  0.18915  1.0000
  C   C162      1.0  0.13192  0.67578  0.21895  1.0000
  C   C163      1.0  0.97278  0.50132  0.01391  1.0000
  C   C164      1.0  0.15094  0.59453  0.10298  1.0000
  C   C165      1.0  0.12056  0.79887  0.05084  1.0000
  H   H261      1.0  0.13179  0.61673  0.15406  1.0000
  H   H262      1.0  0.16067  0.64051  0.12538  1.0000
  H   H263      1.0  0.15614  0.67366  0.14237  1.0000
  H   H264      1.0  0.13028  0.67519  0.12573  1.0000
  H   H265      1.0  0.09241  0.61062  0.13948  1.0000
  H   H266      1.0  0.09442  0.60810  0.07917  1.0000
  H   H267      1.0  0.06705  0.89160  0.29634  1.0000
  C   C166      1.0  0.07179  0.80608  0.26485  1.0000
  C   C167      1.0  0.22801  0.84557  0.44793  1.0000
  C   C168      1.0  0.13704  0.65301  0.05803  1.0000
  H   H268      1.0  0.11671  0.59112  0.08372  1.0000
  H   H269      1.0  0.14490  0.61507  0.05109  1.0000
  H   H270      1.0  0.10031  0.55150  0.01677  1.0000
  H   H271      1.0  0.08814  0.64922  0.12006  1.0000
  H   H272      1.0  0.10236  0.64162  0.18970  1.0000
  H   H273      1.0  0.12956  0.64122  0.20564  1.0000
  H   H274      1.0  0.12565  0.68782  0.20440  1.0000
  H   H275      1.0  0.12331  0.66910  0.25449  1.0000
  H   H276      1.0  0.15296  0.68749  0.22105  1.0000
  C   C169      1.0  0.12804  0.87495  0.28483  1.0000
  H   H277      1.0  0.27597  0.92603  0.06909  1.0000
  H   H278      1.0  0.18735  0.86464  0.02349  1.0000
  H   H279      1.0  0.14322  0.58499  0.13763  1.0000
  H   H280      1.0  0.14827  0.58003  0.07846  1.0000
  H   H281      1.0  0.17165  0.60910  0.10458  1.0000
  H   H282      1.0  0.20115  0.88617  0.44939  1.0000
  H   H283      1.0  0.17490  0.68649  0.07264  1.0000
  H   H284      1.0  0.05042  0.60633  0.14138  1.0000
  C   C170      1.0  0.15685  0.91480  0.23375  1.0000
  H   H285      1.0  0.08178  0.79033  0.20843  1.0000
  H   H286      1.0  0.22901  0.85706  0.41735  1.0000
  C   C171      1.0  0.29231  0.95536  0.20611  1.0000
  C   C172      1.0  0.05506  0.61323  0.10463  1.0000
  H   H287      1.0  0.12915  0.63832  0.03160  1.0000
  H   H288      1.0  0.08844  0.76452  0.02739  1.0000
  H   H289      1.0  0.06302  0.83931  0.31082  1.0000
  H   H290      1.0  0.10451  0.89490  0.32985  1.0000
  C   C173      1.0  0.21432  0.83482  0.99597  1.0000
  H   H291      1.0  0.11869  0.87138  0.38435  1.0000
  H   H292      1.0  0.13819  0.79509  0.42488  1.0000
  H   H293      1.0  0.15876  0.92761  0.26134  1.0000
  H   H294      1.0  0.21227  0.81305  0.05734  1.0000
  C   C174      1.0  0.27394  0.86378  0.08292  1.0000
  H   H295      1.0  0.08688  0.64095  0.06087  1.0000
  H   H296      1.0  0.13422  0.88877  0.31247  1.0000
  H   H297      1.0  0.07513  0.79557  0.29178  1.0000
  H   H298      1.0  0.06571  0.55941  0.05325  1.0000
  H   H299      1.0  0.01795  0.50514  0.05163  1.0000
  H   H300      1.0  0.15864  0.92425  0.19971  1.0000
  C   C175      1.0  0.17305  0.68174  0.99966  1.0000
  H   H301      1.0  0.12965  0.87819  0.20891  1.0000
  H   H302      1.0  0.08284  0.82462  0.35476  1.0000
  C   C176      1.0  0.19619  0.88495  0.03114  1.0000
  H   H303      1.0  0.06848  0.89691  0.35733  1.0000
  H   H304      1.0  0.04922  0.59691  0.08241  1.0000
  H   H305      1.0  0.12605  0.78954  0.07645  1.0000
  H   H306      1.0  0.09225  0.84159  0.22509  1.0000
  C   C177      1.0  0.13098  0.88951  0.23871  1.0000
  S   S42       1.0  0.06941  0.67524  0.04457  1.0000
  C   C178      1.0  0.18734  0.86623  0.44423  1.0000
  H   H307      1.0  0.22242  0.85216  0.01644  1.0000
  C   C179      1.0  0.09557  0.83366  0.25672  1.0000
  H   H308      1.0  0.17535  0.65968  0.05402  1.0000
  H   H309      1.0  0.25107  0.83989  0.99451  1.0000
  C   C180      1.0  0.06556  0.88303  0.33116  1.0000
  H   H310      1.0  0.05472  0.80587  0.27573  1.0000
  H   H311      1.0  0.03525  0.54798  0.08204  1.0000
  C   C181      1.0  0.19966  0.81192  0.02999  1.0000
  C   C182      1.0  0.11977  0.85476  0.37848  1.0000
  H   H312      1.0  0.00862  0.95507  0.04607  1.0000
  H   H313      1.0  0.07859  0.86281  0.26602  1.0000
  S   S43       1.0  0.07734  0.95932  0.00136  1.0000
  C   C183      1.0  0.08166  0.85687  0.30033  1.0000
  H   H314      1.0  0.19405  0.69371  0.99378  1.0000
  H   H315      1.0  0.13994  0.86211  0.36879  1.0000
  H   H316      1.0  0.04874  0.77154  0.22754  1.0000
  C   C184      1.0  0.29274  0.90570  0.04728  1.0000
  H   H317      1.0  0.08368  0.86904  0.37109  1.0000
  C   C185      1.0  0.16631  0.67042  0.04912  1.0000
  C   C186      1.0  0.06550  0.79125  0.22071  1.0000
  C   C187      1.0  0.10252  0.83787  0.33973  1.0000
  H   H318      1.0  0.11195  0.83212  0.24752  1.0000
  H   H319      1.0  0.10973  0.82564  0.33146  1.0000
  H   H320      1.0  0.18352  0.81166  0.04682  1.0000
  H   H321      1.0  0.14245  0.86996  0.28357  1.0000
  H   H322      1.0  0.10800  0.80357  0.06887  1.0000
  H   H323      1.0  0.12731  0.85110  0.44996  1.0000
  H   H324      1.0  0.27325  0.84630  0.08680  1.0000
  H   H325      1.0  0.98449  0.51137  0.04364  1.0000
  C   C188      1.0  0.03494  0.52179  0.03380  1.0000
  H   H326      1.0  0.20768  0.83176  0.45845  1.0000
  H   H327      1.0  0.11234  0.82186  0.41991  1.0000
  H   H328      1.0  0.12401  0.76040  0.01442  1.0000
  H   H329      1.0  0.10113  0.79123  0.98773  1.0000
  H   H330      1.0  0.09395  0.83447  0.43822  1.0000
  H   H331      1.0  0.19185  0.79380  0.01226  1.0000
  C   C189      1.0  0.10637  0.78119  0.01183  1.0000
  H   H332      1.0  0.16556  0.69385  0.99353  1.0000
  H   H333      1.0  0.04029  0.72625  0.99852  1.0000
  H   H334      1.0  0.05350  0.53510  0.09864  1.0000
  H   H335      1.0  0.04803  0.51599  0.02321  1.0000
  H   H336      1.0  0.01999  0.54263  0.00208  1.0000
  C   C190      1.0  0.29224  0.88335  0.05235  1.0000
  H   H337      1.0  0.98774  0.47800  0.00471  1.0000
  H   H338      1.0  0.20515  0.91990  0.99842  1.0000
  H   H339      1.0  0.03206  0.69406  0.00513  1.0000
  H   H340      1.0  0.26248  0.87575  0.47522  1.0000
  H   H341      1.0  0.28608  0.94638  0.24146  1.0000
  Fe  Fe21      1.0  0.07333  0.65524  0.98387  1.0000
  H   H342      1.0  0.23661  0.83493  0.43778  1.0000
  Fe  Fe22      1.0  0.09536  0.93698  0.99105  1.0000
  H   H343      1.0  0.16087  0.92542  0.98285  1.0000
  C   C191      1.0  0.02799  0.53154  0.99083  1.0000
  C   C192      1.0  0.19582  0.89978  0.98913  1.0000
  C   C193      1.0  0.15759  0.82365  0.47559  1.0000
  C   C194      1.0  0.12260  0.77260  0.98787  1.0000
  S   S44       1.0  0.00379  0.91386  0.00111  1.0000
  H   H344      1.0  0.14242  0.78957  0.98256  1.0000
  C   C195      1.0  0.04205  0.71151  0.98213  1.0000
  C   C196      1.0  0.98555  0.49135  0.98287  1.0000
  Fe  Fe23      1.0  0.16693  0.86865  0.71031  1.0000
  S   S45       1.0  0.20096  0.87908  0.66430  1.0000
  S   S46       1.0  0.16785  0.90036  0.74846  1.0000
  Fe  Fe24      1.0  0.14377  0.81214  0.70114  1.0000
  S   S47       1.0  0.17580  0.81809  0.65423  1.0000
  S   S48       1.0  0.11022  0.77466  0.73211  1.0000
  Fe  Fe25      1.0  0.20112  0.84823  0.70346  1.0000
  S   S49       1.0  0.23491  0.84878  0.73052  1.0000
  Fe  Fe26      1.0  0.17343  0.84859  0.61717  1.0000
  S   S50       1.0  0.18409  0.86150  0.53985  1.0000
  S   S51       1.0  0.16929  0.83991  0.75254  1.0000
  S   S52       1.0  0.13915  0.84051  0.66095  1.0000
  H   H345      1.0  0.97146  0.47916  0.95715  1.0000
  S   S53       1.0  0.07868  0.62213  0.87666  1.0000
  H   H346      1.0  0.28141  0.84994  0.54245  1.0000
  H   H347      1.0  0.27413  0.93106  0.66074  1.0000
  H   H348      1.0  0.20074  0.83461  0.97208  1.0000
  C   C197      1.0  0.01035  0.48110  0.89956  1.0000
  C   C198      1.0  0.02314  0.49842  0.94074  1.0000
  Fe  Fe27      1.0  0.09769  0.66403  0.88773  1.0000
  S   S54       1.0  0.12665  0.69563  0.83742  1.0000
  S   S55       1.0  0.09776  0.50278  0.88390  1.0000
  H   H349      1.0  0.15566  0.53691  0.78242  1.0000
  H   H350      1.0  0.00383  0.68220  0.87312  1.0000
  H   H351      1.0  0.16310  0.49104  0.73678  1.0000
  S   S56       1.0  0.05470  0.94149  0.89773  1.0000
  H   H352      1.0  0.22860  0.80651  0.58559  1.0000
  H   H353      1.0  0.18870  0.82296  0.83162  1.0000
  N   N9        1.0  0.01051  0.51134  0.95857  1.0000
  Fe  Fe28      1.0  0.07478  0.92106  0.89579  1.0000
  S   S57       1.0  0.07261  0.89779  0.83517  1.0000
  S   S58       1.0  0.11111  0.95441  0.91963  1.0000
  H   H354      1.0  0.26145  0.82039  0.59916  1.0000
  C   C199      1.0  0.09644  0.56578  0.90491  1.0000
  H   H355      1.0  0.20746  0.89879  0.96102  1.0000
  H   H356      1.0  0.22867  0.84158  0.62451  1.0000
  H   H357      1.0  0.11247  0.72808  0.90970  1.0000
  H   H358      1.0  0.10070  0.96771  0.82290  1.0000
  H   H359      1.0  0.09597  0.57983  0.88370  1.0000
  H   H360      1.0  0.04631  0.54589  0.97236  1.0000
  H   H361      1.0  0.06716  0.92764  0.68607  1.0000
  C   C200      1.0  0.18145  0.88291  0.87585  1.0000
  C   C201      1.0  0.05027  0.71149  0.67942  1.0000
  C   C202      1.0  0.09934  0.89795  0.81422  1.0000
  C   C203      1.0  0.12410  0.91932  0.81744  1.0000
  C   C204      1.0  0.14481  0.91971  0.79699  1.0000
  C   C205      1.0  0.14108  0.89861  0.77393  1.0000
  C   C206      1.0  0.11638  0.87703  0.77151  1.0000
  C   C207      1.0  0.09559  0.87682  0.79124  1.0000
  H   H362      1.0  0.12720  0.93583  0.83442  1.0000
  H   H363      1.0  0.16383  0.93656  0.79853  1.0000
  H   H364      1.0  0.11325  0.86071  0.75367  1.0000
  H   H365      1.0  0.07648  0.86030  0.78826  1.0000
  C   C208      1.0  0.26062  0.87505  0.75701  1.0000
  C   C209      1.0  0.27930  0.87237  0.77625  1.0000
  C   C210      1.0  0.12475  0.77761  0.90196  1.0000
  H   H366      1.0  0.28528  0.86174  0.93862  1.0000
  H   H367      1.0  0.21713  0.80466  0.88701  1.0000
  C   C211      1.0  0.26298  0.89837  0.75901  1.0000
  H   H368      1.0  0.11540  0.95904  0.71223  1.0000
  H   H369      1.0  0.09541  0.54421  0.84711  1.0000
  H   H370      1.0  0.24872  0.90066  0.74423  1.0000
  C   C212      1.0  0.11579  0.75410  0.76398  1.0000
  C   C213      1.0  0.09629  0.73489  0.79356  1.0000
  C   C214      1.0  0.09976  0.71747  0.81766  1.0000
  C   C215      1.0  0.12242  0.71859  0.81124  1.0000
  C   C216      1.0  0.14213  0.73820  0.78261  1.0000
  C   C217      1.0  0.13896  0.75605  0.75943  1.0000
  H   H371      1.0  0.07846  0.73351  0.79776  1.0000
  H   H372      1.0  0.08496  0.70317  0.84108  1.0000
  H   H373      1.0  0.15983  0.73937  0.77774  1.0000
  H   H374      1.0  0.15414  0.77084  0.73688  1.0000
  H   H375      1.0  0.21827  0.85416  0.89147  1.0000
  C   C218      1.0  0.17535  0.84938  0.48315  1.0000
  C   C219      1.0  0.14639  0.52712  0.75047  1.0000
  H   H376      1.0  0.02687  0.68945  0.79838  1.0000
  H   H377      1.0  0.25300  0.92314  0.61395  1.0000
  H   H378      1.0  0.17683  0.47419  0.89561  1.0000
  H   H379      1.0  0.02151  0.63935  0.82734  1.0000
  H   H380      1.0  0.10035  0.90778  0.71275  1.0000
  H   H381      1.0  0.99604  0.53341  0.93336  1.0000
  C   C220      1.0  0.00462  0.63283  0.73684  1.0000
  H   H382      1.0  0.05620  0.67135  0.69493  1.0000
  H   H383      1.0  0.99636  0.65915  0.80192  1.0000
  H   H384      1.0  0.12108  0.80121  0.82304  1.0000
  C   C221      1.0  0.02991  0.65661  0.80417  1.0000
  C   C222      1.0  0.25811  0.88580  0.57705  1.0000
  H   H385      1.0  0.99423  0.64236  0.73503  1.0000
  H   H386      1.0  0.11146  0.50123  0.79016  1.0000
  N   N10       1.0  0.03092  0.65025  0.75472  1.0000
  H   H387      1.0  0.99278  0.90958  0.90281  1.0000
  H   H388      1.0  0.97981  0.96061  0.89725  1.0000
  H   H389      1.0  0.00521  0.54933  0.84196  1.0000
  C   C223      1.0  0.09886  0.54980  0.97976  1.0000
  H   H390      1.0  0.00320  0.65365  0.88476  1.0000
  H   H391      1.0  0.06012  0.93764  0.79700  1.0000
  H   H392      1.0  0.96265  0.54712  0.84359  1.0000
  H   H393      1.0  0.06185  0.68986  0.74378  1.0000
  H   H394      1.0  0.01571  0.52973  0.82114  1.0000
  C   C224      1.0  0.23473  0.80397  0.65704  1.0000
  N   N11       1.0  0.09060  0.96650  0.75154  1.0000
  H   H395      1.0  0.14818  0.81035  0.50484  1.0000
  H   H396      1.0  0.06322  0.91027  0.73866  1.0000
  C   C225      1.0  0.11731  0.88119  0.95415  1.0000
  H   H397      1.0  0.10327  0.94143  0.76558  1.0000
  H   H398      1.0  0.08730  0.84568  0.92559  1.0000
  H   H399      1.0  0.01364  0.94241  0.76820  1.0000
  C   C226      1.0  0.08938  0.91144  0.68814  1.0000
  C   C227      1.0  0.15075  0.75324  0.93197  1.0000
  S   S59       1.0  0.05144  0.61256  0.98075  1.0000
  H   H400      1.0  0.24930  0.81454  0.68298  1.0000
  C   C228      1.0  0.09612  0.54556  0.88424  1.0000
  C   C229      1.0  0.27361  0.92536  0.92112  1.0000
  C   C230      1.0  0.04421  0.63633  0.75286  1.0000
  H   H401      1.0  0.03749  0.56286  0.90574  1.0000
  H   H402      1.0  0.13621  0.89437  0.88605  1.0000
  H   H403      1.0  0.08599  0.63539  0.71695  1.0000
  H   H404      1.0  0.17880  0.74349  0.93211  1.0000
  H   H405      1.0  0.25734  0.82382  0.86202  1.0000
  C   C231      1.0  0.03179  0.68472  0.70066  1.0000
  H   H406      1.0  0.10230  0.92372  0.65868  1.0000
  H   H407      1.0  0.29080  0.81538  0.87150  1.0000
  H   H408      1.0  0.19391  0.80948  0.91145  1.0000
  C   C232      1.0  0.09682  0.52718  0.91129  1.0000
  H   H409      1.0  0.11146  0.49333  0.73180  1.0000
  C   C233      1.0  0.07751  0.92411  0.71205  1.0000
  H   H410      1.0  0.25978  0.85428  0.64233  1.0000
  C   C234      1.0  0.25535  0.87884  0.94189  1.0000
  H   H411      1.0  0.12652  0.81114  0.92670  1.0000
  H   H412      1.0  0.14517  0.93299  0.90992  1.0000
  H   H413      1.0  0.18065  0.79077  0.83619  1.0000
  H   H414      1.0  0.15493  0.56276  0.71934  1.0000
  Fe  Fe29      1.0  0.04272  0.92605  0.97043  1.0000
  C   C235      1.0  0.17086  0.48652  0.88135  1.0000
  N   N12       1.0  0.11325  0.75900  0.94311  1.0000
  H   H415      1.0  0.01853  0.68560  0.72498  1.0000
  H   H416      1.0  0.14587  0.78877  0.90173  1.0000
  H   H417      1.0  0.12406  0.54393  0.74878  1.0000
  H   H418      1.0  0.03273  0.70695  0.94854  1.0000
  C   C236      1.0  0.12324  0.49974  0.76275  1.0000
  H   H419      1.0  0.00620  0.62809  0.70061  1.0000
  C   C237      1.0  0.23887  0.84736  0.53233  1.0000
  H   H420      1.0  0.07896  0.73624  0.90552  1.0000
  C   C238      1.0  0.04631  0.67426  0.72414  1.0000
  H   H421      1.0  0.16061  0.52693  0.72742  1.0000
  H   H422      1.0  0.28257  0.89889  0.63820  1.0000
  C   C239      1.0  0.08465  0.74376  0.94070  1.0000
  H   H423      1.0  0.28079  0.86803  0.88105  1.0000
  H   H424      1.0  0.07083  0.70473  0.96265  1.0000
  C   C240      1.0  0.27010  0.92385  0.62526  1.0000
  H   H425      1.0  0.99442  0.59533  0.76559  1.0000
  C   C241      1.0  0.07261  0.65181  0.76576  1.0000
  H   H426      1.0  0.13585  0.47938  0.70402  1.0000
  H   H427      1.0  0.09858  0.51535  0.98048  1.0000
  H   H428      1.0  0.21047  0.81513  0.80909  1.0000
  H   H429      1.0  0.04312  0.62909  0.71765  1.0000
  H   H430      1.0  0.15896  0.48801  0.90834  1.0000
  C   C242      1.0  0.00504  0.52372  0.91968  1.0000
  C   C243      1.0  0.02132  0.54689  0.84069  1.0000
  S   S60       1.0  0.05967  0.90247  0.96665  1.0000
  N   N13       1.0  0.24746  0.85272  0.92707  1.0000
  C   C244      1.0  0.22926  0.84518  0.88831  1.0000
  H   H431      1.0  0.13397  0.86707  0.90899  1.0000
  H   H432      1.0  0.08451  0.96461  0.65058  1.0000
  H   H433      1.0  0.03955  0.71819  0.66134  1.0000
  C   C245      1.0  0.97955  0.91302  0.96957  1.0000
  H   H434      1.0  0.08403  0.67056  0.74692  1.0000
  H   H435      1.0  0.14987  0.82401  0.85125  1.0000
  H   H436      1.0  0.09716  0.78895  0.89921  1.0000
  C   C246      1.0  0.17136  0.92767  0.94964  1.0000
  C   C247      1.0  0.20904  0.81632  0.88389  1.0000
  H   H437      1.0  0.23176  0.78501  0.65392  1.0000
  H   H438      1.0  0.02052  0.67224  0.67240  1.0000
  H   H439      1.0  0.06389  0.71167  0.65405  1.0000
  C   C248      1.0  0.20416  0.89029  0.84319  1.0000
  H   H440      1.0  0.20337  0.92114  0.90258  1.0000
  H   H441      1.0  0.07623  0.86098  0.96151  1.0000
  C   C249      1.0  0.26546  0.89739  0.62543  1.0000
  C   C250      1.0  0.98050  0.56804  0.90411  1.0000
  H   H442      1.0  0.04328  0.48140  0.87430  1.0000
  H   H443      1.0  0.29023  0.88031  0.52206  1.0000
  H   H444      1.0  0.04939  0.66937  0.81616  1.0000
  S   S61       1.0  0.06209  0.66048  0.91361  1.0000
  H   H445      1.0  0.27765  0.85441  0.77466  1.0000
  C   C251      1.0  0.13813  0.54307  0.72638  1.0000
  N   N14       1.0  0.25731  0.86169  0.56970  1.0000
  H   H446      1.0  0.01990  0.93477  0.82453  1.0000
  H   H447      1.0  0.01172  0.49237  0.86838  1.0000
  H   H448      1.0  0.07406  0.65511  0.80331  1.0000
  C   C252      1.0  0.27126  0.85429  0.91088  1.0000
  H   H449      1.0  0.25777  0.81378  0.92093  1.0000
  H   H450      1.0  0.12957  0.53491  0.69299  1.0000
  H   H451      1.0  0.01793  0.96195  0.81613  1.0000
  C   C253      1.0  0.27083  0.90101  0.90547  1.0000
  H   H452      1.0  0.23836  0.87902  0.95245  1.0000
  N   N15       1.0  0.16531  0.90228  0.93407  1.0000
  H   H453      1.0  0.11513  0.72775  0.97026  1.0000
  H   H454      1.0  0.18814  0.50574  0.87299  1.0000
  C   C254      1.0  0.19643  0.81107  0.83746  1.0000
  H   H455      1.0  0.20516  0.90217  0.81324  1.0000
  H   H456      1.0  0.15915  0.86816  0.96812  1.0000
  H   H457      1.0  0.03783  0.56376  0.82206  1.0000
  H   H458      1.0  0.28537  0.94094  0.89473  1.0000
  H   H459      1.0  0.99043  0.50910  0.89728  1.0000
  C   C255      1.0  0.09091  0.86433  0.93497  1.0000
  H   H460      1.0  0.24013  0.85291  0.85450  1.0000
  H   H461      1.0  0.12339  0.82759  0.85074  1.0000
  H   H462      1.0  0.07417  0.89296  0.67484  1.0000
  H   H463      1.0  0.26157  0.89622  0.87183  1.0000
  C   C256      1.0  0.01595  0.66995  0.81447  1.0000
  C   C257      1.0  0.02860  0.54420  0.88933  1.0000
  C   C258      1.0  0.24232  0.86303  0.48728  1.0000
  H   H464      1.0  0.03325  0.68429  0.88035  1.0000
  H   H465      1.0  0.17580  0.94617  0.88112  1.0000
  S   S62       1.0  0.11009  0.66117  0.95836  1.0000
  C   C259      1.0  0.16587  0.94303  0.91507  1.0000
  H   H466      1.0  0.17993  0.91547  0.86357  1.0000
  H   H467      1.0  0.21649  0.80116  0.66949  1.0000
  H   H468      1.0  0.18086  0.87044  0.90403  1.0000
  C   C260      1.0  0.09815  0.56817  0.95278  1.0000
  Fe  Fe30      1.0  0.04374  0.61840  0.90821  1.0000
  H   H469      1.0  0.27100  0.90075  0.55035  1.0000
  H   H470      1.0  0.98366  0.61098  0.80124  1.0000
  H   H471      1.0  0.96228  0.58716  0.70831  1.0000
  C   C261      1.0  0.13842  0.88607  0.91837  1.0000
  H   H472      1.0  0.15653  0.75980  0.89526  1.0000
  H   H473      1.0  0.11942  0.76707  0.86938  1.0000
  C   C262      1.0  0.08508  0.63739  0.75479  1.0000
  H   H474      1.0  0.22223  0.90101  0.86143  1.0000
  H   H475      1.0  0.16393  0.87170  0.85615  1.0000
  S   S63       1.0  0.00710  0.59326  0.87210  1.0000
  C   C263      1.0  0.24729  0.84485  0.61319  1.0000
  H   H476      1.0  0.16155  0.76968  0.95416  1.0000
  H   H477      1.0  0.23473  0.87505  0.49314  1.0000
  H   H478      1.0  0.20213  0.87294  0.82980  1.0000
  C   C264      1.0  0.18334  0.90685  0.89401  1.0000
  C   C265      1.0  0.11799  0.79774  0.89835  1.0000
  H   H479      1.0  0.23992  0.83106  0.52202  1.0000
  C   C266      1.0  0.12880  0.81357  0.85308  1.0000
  H   H480      1.0  0.00287  0.96721  0.95772  1.0000
  H   H481      1.0  0.21885  0.83888  0.54564  1.0000
  C   C267      1.0  0.97822  0.56833  0.95217  1.0000
  H   H482      1.0  0.10480  0.64810  0.76710  1.0000
  C   C268      1.0  0.29366  0.83336  0.88342  1.0000
  H   H483      1.0  0.24971  0.88520  0.65112  1.0000
  H   H484      1.0  0.13673  0.49469  0.84664  1.0000
  C   C269      1.0  0.12165  0.74076  0.93900  1.0000
  C   C270      1.0  0.26787  0.82949  0.89437  1.0000
  C   C271      1.0  0.09799  0.94864  0.73555  1.0000
  H   H485      1.0  0.07429  0.61821  0.77235  1.0000
  H   H486      1.0  0.08903  0.87377  0.90409  1.0000
  H   H487      1.0  0.23890  0.88229  0.57221  1.0000
  H   H488      1.0  0.26701  0.88386  0.97281  1.0000
  H   H489      1.0  0.06113  0.72498  0.70674  1.0000
  C   C272      1.0  0.01397  0.67264  0.86640  1.0000
  H   H490      1.0  0.03462  0.61935  0.77708  1.0000
  C   C273      1.0  0.15588  0.47499  0.83803  1.0000
  S   S64       1.0  0.09995  0.59391  0.98045  1.0000
  H   H491      1.0  0.05014  0.93974  0.74202  1.0000
  H   H492      1.0  0.16408  0.50971  0.80823  1.0000
  H   H493      1.0  0.04333  0.53993  0.88534  1.0000
  H   H494      1.0  0.28330  0.93106  0.95440  1.0000
  C   C274      1.0  0.07002  0.72071  0.97552  1.0000
  H   H495      1.0  0.07707  0.75581  0.94557  1.0000
  H   H496      1.0  0.28591  0.93702  0.78092  1.0000
  H   H497      1.0  0.28668  0.93727  0.60187  1.0000
  C   C275      1.0  0.15849  0.73468  0.94286  1.0000
  C   C276      1.0  0.24347  0.81844  0.61016  1.0000
  H   H498      1.0  0.02368  0.48638  0.96882  1.0000
  H   H499      1.0  0.25474  0.92273  0.92517  1.0000
  C   C277      1.0  0.98671  0.60743  0.76511  1.0000
  H   H500      1.0  0.11954  0.89922  0.96362  1.0000
  Fe  Fe31      1.0  0.08762  0.61880  0.94974  1.0000
  H   H501      1.0  0.19182  0.94012  0.95735  1.0000
  C   C278      1.0  0.14638  0.49108  0.81803  1.0000
  C   C279      1.0  0.97834  0.91054  0.92168  1.0000
  H   H502      1.0  0.05879  0.96424  0.68085  1.0000
  H   H503      1.0  0.14685  0.71695  0.92408  1.0000
  C   C280      1.0  0.05302  0.96748  0.78780  1.0000
  C   C281      1.0  0.28408  0.91895  0.77972  1.0000
  C   C282      1.0  0.02441  0.95057  0.79984  1.0000
  C   C283      1.0  0.23604  0.83492  0.96930  1.0000
  C   C284      1.0  0.16817  0.88868  0.97457  1.0000
  C   C285      1.0  0.28304  0.86753  0.55352  1.0000
  C   C286      1.0  0.06312  0.95160  0.76905  1.0000
  C   C287      1.0  0.09780  0.52921  0.95926  1.0000
  H   H504      1.0  0.04354  0.51245  0.93082  1.0000
  H   H505      1.0  0.16509  0.96741  0.96643  1.0000
  H   H506      1.0  0.99287  0.58426  0.97044  1.0000
  H   H507      1.0  0.29041  0.90539  0.90058  1.0000
  H   H508      1.0  0.16502  0.66640  0.97445  1.0000
  C   C288      1.0  0.14225  0.47640  0.73761  1.0000
  N   N16       1.0  0.12921  0.48050  0.77770  1.0000
  H   H509      1.0  0.22889  0.81511  0.96070  1.0000
  C   C289      1.0  0.17492  0.96924  0.93282  1.0000
  Fe  Fe32      1.0  0.09003  0.97369  0.92788  1.0000
  H   H510      1.0  0.16892  0.47434  0.81251  1.0000
  H   H511      1.0  0.15619  0.72997  0.98041  1.0000
  H   H512      1.0  0.61485  0.31749  0.36285  1.0000
  C   C290      1.0  0.60725  0.34325  0.29584  1.0000
  H   H513      1.0  0.30645  0.42211  0.20630  1.0000
  H   H514      1.0  0.52008  0.01639  0.99779  1.0000
  S   S65       1.0  0.49467  0.40729  0.01936  1.0000
  H   H515      1.0  0.35366  0.36279  0.13129  1.0000
  H   H516      1.0  0.53512  0.26315  0.23039  1.0000
  H   H517      1.0  0.35428  0.37312  0.04810  1.0000
  C   C291      1.0  0.29784  0.46919  0.00581  1.0000
  H   H518      1.0  0.35597  0.02414  0.99382  1.0000
  H   H519      1.0  0.48709  0.03175  0.00440  1.0000
  H   H520      1.0  0.62322  0.36418  0.36015  1.0000
  H   H521      1.0  0.36755  0.40664  0.10771  1.0000
  H   H522      1.0  0.38403  0.40595  0.15695  1.0000
  H   H523      1.0  0.59212  0.30511  0.23075  1.0000
  H   H524      1.0  0.41671  0.01836  0.18647  1.0000
  H   H525      1.0  0.39974  0.00030  0.08868  1.0000
  C   C292      1.0  0.42424  0.34729  0.06745  1.0000
  H   H526      1.0  0.55317  0.33443  0.32427  1.0000
  H   H527      1.0  0.44451  0.36187  0.05765  1.0000
  H   H528      1.0  0.58858  0.33035  0.39130  1.0000
  S   S66       1.0  0.60946  0.43128  0.08638  1.0000
  S   S67       1.0  0.57275  0.18867  0.03309  1.0000
  C   C293      1.0  0.59967  0.21247  0.06143  1.0000
  H   H529      1.0  0.41746  0.03744  0.13789  1.0000
  C   C294      1.0  0.32308  0.29582  0.05642  1.0000
  Fe  Fe33      1.0  0.53492  0.42017  0.99460  1.0000
  H   H530      1.0  0.60440  0.26387  0.34013  1.0000
  H   H531      1.0  0.61095  0.30376  0.30886  1.0000
  C   C295      1.0  0.56635  0.34097  0.35310  1.0000
  C   C296      1.0  0.59689  0.36054  0.09318  1.0000
  C   C297      1.0  0.59625  0.38168  0.07910  1.0000
  C   C298      1.0  0.61018  0.40441  0.10211  1.0000
  C   C299      1.0  0.36860  0.36925  0.05916  1.0000
  C   C300      1.0  0.41822  0.02081  0.14820  1.0000
  H   H532      1.0  0.58570  0.34291  0.07566  1.0000
  H   H533      1.0  0.58467  0.38027  0.05089  1.0000
  S   S68       1.0  0.38505  0.43242  0.01046  1.0000
  H   H534      1.0  0.45641  0.04795  0.02405  1.0000
  C   C301      1.0  0.47336  0.41105  0.98678  1.0000
  H   H535      1.0  0.57407  0.24859  0.99964  1.0000
  H   H536      1.0  0.40020  0.41554  0.10081  1.0000
  H   H537      1.0  0.55862  0.30455  0.37624  1.0000
  H   H538      1.0  0.59513  0.28249  0.06024  1.0000
  C   C302      1.0  0.55365  0.27831  0.21371  1.0000
  S   S69       1.0  0.31353  0.38066  0.05748  1.0000
  H   H539      1.0  0.42232  0.34450  0.10566  1.0000
  H   H540      1.0  0.37710  0.33356  0.10200  1.0000
  S   S70       1.0  0.54973  0.11844  0.98921  1.0000
  C   C303      1.0  0.39691  0.99680  0.12650  1.0000
  C   C304      1.0  0.30476  0.41862  0.24439  1.0000
  H   H541      1.0  0.54640  0.35538  0.38866  1.0000
  H   H542      1.0  0.61935  0.26639  0.12032  1.0000
  H   H543      1.0  0.41441  0.37475  0.06593  1.0000
  H   H544      1.0  0.59766  0.30714  0.02258  1.0000
  Fe  Fe34      1.0  0.58613  0.43113  0.02732  1.0000
  S   S71       1.0  0.41304  0.00136  0.99444  1.0000
  C   C305      1.0  0.33474  0.32398  0.06800  1.0000
  C   C306      1.0  0.62122  0.21162  0.06577  1.0000
  C   C307      1.0  0.45621  0.41522  0.01003  1.0000
  H   H545      1.0  0.32399  0.29339  0.01884  1.0000
  H   H546      1.0  0.54950  0.28650  0.30675  1.0000
  C   C308      1.0  0.45639  0.04936  0.98679  1.0000
  C   C309      1.0  0.55241  0.34212  0.39590  1.0000
  H   H547      1.0  0.48152  0.99582  0.04001  1.0000
  H   H548      1.0  0.53517  0.32304  0.40539  1.0000
  Fe  Fe35      1.0  0.57443  0.16136  0.98567  1.0000
  C   C310      1.0  0.60674  0.29683  0.03192  1.0000
  H   H549      1.0  0.60787  0.00232  0.10229  1.0000
  H   H550      1.0  0.29671  0.97498  0.20707  1.0000
  H   H551      1.0  0.37183  0.01800  0.06647  1.0000
  C   C311      1.0  0.57546  0.32295  0.36218  1.0000
  H   H552      1.0  0.31703  0.41176  0.25371  1.0000
  H   H553      1.0  0.36894  0.00525  0.98490  1.0000
  C   C312      1.0  0.34965  0.97618  0.06791  1.0000
  C   C313      1.0  0.57416  0.29058  0.24931  1.0000
  N   N17       1.0  0.36082  0.34291  0.04637  1.0000
  H   H554      1.0  0.57820  0.04104  0.01305  1.0000
  H   H555      1.0  0.36556  0.97654  0.04989  1.0000
  H   H556      1.0  0.61213  0.27785  0.39603  1.0000
  H   H557      1.0  0.58276  0.36063  0.34431  1.0000
  C   C314      1.0  0.37914  0.33658  0.06374  1.0000
  H   H558      1.0  0.60777  0.98235  0.05874  1.0000
  C   C315      1.0  0.40762  0.35629  0.05031  1.0000
  H   H559      1.0  0.51715  0.03808  0.06495  1.0000
  H   H560      1.0  0.56061  0.31383  0.27058  1.0000
  H   H561      1.0  0.38600  0.37127  0.12580  1.0000
  C   C316      1.0  0.58225  0.27913  0.36272  1.0000
  H   H562      1.0  0.45741  0.41775  0.04688  1.0000
  C   C317      1.0  0.59917  0.23238  0.08105  1.0000
  C   C318      1.0  0.43745  0.41603  0.98606  1.0000
  H   H563      1.0  0.39920  0.98112  0.13657  1.0000
  H   H564      1.0  0.43694  0.02474  0.13586  1.0000
  H   H565      1.0  0.57485  0.28119  0.39631  1.0000
  C   C319      1.0  0.37044  0.99019  0.14368  1.0000
  S   S72       1.0  0.61124  0.33472  0.14737  1.0000
  H   H566      1.0  0.59693  0.00305  0.04583  1.0000
  S   S73       1.0  0.56764  0.45324  0.02959  1.0000
  H   H567      1.0  0.32691  0.98625  0.13964  1.0000
  H   H568      1.0  0.55156  0.29286  0.19613  1.0000
  C   C320      1.0  0.60017  0.30556  0.33779  1.0000
  C   C321      1.0  0.60947  0.28409  0.98995  1.0000
  H   H569      1.0  0.57665  0.27570  0.26378  1.0000
  H   H570      1.0  0.55930  0.26972  0.18704  1.0000
  C   C322      1.0  0.37204  0.37477  0.11135  1.0000
  C   C323      1.0  0.38156  0.40244  0.11949  1.0000
  H   H571      1.0  0.37070  0.00799  0.14265  1.0000
  H   H572      1.0  0.31176  0.42501  0.07508  1.0000
  H   H573      1.0  0.58246  0.23303  0.07819  1.0000
  H   H574      1.0  0.32121  0.32946  0.05914  1.0000
  H   H575      1.0  0.62167  0.19620  0.05131  1.0000
  C   C324      1.0  0.56690  0.30240  0.28798  1.0000
  C   C325      1.0  0.59639  0.26629  0.37269  1.0000
  H   H576      1.0  0.41081  0.35945  0.01227  1.0000
  C   C326      1.0  0.35323  0.00552  0.00242  1.0000
  H   H577      1.0  0.51597  0.45889  0.04203  1.0000
  H   H578      1.0  0.59819  0.35237  0.27965  1.0000
  H   H579      1.0  0.36876  0.98481  0.18097  1.0000
  H   H580      1.0  0.56581  0.26616  0.34189  1.0000
  H   H581      1.0  0.53578  0.47104  0.98947  1.0000
  H   H582      1.0  0.56511  0.34912  0.42554  1.0000
  H   H583      1.0  0.33521  0.32432  0.10629  1.0000
  N   N18       1.0  0.58748  0.31853  0.32100  1.0000
  C   C327      1.0  0.52218  0.05344  0.03879  1.0000
  C   C328      1.0  0.61177  0.36204  0.12982  1.0000
  H   H584      1.0  0.29816  0.46118  0.04014  1.0000
  H   H585      1.0  0.61629  0.33979  0.26613  1.0000
  C   C329      1.0  0.61096  0.00119  0.06477  1.0000
  H   H586      1.0  0.33347  0.28851  0.07380  1.0000
  C   C330      1.0  0.61998  0.25122  0.10514  1.0000
  S   S74       1.0  0.55195  0.39667  0.99891  1.0000
  H   H587      1.0  0.58314  0.24726  0.38980  1.0000
  H   H588      1.0  0.31427  0.47279  0.98374  1.0000
  S   S75       1.0  0.59178  0.09125  0.98662  1.0000
  H   H589      1.0  0.61936  0.27487  0.00118  1.0000
  H   H590      1.0  0.51716  0.06629  0.05362  1.0000
  S   S76       1.0  0.34391  0.44694  0.98485  1.0000
  H   H591      1.0  0.41898  0.32926  0.05149  1.0000
  H   H592      1.0  0.54297  0.06456  0.03097  1.0000
  Fe  Fe36      1.0  0.34251  0.41189  0.00671  1.0000
  H   H593      1.0  0.33782  0.00332  0.07008  1.0000
  C   C331      1.0  0.47341  0.97896  0.01855  1.0000
  H   H594      1.0  0.37446  0.31814  0.05029  1.0000
  C   C332      1.0  0.35331  0.00200  0.05479  1.0000
  H   H595      1.0  0.38647  0.38393  0.03983  1.0000
  C   C333      1.0  0.29480  0.40835  0.09068  1.0000
  H   H596      1.0  0.31154  0.43689  0.26099  1.0000
  H   H597      1.0  0.42460  0.41948  0.00441  1.0000
  C   C334      1.0  0.50770  0.04239  0.99490  1.0000
  H   H598      1.0  0.33484  0.99024  0.98889  1.0000
  H   H599      1.0  0.62579  0.31074  0.04509  1.0000
  C   C335      1.0  0.29518  0.27908  0.07334  1.0000
  H   H600      1.0  0.53795  0.21434  0.98293  1.0000
  C   C336      1.0  0.36091  0.34203  0.99429  1.0000
  C   C337      1.0  0.62591  0.38481  0.15259  1.0000
  C   C338      1.0  0.62507  0.40590  0.13881  1.0000
  H   H601      1.0  0.36090  0.32532  0.98266  1.0000
  H   H602      1.0  0.33737  0.35736  0.98210  1.0000
  Fe  Fe37      1.0  0.34559  0.43550  0.91267  1.0000
  S   S77       1.0  0.32131  0.43921  0.86076  1.0000
  C   C339      1.0  0.51551  0.18960  0.92997  1.0000
  C   C340      1.0  0.48814  0.01901  0.90620  1.0000
  H   H603      1.0  0.54172  0.43330  0.79810  1.0000
  C   C341      1.0  0.45667  0.05311  0.89064  1.0000
  N   N19       1.0  0.58354  0.25281  0.92631  1.0000
  C   C342      1.0  0.59736  0.23941  0.92979  1.0000
  H   H604      1.0  0.32597  0.34272  0.90275  1.0000
  C   C343      1.0  0.54180  0.40143  0.77471  1.0000
  C   C344      1.0  0.62553  0.47302  0.66841  1.0000
  C   C345      1.0  0.51479  0.02523  0.97092  1.0000
  C   C346      1.0  0.59529  0.30654  0.83711  1.0000
  H   H605      1.0  0.61565  0.28676  0.89095  1.0000
  S   S78       1.0  0.57457  0.12152  0.88489  1.0000
  H   H606      1.0  0.33017  0.43195  0.64773  1.0000
  H   H607      1.0  0.30606  0.45210  0.65219  1.0000
  S   S79       1.0  0.56286  0.16406  0.91431  1.0000
  Fe  Fe38      1.0  0.54147  0.12154  0.91561  1.0000
  S   S80       1.0  0.50371  0.09767  0.88187  1.0000
  Fe  Fe39      1.0  0.59676  0.16404  0.89051  1.0000
  S   S81       1.0  0.60358  0.26987  0.73726  1.0000
  H   H608      1.0  0.58794  0.31898  0.83481  1.0000
  H   H609      1.0  0.37889  0.35886  0.97867  1.0000
  H   H610      1.0  0.58671  0.30044  0.91024  1.0000
  H   H611      1.0  0.50539  0.17271  0.95430  1.0000
  S   S82       1.0  0.55104  0.43559  0.92297  1.0000
  H   H612      1.0  0.57954  0.19371  0.83058  1.0000
  H   H613      1.0  0.31921  0.40536  0.75873  1.0000
  C   C347      1.0  0.43659  0.02931  0.96314  1.0000
  Fe  Fe40      1.0  0.57109  0.41508  0.92951  1.0000
  S   S83       1.0  0.57092  0.39073  0.87225  1.0000
  C   C348      1.0  0.51453  0.97873  0.94163  1.0000
  H   H614      1.0  0.34710  0.40967  0.64789  1.0000
  C   C349      1.0  0.59905  0.07146  0.90751  1.0000
  C   C350      1.0  0.29588  0.43112  0.65677  1.0000
  C   C351      1.0  0.59558  0.03080  0.90775  1.0000
  H   H615      1.0  0.53681  0.39227  0.80993  1.0000
  C   C352      1.0  0.33868  0.34145  0.97106  1.0000
  C   C353      1.0  0.61138  0.46055  0.71470  1.0000
  H   H616      1.0  0.54688  0.98833  0.89611  1.0000
  H   H617      1.0  0.58132  0.00871  0.97182  1.0000
  H   H618      1.0  0.60440  0.08908  0.88965  1.0000
  C   C354      1.0  0.47730  0.07241  0.91407  1.0000
  C   C355      1.0  0.59718  0.39113  0.84750  1.0000
  H   H619      1.0  0.45676  0.99130  0.96999  1.0000
  H   H620      1.0  0.34287  0.32719  0.90584  1.0000
  H   H621      1.0  0.57786  0.12856  0.78456  1.0000
  C   C356      1.0  0.59275  0.37378  0.81340  1.0000
  C   C357      1.0  0.56407  0.11927  0.75676  1.0000
  H   H622      1.0  0.57347  0.36013  0.80377  1.0000
  H   H623      1.0  0.32346  0.38035  0.62601  1.0000
  H   H624      1.0  0.51786  0.18329  0.89586  1.0000
  S   S84       1.0  0.60953  0.16312  0.96186  1.0000
  C   C358      1.0  0.47179  0.40808  0.93903  1.0000
  H   H625      1.0  0.57149  0.17582  0.72455  1.0000
  H   H626      1.0  0.60908  0.34199  0.95091  1.0000
  S   S85       1.0  0.41033  0.41045  0.90780  1.0000
  H   H627      1.0  0.45671  0.05441  0.85336  1.0000
  H   H628      1.0  0.61633  0.31882  0.83815  1.0000
  H   H629      1.0  0.45534  0.46447  0.94096  1.0000
  H   H630      1.0  0.37920  0.37511  0.62814  1.0000
  C   C359      1.0  0.61308  0.37411  0.79115  1.0000
  Fe  Fe41      1.0  0.38659  0.46659  0.98110  1.0000
  H   H631      1.0  0.62795  0.01975  0.97726  1.0000
  H   H632      1.0  0.53287  0.03815  0.95015  1.0000
  H   H633      1.0  0.53829  0.05614  0.79488  1.0000
  S   S86       1.0  0.62553  0.19380  0.83772  1.0000
  S   S87       1.0  0.60600  0.44849  0.95798  1.0000
  C   C360      1.0  0.53155  0.10850  0.61897  1.0000
  C   C361      1.0  0.36629  0.38152  0.62110  1.0000
  C   C362      1.0  0.50599  0.99363  0.91369  1.0000
  C   C363      1.0  0.59049  0.22769  0.79059  1.0000
  C   C364      1.0  0.45258  0.40821  0.91527  1.0000
  Fe  Fe42      1.0  0.58452  0.46766  0.95793  1.0000
  H   H634      1.0  0.42094  0.01650  0.89661  1.0000
  C   C365      1.0  0.33779  0.38663  0.77443  1.0000
  H   H635      1.0  0.62147  0.29913  0.96328  1.0000
  C   C366      1.0  0.55629  0.23324  0.91508  1.0000
  C   C367      1.0  0.59514  0.21095  0.81377  1.0000
  H   H636      1.0  0.59267  0.44331  0.70718  1.0000
  C   C368      1.0  0.58439  0.04442  0.97695  1.0000
  N   N20       1.0  0.49467  0.00545  0.94088  1.0000
  H   H637      1.0  0.34611  0.37691  0.75846  1.0000
  S   S88       1.0  0.34212  0.39946  0.93447  1.0000
  H   H638      1.0  0.56985  0.08356  0.80225  1.0000
  C   C369      1.0  0.33417  0.38909  0.65754  1.0000
  C   C370      1.0  0.59100  0.06731  0.95417  1.0000
  H   H639      1.0  0.36618  0.39158  0.69091  1.0000
  C   C371      1.0  0.31415  0.42416  0.67374  1.0000
  H   H640      1.0  0.56265  0.27653  0.87505  1.0000
  H   H641      1.0  0.37798  0.40150  0.60715  1.0000
  H   H642      1.0  0.53968  0.14244  0.68069  1.0000
  H   H643      1.0  0.62211  0.45405  0.73303  1.0000
  C   C372      1.0  0.59707  0.16766  0.69436  1.0000
  H   H644      1.0  0.46678  0.99437  0.79664  1.0000
  H   H645      1.0  0.57133  0.22335  0.79015  1.0000
  C   C373      1.0  0.58631  0.02611  0.95373  1.0000
  H   H646      1.0  0.32170  0.43394  0.70647  1.0000
  C   C374      1.0  0.54312  0.09205  0.77559  1.0000
  H   H647      1.0  0.55180  0.19993  0.95298  1.0000
  C   C375      1.0  0.35175  0.37953  0.66576  1.0000
  C   C376      1.0  0.55480  0.43015  0.77753  1.0000
  H   H648      1.0  0.62582  0.42190  0.88625  1.0000
  H   H649      1.0  0.48474  0.40466  0.92075  1.0000
  C   C377      1.0  0.43513  0.41191  0.93868  1.0000
  H   H650      1.0  0.55567  0.22656  0.87948  1.0000
  H   H651      1.0  0.57647  0.43779  0.83851  1.0000
  C   C378      1.0  0.58337  0.28864  0.88002  1.0000
  H   H652      1.0  0.34904  0.41530  0.82597  1.0000
  C   C379      1.0  0.54594  0.11290  0.66316  1.0000
  Fe  Fe43      1.0  0.38498  0.42283  0.93668  1.0000
  H   H653      1.0  0.54064  0.09402  0.67730  1.0000
  H   H654      1.0  0.58861  0.16567  0.66031  1.0000
  C   C380      1.0  0.57751  0.16273  0.73345  1.0000
  C   C381      1.0  0.53860  0.13574  0.78080  1.0000
  C   C382      1.0  0.53905  0.12638  0.69904  1.0000
  H   H655      1.0  0.51247  0.05847  0.97067  1.0000
  C   C383      1.0  0.52898  0.15355  0.77412  1.0000
  C   C384      1.0  0.50923  0.14840  0.81207  1.0000
  H   H656      1.0  0.45106  0.40510  0.87861  1.0000
  C   C385      1.0  0.43643  0.03155  0.91508  1.0000
  H   H657      1.0  0.54905  0.14077  0.81348  1.0000
  H   H658      1.0  0.52121  0.11632  0.78735  1.0000
  H   H659      1.0  0.51856  0.11246  0.70911  1.0000
  H   H660      1.0  0.37504  0.42000  0.78924  1.0000
  C   C386      1.0  0.46881  0.00214  0.86943  1.0000
  H   H661      1.0  0.53634  0.09833  0.59438  1.0000
  H   H662      1.0  0.52011  0.15093  0.74035  1.0000
  H   H663      1.0  0.54482  0.17374  0.77606  1.0000
  H   H664      1.0  0.49209  0.12874  0.81060  1.0000
  H   H665      1.0  0.51733  0.15082  0.84663  1.0000
  H   H666      1.0  0.50332  0.16194  0.80753  1.0000
  C   C387      1.0  0.60159  0.05342  0.88462  1.0000
  H   H667      1.0  0.30848  0.34889  0.72397  1.0000
  C   C388      1.0  0.55337  0.07508  0.77952  1.0000
  H   H668      1.0  0.47948  0.02794  0.92426  1.0000
  H   H669      1.0  0.59006  0.43288  0.79011  1.0000
  H   H670      1.0  0.60938  0.36082  0.76461  1.0000
  H   H671      1.0  0.36000  0.36147  0.90688  1.0000
  H   H672      1.0  0.35288  0.36924  0.59474  1.0000
  S   S89       1.0  0.60127  0.00969  0.87888  1.0000
  C   C389      1.0  0.62219  0.40859  0.85982  1.0000
  H   H673      1.0  0.55435  0.39688  0.75611  1.0000
  N   N21       1.0  0.31620  0.38513  0.69716  1.0000
  H   H674      1.0  0.58920  0.22317  0.90635  1.0000
  H   H675      1.0  0.32046  0.37205  0.79515  1.0000
  C   C390      1.0  0.59508  0.27271  0.88702  1.0000
  H   H676      1.0  0.52394  0.39335  0.75595  1.0000
  H   H677      1.0  0.51066  0.09673  0.62672  1.0000
  H   H678      1.0  0.29944  0.38458  0.86830  1.0000
  C   C391      1.0  0.35686  0.40553  0.80790  1.0000
  H   H679      1.0  0.36098  0.39534  0.83422  1.0000
  C   C392      1.0  0.29541  0.41291  0.83493  1.0000
  C   C393      1.0  0.33068  0.40006  0.73826  1.0000
  H   H680      1.0  0.59018  0.29544  0.80540  1.0000
  H   H681      1.0  0.55933  0.07242  0.74491  1.0000
  S   S90       1.0  0.38845  0.45797  0.90710  1.0000
  H   H682      1.0  0.56649  0.12389  0.65349  1.0000
  H   H683      1.0  0.52744  0.98987  0.96926  1.0000
  H   H684      1.0  0.60358  0.15461  0.69755  1.0000
  H   H685      1.0  0.52269  0.00863  0.89182  1.0000
  H   H686      1.0  0.34834  0.41844  0.72642  1.0000
  H   H687      1.0  0.54475  0.24162  0.91520  1.0000
  H   H688      1.0  0.57515  0.11749  0.72865  1.0000
  H   H689      1.0  0.45405  0.00651  0.86725  1.0000
  H   H690      1.0  0.50576  0.03538  0.88854  1.0000
  C   C394      1.0  0.62070  0.19477  0.69513  1.0000
  H   H691      1.0  0.59396  0.26353  0.85391  1.0000
  Fe  Fe44      1.0  0.58402  0.12029  0.95841  1.0000
  C   C395      1.0  0.61043  0.24986  0.76739  1.0000
  N   N22       1.0  0.55480  0.13575  0.74139  1.0000
  C   C396      1.0  0.62636  0.25520  0.91721  1.0000
  H   H692      1.0  0.58788  0.16948  0.76598  1.0000
  C   C397      1.0  0.61969  0.21595  0.81321  1.0000
  H   H693      1.0  0.34094  0.35939  0.67842  1.0000
  H   H694      1.0  0.53697  0.12693  0.60214  1.0000
  C   C398      1.0  0.54143  0.20931  0.94839  1.0000
  H   H695      1.0  0.52651  0.08292  0.75334  1.0000
  C   C399      1.0  0.34217  0.34330  0.91842  1.0000
  H   H696      1.0  0.55706  0.43836  0.74213  1.0000
  H   H697      1.0  0.44963  0.47046  0.85938  1.0000
  H   H698      1.0  0.53627  0.09283  0.81077  1.0000
  H   H699      1.0  0.60867  0.05721  0.84901  1.0000
  C   C400      1.0  0.62547  0.35710  0.92906  1.0000
  C   C401      1.0  0.29818  0.35735  0.71135  1.0000
  H   H700      1.0  0.61857  0.35784  0.89452  1.0000
  H   H701      1.0  0.50368  0.19758  0.92654  1.0000
  H   H702      1.0  0.59433  0.23068  0.96518  1.0000
  C   C402      1.0  0.48133  0.00717  0.82104  1.0000
  H   H703      1.0  0.61544  0.20893  0.69317  1.0000
  H   H704      1.0  0.45818  0.98151  0.87862  1.0000
  H   H705      1.0  0.49214  0.97976  0.88946  1.0000
  H   H706      1.0  0.48936  0.02715  0.80908  1.0000
  H   H707      1.0  0.62727  0.45918  0.64841  1.0000
  C   C403      1.0  0.58077  0.44275  0.80092  1.0000
  H   H708      1.0  0.49666  0.00354  0.82049  1.0000
  N   N23       1.0  0.59836  0.47122  0.79298  1.0000
  C   C404      1.0  0.58323  0.26381  0.97183  1.0000
  H   H709      1.0  0.57119  0.27167  0.97046  1.0000
  C   C405      1.0  0.47057  0.98548  0.96799  1.0000
  C   C406      1.0  0.30031  0.39485  0.68084  1.0000
  H   H710      1.0  0.32017  0.32352  0.98029  1.0000
  C   C407      1.0  0.47680  0.07077  0.96233  1.0000
  H   H711      1.0  0.49231  0.08580  0.98080  1.0000
  H   H712      1.0  0.49411  0.46600  0.98015  1.0000
  C   C408      1.0  0.34478  0.94421  0.12632  1.0000
  H   H713      1.0  0.43486  0.96598  0.04252  1.0000
  C   C409      1.0  0.52030  0.88322  0.10140  1.0000
  H   H714      1.0  0.47325  0.82054  0.09013  1.0000
  C   C410      1.0  0.51663  0.81971  0.10439  1.0000
  H   H715      1.0  0.36714  0.90840  0.08207  1.0000
  H   H716      1.0  0.57775  0.94287  0.09904  1.0000
  H   H717      1.0  0.54211  0.56995  0.06571  1.0000
  H   H718      1.0  0.52209  0.81039  0.17429  1.0000
  H   H719      1.0  0.54470  0.85915  0.10524  1.0000
  H   H720      1.0  0.45962  0.55015  0.03864  1.0000
  H   H721      1.0  0.30611  0.92047  0.02272  1.0000
  S   S91       1.0  0.60798  0.84454  0.13227  1.0000
  C   C411      1.0  0.59159  0.54864  0.02269  1.0000
  H   H722      1.0  0.48591  0.97177  0.02021  1.0000
  H   H723      1.0  0.55625  0.90240  0.05913  1.0000
  C   C412      1.0  0.52918  0.81140  0.13831  1.0000
  C   C413      1.0  0.54526  0.61892  0.13528  1.0000
  S   S92       1.0  0.41432  0.50453  0.01183  1.0000
  H   H724      1.0  0.62317  0.92329  0.48032  1.0000
  H   H725      1.0  0.45018  0.95469  0.07766  1.0000
  C   C414      1.0  0.57291  0.64160  0.13187  1.0000
  S   S93       1.0  0.56833  0.68287  0.05759  1.0000
  C   C415      1.0  0.61668  0.91498  0.06101  1.0000
  C   C416      1.0  0.46615  0.85046  0.08358  1.0000
  H   H726      1.0  0.45526  0.90295  0.01421  1.0000
  H   H727      1.0  0.54797  0.93559  0.07727  1.0000
  H   H728      1.0  0.49992  0.48564  0.02771  1.0000
  C   C417      1.0  0.61855  0.71721  0.07888  1.0000
  H   H729      1.0  0.51142  0.89147  0.08143  1.0000
  C   C418      1.0  0.59411  0.86916  0.07381  1.0000
  C   C419      1.0  0.59653  0.89046  0.05147  1.0000
  C   C420      1.0  0.43770  0.82982  0.08662  1.0000
  C   C421      1.0  0.44760  0.95894  0.04164  1.0000
  H   H730      1.0  0.51120  0.56516  0.05941  1.0000
  H   H731      1.0  0.57845  0.85026  0.06619  1.0000
  H   H732      1.0  0.58278  0.88785  0.02697  1.0000
  H   H733      1.0  0.51620  0.54948  0.10648  1.0000
  H   H734      1.0  0.37908  0.95286  0.08443  1.0000
  C   C422      1.0  0.52122  0.55591  0.06955  1.0000
  C   C423      1.0  0.35894  0.93729  0.09141  1.0000
  C   C424      1.0  0.55675  0.92964  0.10285  1.0000
  H   H735      1.0  0.52366  0.81924  0.06917  1.0000
  H   H736      1.0  0.53807  0.61424  0.17189  1.0000
  C   C425      1.0  0.59318  0.70963  0.08480  1.0000
  C   C426      1.0  0.58709  0.72281  0.11497  1.0000
  H   H737      1.0  0.51490  0.87280  0.01797  1.0000
  C   C427      1.0  0.46052  0.55001  0.00133  1.0000
  H   H738      1.0  0.33225  0.96099  0.05142  1.0000
  Fe  Fe45      1.0  0.57501  0.66033  0.00620  1.0000
  H   H739      1.0  0.49251  0.51959  0.04657  1.0000
  H   H740      1.0  0.58654  0.54682  0.05917  1.0000
  H   H741      1.0  0.34947  0.93280  0.05792  1.0000
  H   H742      1.0  0.51506  0.88312  0.13848  1.0000
  H   H743      1.0  0.30784  0.95548  0.11738  1.0000
  H   H744      1.0  0.32438  0.92839  0.12436  1.0000
  H   H745      1.0  0.58849  0.51270  0.02214  1.0000
  C   C428      1.0  0.61203  0.87208  0.10532  1.0000
  C   C429      1.0  0.51326  0.53313  0.04004  1.0000
  H   H746      1.0  0.58898  0.61940  0.13720  1.0000
  H   H747      1.0  0.47162  0.85796  0.04726  1.0000
  H   H748      1.0  0.54349  0.60210  0.11995  1.0000
  H   H749      1.0  0.33090  0.96687  0.21392  1.0000
  C   C430      1.0  0.52389  0.84696  0.11352  1.0000
  H   H750      1.0  0.57868  0.64633  0.09472  1.0000
  H   H751      1.0  0.54198  0.49153  0.03736  1.0000
  H   H752      1.0  0.52353  0.52454  0.05251  1.0000
  H   H753      1.0  0.53451  0.86137  0.02830  1.0000
  H   H754      1.0  0.53331  0.62370  0.11597  1.0000
  H   H755      1.0  0.49724  0.58547  0.99416  1.0000
  H   H756      1.0  0.43846  0.94111  0.02279  1.0000
  H   H757      1.0  0.55054  0.93091  0.13830  1.0000
  H   H758      1.0  0.56753  0.71717  0.11956  1.0000
  H   H759      1.0  0.57341  0.65780  0.14721  1.0000
  H   H760      1.0  0.52144  0.84832  0.15136  1.0000
  C   C431      1.0  0.51503  0.85701  0.03553  1.0000
  H   H761      1.0  0.58610  0.66098  0.22517  1.0000
  C   C432      1.0  0.31572  0.95573  0.18944  1.0000
  H   H762      1.0  0.60103  0.75263  0.16388  1.0000
  S   S94       1.0  0.31381  0.87904  0.02052  1.0000
  C   C433      1.0  0.59056  0.63533  0.15621  1.0000
  C   C434      1.0  0.59705  0.57033  0.99678  1.0000
  H   H763      1.0  0.58228  0.62718  0.19153  1.0000
  H   H764      1.0  0.62083  0.67243  0.08939  1.0000
  C   C435      1.0  0.48218  0.84030  0.10125  1.0000
  H   H765      1.0  0.62351  0.70755  0.05505  1.0000
  H   H766      1.0  0.55991  0.89847  0.11966  1.0000
  S   S95       1.0  0.55212  0.61751  0.00916  1.0000
  H   H767      1.0  0.33820  0.89747  0.11546  1.0000
  S   S96       1.0  0.59601  0.59457  0.02467  1.0000
  H   H768      1.0  0.42689  0.83800  0.07499  1.0000
  C   C436      1.0  0.60605  0.74296  0.14001  1.0000
  N   N24       1.0  0.51013  0.85643  0.08703  1.0000
  S   S97       1.0  0.61198  0.66433  0.98906  1.0000
  H   H769      1.0  0.55021  0.82486  0.13618  1.0000
  H   H770      1.0  0.59999  0.69702  0.27569  1.0000
  C   C437      1.0  0.60947  0.70021  0.24107  1.0000
  H   H771      1.0  0.43336  0.81407  0.06389  1.0000
  H   H772      1.0  0.36877  0.91778  0.14087  1.0000
  H   H773      1.0  0.47964  0.83842  0.13966  1.0000
  C   C438      1.0  0.35819  0.91382  0.10873  1.0000
  H   H774      1.0  0.35020  0.94244  0.16181  1.0000
  C   C439      1.0  0.54948  0.90263  0.09464  1.0000
  H   H775      1.0  0.61388  0.68886  0.15435  1.0000
  H   H776      1.0  0.46926  0.86625  0.10503  1.0000
  H   H777      1.0  0.43134  0.82219  0.12277  1.0000
  H   H778      1.0  0.49584  0.80554  0.10804  1.0000
  H   H779      1.0  0.52466  0.79228  0.12986  1.0000
  S   S98       1.0  0.61985  0.94223  0.03453  1.0000
  C   C440      1.0  0.60675  0.67574  0.22613  1.0000
  H   H780      1.0  0.60039  0.70620  0.21623  1.0000
  H   H781      1.0  0.61500  0.66991  0.25298  1.0000
  H   H782      1.0  0.31043  0.93578  0.19160  1.0000
  H   H783      1.0  0.59125  0.89623  0.47138  1.0000
  N   N25       1.0  0.61808  0.65703  0.15802  1.0000
  H   H784      1.0  0.49417  0.81560  0.02408  1.0000
  H   H785      1.0  0.60711  0.86770  0.47597  1.0000
  H   H786      1.0  0.47695  0.82961  0.00980  1.0000
  H   H787      1.0  0.54149  0.55434  0.98677  1.0000
  C   C441      1.0  0.62059  0.68008  0.17850  1.0000
  C   C442      1.0  0.49615  0.83290  0.00913  1.0000
  H   H788      1.0  0.29992  0.48764  0.01083  1.0000
  C   C443      1.0  0.61185  0.90383  0.46698  1.0000
  H   H789      1.0  0.61673  0.90506  0.42949  1.0000
  C   C444      1.0  0.59259  0.52920  0.00174  1.0000
  C   C445      1.0  0.52694  0.47566  0.01775  1.0000
  C   C446      1.0  0.32432  0.96734  0.13928  1.0000
  H   H790      1.0  0.60969  0.82400  0.46985  1.0000
  N   N26       1.0  0.34789  0.96964  0.11893  1.0000
  Fe  Fe46      1.0  0.58853  0.62151  0.98609  1.0000
  H   H791      1.0  0.59845  0.84889  0.98741  1.0000
  H   H792      1.0  0.62179  0.64177  0.22250  1.0000
  H   H793      1.0  0.61426  0.60908  0.16688  1.0000
  H   H794      1.0  0.62494  0.64704  0.09050  1.0000
  C   C447      1.0  0.52042  0.54143  0.98829  1.0000
  H   H795      1.0  0.47518  0.49481  0.99110  1.0000
  C   C448      1.0  0.50924  0.48264  0.99815  1.0000
  Fe  Fe47      1.0  0.35146  0.93700  0.87896  1.0000
  S   S99       1.0  0.32863  0.94232  0.82584  1.0000
  S   S100      1.0  0.39429  0.96059  0.88106  1.0000
  C   C449      1.0  0.44151  0.53002  0.93027  1.0000
  C   C450      1.0  0.46305  0.54995  0.90508  1.0000
  H   H796      1.0  0.42581  0.51489  0.91236  1.0000
  H   H797      1.0  0.46392  0.54982  0.86778  1.0000
  S   S101      1.0  0.51086  0.59389  0.89557  1.0000
  C   C451      1.0  0.47933  0.91198  0.90418  1.0000
  S   S102      1.0  0.41975  0.91782  0.87615  1.0000
  C   C452      1.0  0.48348  0.56985  0.92797  1.0000
  C   C453      1.0  0.44151  0.91380  0.90656  1.0000
  H   H798      1.0  0.31458  0.89065  0.81179  1.0000
  S   S103      1.0  0.34790  0.90049  0.89816  1.0000
  H   H799      1.0  0.51310  0.51845  0.88009  1.0000
  H   H800      1.0  0.46327  0.91810  0.84446  1.0000
  Fe  Fe48      1.0  0.39045  0.92463  0.90694  1.0000
  C   C454      1.0  0.46153  0.91494  0.88159  1.0000
  H   H801      1.0  0.49455  0.91280  0.88436  1.0000
  H   H802      1.0  0.49878  0.63024  0.77402  1.0000
  H   H803      1.0  0.49418  0.58399  0.69084  1.0000
  H   H804      1.0  0.51102  0.54391  0.89935  1.0000
  H   H805      1.0  0.49703  0.64775  0.83835  1.0000
  Fe  Fe49      1.0  0.38838  0.96555  0.95546  1.0000
  H   H806      1.0  0.49122  0.57960  0.75291  1.0000
  C   C455      1.0  0.49321  0.59232  0.72357  1.0000
  H   H807      1.0  0.47615  0.59330  0.72369  1.0000
  H   H808      1.0  0.51415  0.61760  0.80199  1.0000
  C   C456      1.0  0.47750  0.90810  0.95217  1.0000
  S   S104      1.0  0.34596  0.94534  0.95174  1.0000
  C   C457      1.0  0.51550  0.66567  0.84424  1.0000
  C   C458      1.0  0.51738  0.61883  0.72717  1.0000
  C   C459      1.0  0.51673  0.63080  0.77293  1.0000
  H   H809      1.0  0.51844  0.67215  0.74961  1.0000
  C   C460      1.0  0.43921  0.90920  0.95445  1.0000
  H   H810      1.0  0.51884  0.63065  0.69683  1.0000
  H   H811      1.0  0.47517  0.51589  0.95163  1.0000
  N   N27       1.0  0.51169  0.52054  0.95447  1.0000
  H   H812      1.0  0.51326  0.55349  0.97871  1.0000
  C   C461      1.0  0.48298  0.50395  0.95640  1.0000
  H   H813      1.0  0.49998  0.67292  0.90507  1.0000
  H   H814      1.0  0.51342  0.65464  0.91690  1.0000
  H   H815      1.0  0.32356  0.86164  0.56757  1.0000
  C   C462      1.0  0.51987  0.53303  0.90656  1.0000
  C   C463      1.0  0.32812  0.88126  0.57020  1.0000
  H   H816      1.0  0.34360  0.89141  0.59475  1.0000
  H   H817      1.0  0.33508  0.89141  0.53583  1.0000
  H   H818      1.0  0.30436  0.84833  0.85559  1.0000
  H   H819      1.0  0.31078  0.90074  0.59100  1.0000
  H   H820      1.0  0.52666  0.49852  0.93106  1.0000
  C   C464      1.0  0.30268  0.91622  0.79928  1.0000
  C   C465      1.0  0.30472  0.88067  0.58777  1.0000
  H   H821      1.0  0.52396  0.83924  0.95480  1.0000
  H   H822      1.0  0.53373  0.61673  0.72520  1.0000
  C   C466      1.0  0.50475  0.83589  0.95828  1.0000
  H   H823      1.0  0.50523  0.85209  0.94107  1.0000
  C   C467      1.0  0.30020  0.89284  0.79741  1.0000
  C   C468      1.0  0.52385  0.50595  0.96358  1.0000
  H   H824      1.0  0.30515  0.83893  0.91471  1.0000
  H   H825      1.0  0.47247  0.50432  0.86092  1.0000
  C   C469      1.0  0.44035  0.52977  0.97859  1.0000
  H   H826      1.0  0.57608  0.47670  0.84367  1.0000
  C   C470      1.0  0.51587  0.67078  0.89561  1.0000
  H   H827      1.0  0.49120  0.81834  0.94026  1.0000
  H   H828      1.0  0.62321  0.84629  0.92347  1.0000
  H   H829      1.0  0.51734  0.96080  0.88019  1.0000
  H   H830      1.0  0.59425  0.48165  0.72348  1.0000
  C   C471      1.0  0.45845  0.48698  0.88196  1.0000
  C   C472      1.0  0.45713  0.90637  0.97716  1.0000
  H   H831      1.0  0.53307  0.95891  0.92972  1.0000
  C   C473      1.0  0.47073  0.48202  0.92197  1.0000
  C   C474      1.0  0.48193  0.57000  0.97616  1.0000
  H   H832      1.0  0.49763  0.96099  0.95704  1.0000
  H   H833      1.0  0.29907  0.87084  0.62233  1.0000
  H   H834      1.0  0.51632  0.68146  0.82479  1.0000
  H   H835      1.0  0.46050  0.96732  0.94958  1.0000
  C   C475      1.0  0.53772  0.67549  0.74716  1.0000
  H   H836      1.0  0.54023  0.67170  0.71081  1.0000
  N   N28       1.0  0.53920  0.65747  0.77994  1.0000
  C   C476      1.0  0.52881  0.97124  0.90991  1.0000
  C   C477      1.0  0.62304  0.86383  0.92399  1.0000
  H   H837      1.0  0.62631  0.79059  0.86842  1.0000
  H   H838      1.0  0.44328  0.48925  0.89555  1.0000
  H   H839      1.0  0.57411  0.87256  0.70725  1.0000
  C   C478      1.0  0.61793  0.88639  0.49218  1.0000
  H   H840      1.0  0.61729  0.90263  0.55732  1.0000
  H   H841      1.0  0.53667  0.64854  0.85280  1.0000
  H   H842      1.0  0.57159  0.51455  0.84822  1.0000
  H   H843      1.0  0.61474  0.88625  0.66968  1.0000
  C   C479      1.0  0.58376  0.48281  0.80730  1.0000
  H   H844      1.0  0.61991  0.86757  0.88788  1.0000
  H   H845      1.0  0.42336  0.90739  0.97375  1.0000
  H   H846      1.0  0.54600  0.57330  0.84083  1.0000
  H   H847      1.0  0.55151  0.62165  0.79984  1.0000
  H   H848      1.0  0.56577  0.51397  0.78720  1.0000
  C   C480      1.0  0.62033  0.48098  0.82458  1.0000
  H   H849      1.0  0.61300  0.47592  0.86131  1.0000
  Fe  Fe50      1.0  0.58628  0.96935  0.90602  1.0000
  C   C481      1.0  0.53810  0.66358  0.82955  1.0000
  C   C482      1.0  0.62437  0.91507  0.79433  1.0000
  H   H850      1.0  0.53411  0.71697  0.72681  1.0000
  H   H851      1.0  0.62601  0.49806  0.74109  1.0000
  Fe  Fe51      1.0  0.59351  0.93807  0.97837  1.0000
  H   H852      1.0  0.59704  0.70932  0.88179  1.0000
  H   H853      1.0  0.53407  0.68854  0.90372  1.0000
  S   S105      1.0  0.56034  0.90150  0.95505  1.0000
  Fe  Fe52      1.0  0.57645  0.91725  0.88321  1.0000
  H   H854      1.0  0.57554  0.57507  0.84004  1.0000
  H   H855      1.0  0.60754  0.51973  0.76826  1.0000
  C   C483      1.0  0.60312  0.89117  0.80856  1.0000
  C   C484      1.0  0.60770  0.47904  0.74309  1.0000
  C   C485      1.0  0.62203  0.75360  0.79228  1.0000
  S   S106      1.0  0.55322  0.93442  0.87519  1.0000
  S   S107      1.0  0.61060  0.95321  0.90693  1.0000
  H   H856      1.0  0.62551  0.93207  0.80441  1.0000
  H   H857      1.0  0.56696  0.47585  0.78581  1.0000
  H   H858      1.0  0.59181  0.54234  0.81110  1.0000
  H   H859      1.0  0.60951  0.80387  0.51562  1.0000
  H   H860      1.0  0.54348  0.51907  0.97551  1.0000
  C   C486      1.0  0.62132  0.87113  0.76650  1.0000
  S   S108      1.0  0.57697  0.88756  0.84081  1.0000
  H   H861      1.0  0.61986  0.85409  0.75564  1.0000
  H   H862      1.0  0.58278  0.83240  0.52356  1.0000
  H   H863      1.0  0.61358  0.52125  0.82881  1.0000
  H   H864      1.0  0.59498  0.88856  0.62885  1.0000
  H   H865      1.0  0.57312  0.84488  0.89612  1.0000
  H   H866      1.0  0.55498  0.71633  0.68339  1.0000
  C   C487      1.0  0.60089  0.85758  0.61654  1.0000
  S   S109      1.0  0.60100  0.50752  0.92671  1.0000
  C   C488      1.0  0.59540  0.82690  0.53740  1.0000
  H   H867      1.0  0.55758  0.56740  0.91887  1.0000
  H   H868      1.0  0.48430  0.47757  0.90793  1.0000
  C   C489      1.0  0.59106  0.64171  0.77951  1.0000
  C   C490      1.0  0.62121  0.85047  0.55134  1.0000
  C   C491      1.0  0.60184  0.86927  0.79487  1.0000
  C   C492      1.0  0.55462  0.56215  0.84644  1.0000
  Fe  Fe53      1.0  0.60174  0.66443  0.91522  1.0000
  C   C493      1.0  0.61050  0.88342  0.54467  1.0000
  H   H869      1.0  0.57725  0.70916  0.74521  1.0000
  S   S110      1.0  0.61778  0.77665  0.76692  1.0000
  N   N29       1.0  0.61953  0.87052  0.57550  1.0000
  Fe  Fe54      1.0  0.53996  0.92157  0.94928  1.0000
  H   H870      1.0  0.59831  0.87425  0.95727  1.0000
  C   C494      1.0  0.60535  0.55335  0.92906  1.0000
  S   S111      1.0  0.56602  0.66259  0.93268  1.0000
  C   C495      1.0  0.60629  0.73878  0.83059  1.0000
  H   H871      1.0  0.60630  0.84670  0.63846  1.0000
  H   H872      1.0  0.55693  0.84937  0.66444  1.0000
  C   C496      1.0  0.55322  0.72049  0.71982  1.0000
  H   H873      1.0  0.59476  0.62990  0.80257  1.0000
  H   H874      1.0  0.55789  0.83194  0.95234  1.0000
  H   H875      1.0  0.57683  0.84570  0.70344  1.0000
  H   H876      1.0  0.58541  0.81390  0.56819  1.0000
  H   H877      1.0  0.58934  0.87291  0.54689  1.0000
  H   H878      1.0  0.60865  0.58937  0.92962  1.0000
  C   C497      1.0  0.56409  0.65992  0.77021  1.0000
  C   C498      1.0  0.54890  0.55112  0.89605  1.0000
  H   H879      1.0  0.61108  0.55551  0.89289  1.0000
  H   H880      1.0  0.58040  0.67935  0.77766  1.0000
  H   H881      1.0  0.54711  0.54676  0.82146  1.0000
  C   C499      1.0  0.56821  0.64155  0.79897  1.0000
  C   C500      1.0  0.59938  0.53141  0.95472  1.0000
  H   H882      1.0  0.57204  0.64776  0.83503  1.0000
  H   H883      1.0  0.58544  0.85070  0.80557  1.0000
  C   C501      1.0  0.59895  0.85718  0.95292  1.0000
  C   C502      1.0  0.59853  0.51231  0.80330  1.0000
  C   C503      1.0  0.59776  0.87513  0.64878  1.0000
  H   H884      1.0  0.58154  0.84339  0.60477  1.0000
  H   H885      1.0  0.60839  0.66136  0.77727  1.0000
  C   C504      1.0  0.58074  0.52123  0.81299  1.0000
  Fe  Fe55      1.0  0.54662  0.62019  0.93385  1.0000
  H   H886      1.0  0.55832  0.54072  0.90041  1.0000
  C   C505      1.0  0.57473  0.83723  0.92979  1.0000
  C   C506      1.0  0.60884  0.72007  0.85165  1.0000
  H   H887      1.0  0.56670  0.65793  0.73279  1.0000
  C   C507      1.0  0.59903  0.81181  0.50116  1.0000
  C   C508      1.0  0.55767  0.70426  0.75294  1.0000
  H   H888      1.0  0.56773  0.74094  0.72463  1.0000
  H   H889      1.0  0.55676  0.70997  0.78843  1.0000
  H   H890      1.0  0.59220  0.74196  0.84436  1.0000
  C   C509      1.0  0.60394  0.57258  0.94980  1.0000
  H   H891      1.0  0.55609  0.68146  0.83820  1.0000
  H   H892      1.0  0.58020  0.79572  0.49082  1.0000
  C   C510      1.0  0.57497  0.85964  0.68293  1.0000
  H   H893      1.0  0.58729  0.63380  0.74461  1.0000
  S   S112      1.0  0.58187  0.62200  0.91061  1.0000
  H   H894      1.0  0.57466  0.81984  0.92411  1.0000
  Fe  Fe56      1.0  0.34446  0.91002  0.97126  1.0000
  H   H895      1.0  0.61500  0.47912  0.64784  1.0000
  C   C511      1.0  0.62688  0.71568  0.83415  1.0000
  S   S113      1.0  0.57210  0.95709  0.97947  1.0000
  S   S114      1.0  0.50031  0.90540  0.98184  1.0000
  S   S115      1.0  0.38660  0.93079  0.98169  1.0000
  S   S116      1.0  0.67324  0.36430  0.22851  1.0000
  H   H896      1.0  0.89588  0.34008  0.00767  1.0000
  S   S117      1.0  0.67235  0.33670  0.13226  1.0000
  Fe  Fe57      1.0  0.70131  0.36238  0.18168  1.0000
  S   S118      1.0  0.73658  0.39749  0.14866  1.0000
  S   S119      1.0  0.69894  0.33063  0.22342  1.0000
  H   H897      1.0  0.92398  0.00359  0.24609  1.0000
  N   N30       1.0  0.71390  0.44655  0.07679  1.0000
  H   H898      1.0  0.90039  0.41838  0.13592  1.0000
  C   C512      1.0  0.73488  0.05165  0.00141  1.0000
  H   H899      1.0  0.71560  0.41320  0.07381  1.0000
  H   H900      1.0  0.65308  0.29581  0.43668  1.0000
  H   H901      1.0  0.67573  0.39274  0.11370  1.0000
  C   C513      1.0  0.68909  0.23632  0.99066  1.0000
  S   S120      1.0  0.66782  0.27312  0.14063  1.0000
  H   H902      1.0  0.82621  0.32147  0.03745  1.0000
  C   C514      1.0  0.66584  0.37578  0.04796  1.0000
  H   H903      1.0  0.83266  0.34615  0.07485  1.0000
  H   H904      1.0  0.86284  0.32116  0.06013  1.0000
  H   H905      1.0  0.68141  0.33203  0.03445  1.0000
  H   H906      1.0  0.76804  0.34662  0.09072  1.0000
  H   H907      1.0  0.70501  0.42406  0.21637  1.0000
  C   C515      1.0  0.75761  0.39252  0.11662  1.0000
  C   C516      1.0  0.75348  0.36838  0.11531  1.0000
  C   C517      1.0  0.77064  0.36494  0.09010  1.0000
  C   C518      1.0  0.79146  0.38521  0.06465  1.0000
  C   C519      1.0  0.79556  0.40935  0.06574  1.0000
  C   C520      1.0  0.77885  0.41303  0.09214  1.0000
  H   H908      1.0  0.73740  0.35249  0.13453  1.0000
  H   H909      1.0  0.93419  0.38014  0.07197  1.0000
  H   H910      1.0  0.81185  0.42527  0.04704  1.0000
  H   H911      1.0  0.78263  0.43188  0.09396  1.0000
  C   C521      1.0  0.66588  0.33196  0.40277  1.0000
  C   C522      1.0  0.67407  0.35719  0.41027  1.0000
  H   H912      1.0  0.66070  0.40268  0.32125  1.0000
  H   H913      1.0  0.74472  0.29532  0.16725  1.0000
  C   C523      1.0  0.81890  0.31021  0.10930  1.0000
  C   C524      1.0  0.87053  0.36393  0.99661  1.0000
  H   H914      1.0  0.66083  0.29825  0.04648  1.0000
  H   H915      1.0  0.68897  0.04205  0.03747  1.0000
  H   H916      1.0  0.63555  0.05898  0.98946  1.0000
  C   C525      1.0  0.70047  0.31214  0.03043  1.0000
  C   C526      1.0  0.64129  0.25000  0.11042  1.0000
  H   H917      1.0  0.70552  0.42012  0.02297  1.0000
  H   H918      1.0  0.90338  0.38463  0.09632  1.0000
  H   H919      1.0  0.70806  0.47004  0.99281  1.0000
  C   C527      1.0  0.67711  0.31327  0.02421  1.0000
  S   S121      1.0  0.66290  0.31990  0.34603  1.0000
  H   H920      1.0  0.79877  0.30435  0.10793  1.0000
  S   S122      1.0  0.88261  0.43071  0.98506  1.0000
  H   H921      1.0  0.72967  0.03273  0.98989  1.0000
  C   C528      1.0  0.92119  0.36011  0.06215  1.0000
  C   C529      1.0  0.65930  0.31533  0.44172  1.0000
  H   H922      1.0  0.68461  0.01951  0.99729  1.0000
  H   H923      1.0  0.72835  0.26268  0.05545  1.0000
  H   H924      1.0  0.69253  0.22825  0.02181  1.0000
  H   H925      1.0  0.66391  0.10275  0.01622  1.0000
  H   H926      1.0  0.93405  0.46972  0.00486  1.0000
  H   H927      1.0  0.70387  0.31337  0.06774  1.0000
  H   H928      1.0  0.95388  0.04779  0.02126  1.0000
  H   H929      1.0  0.75476  0.06603  0.98894  1.0000
  H   H930      1.0  0.79367  0.37621  0.45098  1.0000
  H   H931      1.0  0.94880  0.46561  0.05413  1.0000
  H   H932      1.0  0.75535  0.44098  0.05242  1.0000
  H   H933      1.0  0.67874  0.36898  0.04805  1.0000
  C   C530      1.0  0.86308  0.33824  0.07017  1.0000
  H   H934      1.0  0.68171  0.38500  0.46091  1.0000
  H   H935      1.0  0.74014  0.26795  0.13905  1.0000
  C   C531      1.0  0.76073  0.46017  0.06210  1.0000
  H   H936      1.0  0.69185  0.45666  0.15892  1.0000
  C   C532      1.0  0.69588  0.28717  0.01166  1.0000
  H   H937      1.0  0.67771  0.07180  0.02281  1.0000
  H   H938      1.0  0.72544  0.43614  0.13854  1.0000
  H   H939      1.0  0.65787  0.22866  0.09540  1.0000
  N   N31       1.0  0.88200  0.36123  0.03970  1.0000
  C   C533      1.0  0.77966  0.38141  0.44568  1.0000
  C   C534      1.0  0.73535  0.29356  0.09532  1.0000
  C   C535      1.0  0.69586  0.44159  0.16147  1.0000
  H   H940      1.0  0.74784  0.32301  0.02133  1.0000
  H   H941      1.0  0.66277  0.40506  0.07452  1.0000
  H   H942      1.0  0.72701  0.37783  0.02116  1.0000
  N   N32       1.0  0.71774  0.28361  0.01203  1.0000
  S   S123      1.0  0.63709  0.30194  0.22267  1.0000
  H   H943      1.0  0.68543  0.43526  0.23475  1.0000
  H   H944      1.0  0.85818  0.97614  0.04351  1.0000
  H   H945      1.0  0.72358  0.07789  0.99290  1.0000
  H   H946      1.0  0.71305  0.26935  0.15570  1.0000
  C   C536      1.0  0.71849  0.44830  0.12801  1.0000
  C   C537      1.0  0.73313  0.28064  0.14208  1.0000
  H   H947      1.0  0.72904  0.30651  0.10090  1.0000
  H   H948      1.0  0.82597  0.31829  0.14350  1.0000
  H   H949      1.0  0.63100  0.39680  0.30187  1.0000
  C   C538      1.0  0.90352  0.35856  0.02420  1.0000
  H   H950      1.0  0.86924  0.34123  0.10647  1.0000
  C   C539      1.0  0.64178  0.23012  0.09065  1.0000
  H   H951      1.0  0.91001  0.34825  0.09335  1.0000
  H   H952      1.0  0.90109  0.43277  0.08072  1.0000
  S   S124      1.0  0.91499  0.99650  0.99947  1.0000
  H   H953      1.0  0.85399  0.36517  0.00498  1.0000
  C   C540      1.0  0.70373  0.42002  0.06127  1.0000
  H   H954      1.0  0.87464  0.42165  0.12132  1.0000
  H   H955      1.0  0.66393  0.38082  0.01212  1.0000
  C   C541      1.0  0.89331  0.38532  0.06601  1.0000
  H   H956      1.0  0.77110  0.37452  0.41174  1.0000
  H   H957      1.0  0.64963  0.38939  0.26575  1.0000
  H   H958      1.0  0.64039  0.00174  0.99331  1.0000
  H   H959      1.0  0.71677  0.32920  0.01204  1.0000
  H   H960      1.0  0.67843  0.42338  0.15360  1.0000
  C   C542      1.0  0.71951  0.27379  0.05906  1.0000
  H   H961      1.0  0.95160  0.35406  0.07143  1.0000
  H   H962      1.0  0.94919  0.36234  0.01289  1.0000
  H   H963      1.0  0.76493  0.46220  0.09931  1.0000
  C   C543      1.0  0.87449  0.39150  0.08640  1.0000
  H   H964      1.0  0.70019  0.26026  0.07512  1.0000
  H   H965      1.0  0.90793  0.40188  0.04368  1.0000
  C   C544      1.0  0.67541  0.36547  0.45580  1.0000
  H   H966      1.0  0.92628  0.33069  0.03721  1.0000
  H   H967      1.0  0.67898  0.27133  0.03154  1.0000
  H   H968      1.0  0.67944  0.37039  0.38106  1.0000
  H   H969      1.0  0.75581  0.30484  0.08407  1.0000
  C   C545      1.0  0.70176  0.43957  0.21159  1.0000
  H   H970      1.0  0.67814  0.44422  0.08463  1.0000
  C   C546      1.0  0.74286  0.30761  0.99726  1.0000
  H   H971      1.0  0.87901  0.00137  0.08070  1.0000
  H   H972      1.0  0.86242  0.37748  0.11473  1.0000
  S   S125      1.0  0.81186  0.37945  0.03241  1.0000
  C   C547      1.0  0.67611  0.39897  0.07737  1.0000
  Fe  Fe58      1.0  0.66855  0.33034  0.26748  1.0000
  C   C548      1.0  0.88863  0.41768  0.10734  1.0000
  H   H973      1.0  0.86217  0.39148  0.05991  1.0000
  Fe  Fe59      1.0  0.64401  0.33603  0.18126  1.0000
  H   H974      1.0  0.68398  0.43640  0.99870  1.0000
  C   C549      1.0  0.62956  0.36290  0.32498  1.0000
  Fe  Fe60      1.0  0.66769  0.30482  0.17638  1.0000
  C   C550      1.0  0.69672  0.45547  0.06507  1.0000
  H   H975      1.0  0.64676  0.36020  0.06196  1.0000
  H   H976      1.0  0.67172  0.23624  0.99794  1.0000
  H   H977      1.0  0.71892  0.45777  0.22162  1.0000
  C   C551      1.0  0.83481  0.33005  0.07050  1.0000
  H   H978      1.0  0.75852  0.30440  0.99965  1.0000
  H   H979      1.0  0.91591  0.37334  0.99691  1.0000
  C   C552      1.0  0.93800  0.35119  0.04473  1.0000
  H   H980      1.0  0.65103  0.02014  0.07083  1.0000
  H   H981      1.0  0.81963  0.29313  0.10554  1.0000
  H   H982      1.0  0.90835  0.99112  0.16807  1.0000
  C   C553      1.0  0.63807  0.02235  0.04914  1.0000
  H   H983      1.0  0.92674  0.97846  0.18567  1.0000
  C   C554      1.0  0.95734  0.04511  0.98579  1.0000
  H   H984      1.0  0.78964  0.40244  0.44472  1.0000
  H   H985      1.0  0.93564  0.98027  0.11141  1.0000
  H   H986      1.0  0.73398  0.46804  0.13617  1.0000
  C   C555      1.0  0.68914  0.03919  0.99979  1.0000
  H   H987      1.0  0.64039  0.04065  0.05656  1.0000
  C   C556      1.0  0.64333  0.02070  0.99711  1.0000
  H   H988      1.0  0.84494  0.98537  0.08834  1.0000
  C   C557      1.0  0.67450  0.06750  0.98562  1.0000
  H   H989      1.0  0.73400  0.05132  0.03979  1.0000
  H   H990      1.0  0.63574  0.42336  0.15697  1.0000
  H   H991      1.0  0.63708  0.38600  0.18130  1.0000
  C   C558      1.0  0.69084  0.45513  0.01324  1.0000
  C   C559      1.0  0.73927  0.46443  0.05139  1.0000
  H   H992      1.0  0.64341  0.35734  0.32847  1.0000
  H   H993      1.0  0.75807  0.38952  0.99553  1.0000
  H   H994      1.0  0.65182  0.44475  0.02285  1.0000
  C   C560      1.0  0.64354  0.38954  0.30191  1.0000
  H   H995      1.0  0.67163  0.31072  0.98771  1.0000
  C   C561      1.0  0.90739  0.98402  0.24082  1.0000
  C   C562      1.0  0.74062  0.38960  0.99201  1.0000
  H   H996      1.0  0.74604  0.40952  0.99422  1.0000
  C   C563      1.0  0.96084  0.42377  0.98694  1.0000
  H   H997      1.0  0.74907  0.34837  0.48207  1.0000
  C   C564      1.0  0.86054  0.98273  0.07932  1.0000
  H   H998      1.0  0.73725  0.46300  0.01338  1.0000
  C   C565      1.0  0.67017  0.46039  0.00642  1.0000
  C   C566      1.0  0.90846  0.97693  0.19112  1.0000
  H   H999      1.0  0.89880  0.97789  0.09775  1.0000
  H   H1000     1.0  0.74518  0.37468  0.47618  1.0000
  H   H1001     1.0  0.88973  0.98355  0.24799  1.0000
  Fe  Fe61      1.0  0.66167  0.36446  0.72603  1.0000
  S   S126      1.0  0.69458  0.37555  0.67621  1.0000
  H   H1002     1.0  0.94716  0.39705  0.86462  1.0000
  H   H1003     1.0  0.71781  0.41294  0.58055  1.0000
  S   S127      1.0  0.66741  0.31468  0.65807  1.0000
  H   H1004     1.0  0.87560  0.97968  0.79484  1.0000
  Fe  Fe62      1.0  0.69413  0.34277  0.70862  1.0000
  S   S128      1.0  0.72748  0.34158  0.73193  1.0000
  Fe  Fe63      1.0  0.66544  0.34690  0.62826  1.0000
  S   S129      1.0  0.67060  0.36050  0.55141  1.0000
  S   S130      1.0  0.66349  0.33363  0.76138  1.0000
  H   H1005     1.0  0.87336  0.03819  0.81430  1.0000
  Fe  Fe64      1.0  0.84420  0.43210  0.88372  1.0000
  S   S131      1.0  0.81977  0.43468  0.83031  1.0000
  S   S132      1.0  0.88724  0.45531  0.88023  1.0000
  H   H1006     1.0  0.86442  0.01874  0.97060  1.0000
  H   H1007     1.0  0.64829  0.47230  0.88746  1.0000
  H   H1008     1.0  0.89359  0.00355  0.75063  1.0000
  H   H1009     1.0  0.66780  0.33584  0.85944  1.0000
  H   H1010     1.0  0.89982  0.03843  0.91260  1.0000
  N   N33       1.0  0.75144  0.37074  0.57251  1.0000
  H   H1011     1.0  0.70054  0.21773  0.94287  1.0000
  C   C567      1.0  0.70385  0.34055  0.85661  1.0000
  H   H1012     1.0  0.78571  0.34545  0.94505  1.0000
  H   H1013     1.0  0.75430  0.38171  0.64378  1.0000
  H   H1014     1.0  0.93398  0.01311  0.77937  1.0000
  H   H1015     1.0  0.66189  0.42323  0.84584  1.0000
  C   C568      1.0  0.75174  0.36706  0.76232  1.0000
  C   C569      1.0  0.75631  0.39136  0.75802  1.0000
  C   C570      1.0  0.77730  0.41184  0.77896  1.0000
  C   C571      1.0  0.79326  0.40808  0.80591  1.0000
  C   C572      1.0  0.78815  0.38358  0.81153  1.0000
  C   C573      1.0  0.76763  0.36320  0.78933  1.0000
  H   H1016     1.0  0.74436  0.39462  0.73696  1.0000
  H   H1017     1.0  0.78153  0.43084  0.77353  1.0000
  H   H1018     1.0  0.80050  0.38052  0.83172  1.0000
  H   H1019     1.0  0.76429  0.34446  0.79253  1.0000
  N   N34       1.0  0.89262  0.01825  0.81731  1.0000
  H   H1020     1.0  0.65247  0.03620  0.91063  1.0000
  C   C574      1.0  0.94891  0.08895  0.83328  1.0000
  C   C575      1.0  0.77004  0.37767  0.53209  1.0000
  C   C576      1.0  0.91904  0.04236  0.81571  1.0000
  C   C577      1.0  0.66704  0.01223  0.85815  1.0000
  H   H1021     1.0  0.89832  0.00344  0.88060  1.0000
  C   C578      1.0  0.73197  0.41932  0.55116  1.0000
  H   H1022     1.0  0.72836  0.38984  0.85201  1.0000
  C   C579      1.0  0.82906  0.00703  0.77291  1.0000
  H   H1023     1.0  0.69033  0.30326  0.88864  1.0000
  C   C580      1.0  0.63852  0.47209  0.81573  1.0000
  H   H1024     1.0  0.76907  0.35213  0.90359  1.0000
  C   C581      1.0  0.94596  0.01828  0.92054  1.0000
  H   H1025     1.0  0.82785  0.34046  0.94294  1.0000
  H   H1026     1.0  0.65069  0.27242  0.75023  1.0000
  C   C582      1.0  0.70430  0.37795  0.93994  1.0000
  C   C583      1.0  0.64604  0.35136  0.92465  1.0000
  H   H1027     1.0  0.95041  0.10719  0.83731  1.0000
  C   C584      1.0  0.71863  0.41756  0.85920  1.0000
  H   H1028     1.0  0.88048  0.03095  0.76014  1.0000
  H   H1029     1.0  0.84614  0.99124  0.93623  1.0000
  H   H1030     1.0  0.75720  0.43652  0.82967  1.0000
  H   H1031     1.0  0.74393  0.39138  0.91826  1.0000
  H   H1032     1.0  0.67584  0.30229  0.83481  1.0000
  C   C585      1.0  0.73445  0.34222  0.58129  1.0000
  C   C586      1.0  0.66946  0.37247  0.89497  1.0000
  C   C587      1.0  0.71242  0.26361  0.97787  1.0000
  C   C588      1.0  0.93589  0.41251  0.91821  1.0000
  C   C589      1.0  0.76817  0.34516  0.93957  1.0000
  C   C590      1.0  0.63517  0.25537  0.76807  1.0000
  C   C591      1.0  0.66057  0.32358  0.48722  1.0000
  H   H1033     1.0  0.74286  0.45434  0.82332  1.0000
  C   C592      1.0  0.69700  0.29886  0.55976  1.0000
  H   H1034     1.0  0.79266  0.39286  0.69513  1.0000
  N   N35       1.0  0.69268  0.37108  0.89326  1.0000
  H   H1035     1.0  0.71236  0.33290  0.51737  1.0000
  H   H1036     1.0  0.66270  0.37157  0.85948  1.0000
  H   H1037     1.0  0.85537  0.36027  0.90396  1.0000
  H   H1038     1.0  0.93409  0.00005  0.90576  1.0000
  C   C593      1.0  0.63843  0.24111  0.93321  1.0000
  C   C594      1.0  0.71065  0.38960  0.85524  1.0000
  H   H1039     1.0  0.70737  0.34859  0.82072  1.0000
  H   H1040     1.0  0.83852  0.32628  0.90306  1.0000
  H   H1041     1.0  0.80773  0.37600  0.68503  1.0000
  C   C595      1.0  0.72923  0.37907  0.94549  1.0000
  H   H1042     1.0  0.72525  0.35964  0.94488  1.0000
  H   H1043     1.0  0.90947  0.06635  0.85456  1.0000
  H   H1044     1.0  0.72346  0.37370  0.53556  1.0000
  H   H1045     1.0  0.70214  0.41910  0.85375  1.0000
  H   H1046     1.0  0.65510  0.31038  0.51646  1.0000
  H   H1047     1.0  0.63751  0.33286  0.90825  1.0000
  C   C596      1.0  0.77990  0.36938  0.63473  1.0000
  C   C597      1.0  0.94119  0.02149  0.96628  1.0000
  C   C598      1.0  0.75016  0.41093  0.55983  1.0000
  H   H1048     1.0  0.70759  0.39636  0.95026  1.0000
  H   H1049     1.0  0.78133  0.36925  0.53746  1.0000
  C   C599      1.0  0.65386  0.07198  0.97006  1.0000
  C   C600      1.0  0.80044  0.38655  0.66794  1.0000
  Fe  Fe65      1.0  0.88376  0.42059  0.91211  1.0000
  H   H1050     1.0  0.70171  0.38326  0.82120  1.0000
  C   C601      1.0  0.73548  0.38157  0.56582  1.0000
  H   H1051     1.0  0.78908  0.36472  0.60740  1.0000
  H   H1052     1.0  0.78442  0.39854  0.52977  1.0000
  H   H1053     1.0  0.64781  0.00755  0.85003  1.0000
  H   H1054     1.0  0.72172  0.41127  0.51897  1.0000
  C   C602      1.0  0.66974  0.03862  0.92554  1.0000
  H   H1055     1.0  0.65860  0.25161  0.92035  1.0000
  H   H1056     1.0  0.69079  0.36394  0.96703  1.0000
  H   H1057     1.0  0.73312  0.42772  0.78748  1.0000
  H   H1058     1.0  0.67429  0.39103  0.90805  1.0000
  H   H1059     1.0  0.63381  0.19847  0.66520  1.0000
  H   H1060     1.0  0.68590  0.05624  0.90776  1.0000
  H   H1061     1.0  0.74579  0.30613  0.92175  1.0000
  H   H1062     1.0  0.82893  0.02197  0.79222  1.0000
  H   H1063     1.0  0.72787  0.33763  0.61846  1.0000
  C   C603      1.0  0.88085  0.02281  0.90163  1.0000
  H   H1064     1.0  0.81658  0.40359  0.64899  1.0000
  H   H1065     1.0  0.92847  0.04558  0.78086  1.0000
  H   H1066     1.0  0.65877  0.24231  0.78977  1.0000
  C   C604      1.0  0.68424  0.34421  0.88235  1.0000
  H   H1067     1.0  0.76568  0.35138  0.65414  1.0000
  H   H1068     1.0  0.72632  0.42497  0.89333  1.0000
  H   H1069     1.0  0.93115  0.04032  0.84033  1.0000
  H   H1070     1.0  0.65104  0.34907  0.95984  1.0000
  C   C605      1.0  0.86572  0.00667  0.94487  1.0000
  C   C606      1.0  0.68366  0.21840  0.95144  1.0000
  H   H1071     1.0  0.63290  0.37556  0.94545  1.0000
  C   C607      1.0  0.69380  0.31236  0.85364  1.0000
  H   H1072     1.0  0.72245  0.35015  0.87285  1.0000
  H   H1073     1.0  0.67707  0.33178  0.91435  1.0000
  H   H1074     1.0  0.69052  0.97595  0.92274  1.0000
  H   H1075     1.0  0.66738  0.46152  0.96897  1.0000
  H   H1076     1.0  0.72167  0.37551  0.59574  1.0000
  S   S133      1.0  0.66442  0.39429  0.77331  1.0000
  S   S134      1.0  0.84091  0.39648  0.90857  1.0000
  H   H1077     1.0  0.69572  0.33176  0.56879  1.0000
  H   H1078     1.0  0.91545  0.07368  0.79379  1.0000
  H   H1079     1.0  0.69014  0.01958  0.91627  1.0000
  H   H1080     1.0  0.70804  0.31042  0.83427  1.0000
  H   H1081     1.0  0.74283  0.44038  0.54741  1.0000
  H   H1082     1.0  0.70952  0.29350  0.54383  1.0000
  C   C608      1.0  0.73920  0.43501  0.82253  1.0000
  H   H1083     1.0  0.62953  0.25844  0.87908  1.0000
  H   H1084     1.0  0.67870  0.28892  0.54204  1.0000
  H   H1085     1.0  0.78180  0.40269  0.60784  1.0000
  C   C609      1.0  0.95111  0.40483  0.89858  1.0000
  C   C610      1.0  0.76670  0.38223  0.61494  1.0000
  H   H1086     1.0  0.76033  0.42018  0.59144  1.0000
  H   H1087     1.0  0.65073  0.06897  0.93264  1.0000
  S   S135      1.0  0.90944  0.40761  0.88807  1.0000
  H   H1088     1.0  0.83576  0.01391  0.73653  1.0000
  C   C611      1.0  0.94132  0.42265  0.96205  1.0000
  C   C612      1.0  0.87398  0.02322  0.79636  1.0000
  H   H1089     1.0  0.83807  0.99253  0.83135  1.0000
  H   H1090     1.0  0.86645  0.98771  0.86611  1.0000
  C   C613      1.0  0.89327  0.99896  0.78811  1.0000
  H   H1091     1.0  0.69301  0.29247  0.59681  1.0000
  N   N36       1.0  0.66922  0.04153  0.97708  1.0000
  C   C614      1.0  0.88436  0.00694  0.86600  1.0000
  H   H1092     1.0  0.74539  0.33341  0.57477  1.0000
  H   H1093     1.0  0.91896  0.99430  0.83135  1.0000
  H   H1094     1.0  0.87527  0.99812  0.96070  1.0000
  H   H1095     1.0  0.69258  0.08246  0.96712  1.0000
  H   H1096     1.0  0.87044  0.03088  0.88784  1.0000
  H   H1097     1.0  0.76761  0.35837  0.96352  1.0000
  H   H1098     1.0  0.66846  0.99619  0.84774  1.0000
  C   C615      1.0  0.63972  0.23832  0.79056  1.0000
  C   C616      1.0  0.70949  0.32758  0.55462  1.0000
  H   H1099     1.0  0.68162  0.02963  0.83768  1.0000
  C   C617      1.0  0.92140  0.06775  0.82463  1.0000
  H   H1100     1.0  0.76406  0.41815  0.52998  1.0000
  S   S136      1.0  0.84137  0.44418  0.95488  1.0000
  H   H1101     1.0  0.63098  0.19735  0.72727  1.0000
  H   H1102     1.0  0.67832  0.22457  0.92006  1.0000
  H   H1103     1.0  0.72765  0.31879  0.94041  1.0000
  H   H1104     1.0  0.66755  0.19890  0.96221  1.0000
  H   H1105     1.0  0.95521  0.08454  0.86551  1.0000
  C   C618      1.0  0.84489  0.34247  0.92588  1.0000
  Fe  Fe66      1.0  0.63672  0.30813  0.70914  1.0000
  C   C619      1.0  0.84604  0.99992  0.79570  1.0000
  H   H1106     1.0  0.63665  0.27395  0.93297  1.0000
  C   C620      1.0  0.67122  0.01610  0.90982  1.0000
  H   H1107     1.0  0.84463  0.98434  0.77599  1.0000
  H   H1108     1.0  0.65675  0.99821  0.92875  1.0000
  S   S137      1.0  0.63238  0.33834  0.67640  1.0000
  H   H1109     1.0  0.71911  0.05929  0.94367  1.0000
  C   C621      1.0  0.91607  0.99621  0.79452  1.0000
  H   H1110     1.0  0.80926  0.98997  0.77296  1.0000
  C   C622      1.0  0.64257  0.40924  0.83695  1.0000
  C   C623      1.0  0.74453  0.31822  0.94749  1.0000
  C   C624      1.0  0.63813  0.39212  0.80231  1.0000
  Fe  Fe67      1.0  0.88408  0.46439  0.95343  1.0000
  H   H1111     1.0  0.87953  0.34600  0.94228  1.0000
  H   H1112     1.0  0.95608  0.98639  0.84969  1.0000
  H   H1113     1.0  0.70915  0.26890  0.94311  1.0000
  C   C625      1.0  0.86241  0.34271  0.96155  1.0000
  H   H1114     1.0  0.93003  0.42901  0.97717  1.0000
  H   H1115     1.0  0.63758  0.23948  0.97154  1.0000
  C   C626      1.0  0.66862  0.34877  0.49471  1.0000
  H   H1116     1.0  0.68938  0.28597  0.97589  1.0000
  H   H1117     1.0  0.72932  0.26237  0.97309  1.0000
  H   H1118     1.0  0.67967  0.11314  0.95926  1.0000
  H   H1119     1.0  0.88441  0.38231  0.97770  1.0000
  H   H1120     1.0  0.62827  0.22171  0.91965  1.0000
  H   H1121     1.0  0.64659  0.10181  0.96706  1.0000
  H   H1122     1.0  0.85258  0.32365  0.97923  1.0000
  Fe  Fe68      1.0  0.84024  0.40968  0.97963  1.0000
  C   C627      1.0  0.66163  0.09911  0.97877  1.0000
  H   H1123     1.0  0.62811  0.45115  0.81511  1.0000
  H   H1124     1.0  0.90986  0.97454  0.73291  1.0000
  C   C628      1.0  0.71701  0.05852  0.98184  1.0000
  C   C629      1.0  0.75873  0.36926  0.48401  1.0000
  H   H1125     1.0  0.85655  0.89689  0.19921  1.0000
  H   H1126     1.0  0.86806  0.94700  0.19658  1.0000
  C   C630      1.0  0.73321  0.87718  0.30679  1.0000
  Fe  Fe69      1.0  0.69549  0.86465  0.17236  1.0000
  S   S138      1.0  0.73419  0.89668  0.14294  1.0000
  S   S139      1.0  0.68967  0.83679  0.22843  1.0000
  H   H1127     1.0  0.87776  0.95149  0.06552  1.0000
  S   S140      1.0  0.65445  0.77177  0.17282  1.0000
  H   H1128     1.0  0.81915  0.91119  0.28225  1.0000
  Fe  Fe70      1.0  0.63872  0.84352  0.17034  1.0000
  H   H1129     1.0  0.65116  0.66497  0.19440  1.0000
  S   S141      1.0  0.81253  0.87674  0.04364  1.0000
  Fe  Fe71      1.0  0.66252  0.84475  0.26340  1.0000
  C   C631      1.0  0.63346  0.62676  0.16899  1.0000
  H   H1130     1.0  0.85567  0.90908  0.09553  1.0000
  H   H1131     1.0  0.68330  0.87411  0.04730  1.0000
  C   C632      1.0  0.88598  0.94949  0.18285  1.0000
  S   S142      1.0  0.91064  0.50226  0.98557  1.0000
  S   S143      1.0  0.67060  0.87486  0.20889  1.0000
  H   H1132     1.0  0.73582  0.87522  0.26943  1.0000
  C   C633      1.0  0.65069  0.88011  0.98939  1.0000
  H   H1133     1.0  0.81503  0.89157  0.23460  1.0000
  C   C634      1.0  0.75529  0.89048  0.11461  1.0000
  C   C635      1.0  0.75165  0.86651  0.11780  1.0000
  C   C636      1.0  0.76933  0.86255  0.09589  1.0000
  C   C637      1.0  0.79048  0.88233  0.06993  1.0000
  C   C638      1.0  0.79400  0.90622  0.06659  1.0000
  C   C639      1.0  0.77662  0.91032  0.08919  1.0000
  H   H1134     1.0  0.73530  0.85108  0.13733  1.0000
  H   H1135     1.0  0.76648  0.84401  0.09871  1.0000
  H   H1136     1.0  0.64623  0.89912  0.13893  1.0000
  H   H1137     1.0  0.77958  0.92891  0.08662  1.0000
  H   H1138     1.0  0.66203  0.87942  0.08008  1.0000
  C   C640      1.0  0.65514  0.82087  0.40532  1.0000
  H   H1139     1.0  0.95696  0.95662  0.12008  1.0000
  C   C641      1.0  0.78047  0.87811  0.27603  1.0000
  C   C642      1.0  0.66510  0.84656  0.39502  1.0000
  C   C643      1.0  0.66822  0.69030  0.05419  1.0000
  C   C644      1.0  0.67546  0.89998  0.01291  1.0000
  H   H1140     1.0  0.74198  0.93632  0.28545  1.0000
  H   H1141     1.0  0.63945  0.61478  0.23593  1.0000
  H   H1142     1.0  0.67111  0.74188  0.98726  1.0000
  H   H1143     1.0  0.64093  0.69518  0.18306  1.0000
  H   H1144     1.0  0.93820  0.48701  0.05595  1.0000
  H   H1145     1.0  0.76491  0.91728  0.31230  1.0000
  C   C645      1.0  0.75683  0.88811  0.41416  1.0000
  C   C646      1.0  0.85888  0.91512  0.13193  1.0000
  H   H1146     1.0  0.63523  0.87835  0.01187  1.0000
  H   H1147     1.0  0.73101  0.83638  0.28409  1.0000
  S   S144      1.0  0.88448  0.92354  0.99587  1.0000
  C   C647      1.0  0.73723  0.86484  0.38677  1.0000
  H   H1148     1.0  0.74089  0.91513  0.24343  1.0000
  H   H1149     1.0  0.71826  0.86216  0.39154  1.0000
  H   H1150     1.0  0.68928  0.70340  0.05198  1.0000
  H   H1151     1.0  0.65683  0.74193  0.10172  1.0000
  C   C648      1.0  0.73440  0.91612  0.27886  1.0000
  H   H1152     1.0  0.77840  0.86779  0.34881  1.0000
  H   H1153     1.0  0.66427  0.70196  0.12068  1.0000
  H   H1154     1.0  0.68220  0.88347  0.42391  1.0000
  H   H1155     1.0  0.69090  0.79424  0.28036  1.0000
  C   C649      1.0  0.83379  0.86772  0.15252  1.0000
  H   H1156     1.0  0.76348  0.90647  0.39602  1.0000
  H   H1157     1.0  0.74039  0.82888  0.33616  1.0000
  H   H1158     1.0  0.81019  0.92162  0.04694  1.0000
  N   N37       1.0  0.88316  0.94121  0.13375  1.0000
  H   H1159     1.0  0.81546  0.88083  0.29254  1.0000
  H   H1160     1.0  0.64777  0.80749  0.37802  1.0000
  H   H1161     1.0  0.84203  0.91531  0.14331  1.0000
  C   C650      1.0  0.90507  0.93904  0.11833  1.0000
  H   H1162     1.0  0.64302  0.63173  0.13414  1.0000
  H   H1163     1.0  0.69558  0.90365  0.07523  1.0000
  C   C651      1.0  0.80933  0.89126  0.27132  1.0000
  H   H1164     1.0  0.66285  0.67281  0.03591  1.0000
  H   H1165     1.0  0.81632  0.86789  0.15715  1.0000
  H   H1166     1.0  0.73689  0.90718  0.34913  1.0000
  S   S145      1.0  0.62844  0.81367  0.22708  1.0000
  H   H1167     1.0  0.94458  0.94213  0.06547  1.0000
  C   C652      1.0  0.74384  0.90541  0.31479  1.0000
  C   C653      1.0  0.67921  0.88854  0.05651  1.0000
  N   N38       1.0  0.74333  0.86482  0.33590  1.0000
  H   H1168     1.0  0.70523  0.47527  0.07640  1.0000
  C   C654      1.0  0.73025  0.83743  0.32235  1.0000
  H   H1169     1.0  0.64834  0.86125  0.99246  1.0000
  H   H1170     1.0  0.79229  0.49908  0.04404  1.0000
  C   C655      1.0  0.63237  0.89661  0.11454  1.0000
  H   H1171     1.0  0.83498  0.86245  0.11666  1.0000
  C   C656      1.0  0.88087  0.95877  0.10099  1.0000
  H   H1172     1.0  0.69281  0.90744  0.99059  1.0000
  H   H1173     1.0  0.69952  0.81644  0.37673  1.0000
  C   C657      1.0  0.74555  0.88798  0.46157  1.0000
  C   C658      1.0  0.77160  0.87745  0.32689  1.0000
  C   C659      1.0  0.95049  0.95899  0.08622  1.0000
  H   H1174     1.0  0.66923  0.67645  0.12156  1.0000
  C   C660      1.0  0.70175  0.81921  0.33855  1.0000
  C   C661      1.0  0.65883  0.68388  0.10481  1.0000
  H   H1175     1.0  0.71241  0.86709  0.31271  1.0000
  H   H1176     1.0  0.87429  0.89258  0.15506  1.0000
  H   H1177     1.0  0.78240  0.89746  0.33732  1.0000
  H   H1178     1.0  0.80034  0.47576  0.04289  1.0000
  C   C662      1.0  0.85754  0.89367  0.16197  1.0000
  S   S146      1.0  0.66423  0.83547  0.12972  1.0000
  H   H1179     1.0  0.89859  0.92341  0.09381  1.0000
  C   C663      1.0  0.63462  0.91796  0.09254  1.0000
  H   H1180     1.0  0.77179  0.85866  0.26335  1.0000
  C   C664      1.0  0.67431  0.86353  0.43138  1.0000
  S   S147      1.0  0.66626  0.85857  0.33793  1.0000
  H   H1181     1.0  0.88883  0.93696  0.20578  1.0000
  H   H1182     1.0  0.92334  0.96526  0.05799  1.0000
  H   H1183     1.0  0.91200  0.93344  0.14821  1.0000
  Fe  Fe72      1.0  0.65632  0.80793  0.18833  1.0000
  C   C665      1.0  0.67356  0.85499  0.47728  1.0000
  H   H1184     1.0  0.83225  0.85297  0.17664  1.0000
  H   H1185     1.0  0.71327  0.90529  0.28083  1.0000
  H   H1186     1.0  0.66010  0.69995  0.03669  1.0000
  H   H1187     1.0  0.95462  0.54879  0.01368  1.0000
  H   H1188     1.0  0.70031  0.78413  0.33042  1.0000
  H   H1189     1.0  0.74646  0.48454  0.05885  1.0000
  H   H1190     1.0  0.77548  0.88884  0.25287  1.0000
  C   C666      1.0  0.63741  0.73679  0.10511  1.0000
  C   C667      1.0  0.64867  0.62077  0.20071  1.0000
  C   C668      1.0  0.65409  0.81231  0.45133  1.0000
  H   H1191     1.0  0.92546  0.91250  0.98937  1.0000
  H   H1192     1.0  0.66982  0.78044  0.33082  1.0000
  H   H1193     1.0  0.84039  0.94544  0.11110  1.0000
  C   C669      1.0  0.85948  0.96319  0.11312  1.0000
  C   C670      1.0  0.78542  0.47937  0.03475  1.0000
  H   H1194     1.0  0.65029  0.93685  0.10017  1.0000
  C   C671      1.0  0.94689  0.47947  0.03348  1.0000
  H   H1195     1.0  0.86139  0.97051  0.14822  1.0000
  Fe  Fe73      1.0  0.84221  0.90459  0.98948  1.0000
  H   H1196     1.0  0.64591  0.79231  0.45889  1.0000
  H   H1197     1.0  0.69023  0.82659  0.32757  1.0000
  C   C672      1.0  0.69011  0.79294  0.31874  1.0000
  H   H1198     1.0  0.73548  0.84835  0.40575  1.0000
  C   C673      1.0  0.92854  0.96257  0.09289  1.0000
  H   H1199     1.0  0.66844  0.63765  0.20280  1.0000
  H   H1200     1.0  0.77378  0.88735  0.41979  1.0000
  H   H1201     1.0  0.67547  0.47863  0.02157  1.0000
  H   H1202     1.0  0.78257  0.47752  0.99701  1.0000
  C   C674      1.0  0.63119  0.74966  0.13597  1.0000
  H   H1203     1.0  0.72958  0.89051  0.45767  1.0000
  H   H1204     1.0  0.65261  0.75526  0.00008  1.0000
  C   C675      1.0  0.62960  0.66421  0.10940  1.0000
  H   H1205     1.0  0.96112  0.91565  0.03068  1.0000
  H   H1206     1.0  0.64954  0.60500  0.18668  1.0000
  H   H1207     1.0  0.67419  0.91612  0.02327  1.0000
  C   C676      1.0  0.63161  0.64859  0.18778  1.0000
  C   C677      1.0  0.96043  0.91393  0.99363  1.0000
  H   H1208     1.0  0.90808  0.97077  0.26566  1.0000
  H   H1209     1.0  0.62986  0.71586  0.24291  1.0000
  H   H1210     1.0  0.73845  0.86981  0.48137  1.0000
  H   H1211     1.0  0.76033  0.90386  0.48163  1.0000
  Fe  Fe74      1.0  0.66843  0.86444  0.69602  1.0000
  S   S148      1.0  0.69869  0.86909  0.64501  1.0000
  H   H1212     1.0  0.64741  0.82272  0.84470  1.0000
  Fe  Fe75      1.0  0.64811  0.80903  0.71965  1.0000
  S   S149      1.0  0.67615  0.80913  0.67068  1.0000
  H   H1213     1.0  0.65122  0.87971  0.61729  1.0000
  Fe  Fe76      1.0  0.70476  0.84707  0.69935  1.0000
  S   S150      1.0  0.74169  0.85199  0.71967  1.0000
  Fe  Fe77      1.0  0.66784  0.83105  0.61972  1.0000
  S   S151      1.0  0.65986  0.81691  0.54547  1.0000
  S   S152      1.0  0.67711  0.84542  0.75181  1.0000
  C   C678      1.0  0.69242  0.92283  0.58147  1.0000
  Fe  Fe78      1.0  0.84771  0.92923  0.89537  1.0000
  S   S153      1.0  0.82603  0.93715  0.84392  1.0000
  S   S154      1.0  0.89037  0.95059  0.89311  1.0000
  S   S155      1.0  0.63026  0.69198  0.85946  1.0000
  H   H1214     1.0  0.63835  0.89424  0.48537  1.0000
  C   C679      1.0  0.66366  0.81151  0.89807  1.0000
  H   H1215     1.0  0.63281  0.50204  0.82204  1.0000
  H   H1216     1.0  0.65277  0.76100  0.74576  1.0000
  H   H1217     1.0  0.65976  0.95673  0.89836  1.0000
  H   H1218     1.0  0.67777  0.83154  0.90644  1.0000
  C   C680      1.0  0.69168  0.89622  0.83176  1.0000
  S   S156      1.0  0.66542  0.89802  0.71078  1.0000
  H   H1219     1.0  0.64425  0.90342  0.61563  1.0000
  C   C681      1.0  0.96056  0.59193  0.74429  1.0000
  H   H1220     1.0  0.68669  0.79495  0.95645  1.0000
  C   C682      1.0  0.76346  0.87491  0.75746  1.0000
  C   C683      1.0  0.78164  0.87155  0.77704  1.0000
  C   C684      1.0  0.80034  0.89005  0.80498  1.0000
  C   C685      1.0  0.80131  0.91235  0.81284  1.0000
  C   C686      1.0  0.78294  0.91560  0.79375  1.0000
  C   C687      1.0  0.76386  0.89680  0.76663  1.0000
  H   H1221     1.0  0.78151  0.85471  0.76996  1.0000
  H   H1222     1.0  0.81445  0.88740  0.81927  1.0000
  H   H1223     1.0  0.78363  0.93284  0.79957  1.0000
  H   H1224     1.0  0.75003  0.89963  0.75154  1.0000
  C   C688      1.0  0.93843  0.90868  0.92266  1.0000
  H   H1225     1.0  0.89462  0.95525  0.78542  1.0000
  C   C689      1.0  0.66900  0.88706  0.91047  1.0000
  C   C690      1.0  0.93979  0.52696  0.90538  1.0000
  H   H1226     1.0  0.94117  0.96176  0.89540  1.0000
  C   C691      1.0  0.70402  0.78734  0.84831  1.0000
  C   C692      1.0  0.64360  0.91693  0.76507  1.0000
  C   C693      1.0  0.64813  0.90981  0.93501  1.0000
  Fe  Fe79      1.0  0.88802  0.95875  0.96702  1.0000
  H   H1227     1.0  0.66973  0.87012  0.91864  1.0000
  H   H1228     1.0  0.70070  0.80345  0.78267  1.0000
  C   C694      1.0  0.66716  0.90637  0.55805  1.0000
  C   C695      1.0  0.64204  0.89498  0.75068  1.0000
  H   H1229     1.0  0.66954  0.89480  0.53301  1.0000
  H   H1230     1.0  0.70332  0.78121  0.93887  1.0000
  C   C696      1.0  0.72254  0.78750  0.76951  1.0000
  H   H1231     1.0  0.76810  0.87014  0.88805  1.0000
  H   H1232     1.0  0.70710  0.91574  0.84059  1.0000
  H   H1233     1.0  0.71782  0.78348  0.86277  1.0000
  H   H1234     1.0  0.65637  0.79978  0.93074  1.0000
  H   H1235     1.0  0.65687  0.72742  0.78232  1.0000
  H   H1236     1.0  0.64945  0.48065  0.78244  1.0000
  H   H1237     1.0  0.68800  0.90354  0.91867  1.0000
  H   H1238     1.0  0.66356  0.91954  0.53929  1.0000
  H   H1239     1.0  0.74135  0.81642  0.93360  1.0000
  C   C697      1.0  0.67582  0.80194  0.86431  1.0000
  C   C698      1.0  0.66307  0.82922  0.48774  1.0000
  C   C699      1.0  0.71915  0.82664  0.89162  1.0000
  C   C700      1.0  0.76443  0.85634  0.91660  1.0000
  H   H1240     1.0  0.68285  0.81515  0.83332  1.0000
  H   H1241     1.0  0.95649  0.90530  0.86171  1.0000
  H   H1242     1.0  0.66049  0.78332  0.85163  1.0000
  H   H1243     1.0  0.66139  0.90167  0.84726  1.0000
  H   H1244     1.0  0.92504  0.51114  0.88709  1.0000
  Fe  Fe80      1.0  0.88519  0.91453  0.92182  1.0000
  H   H1245     1.0  0.95127  0.60263  0.74453  1.0000
  C   C701      1.0  0.74429  0.82919  0.90378  1.0000
  H   H1246     1.0  0.64498  0.48976  0.67391  1.0000
  C   C702      1.0  0.64048  0.74963  0.77521  1.0000
  H   H1247     1.0  0.73761  0.78602  0.78511  1.0000
  H   H1248     1.0  0.73217  0.82098  0.80470  1.0000
  H   H1249     1.0  0.73009  0.79807  0.73561  1.0000
  C   C703      1.0  0.66668  0.88817  0.85743  1.0000
  H   H1250     1.0  0.78253  0.85795  0.92332  1.0000
  H   H1251     1.0  0.63830  0.91139  0.96598  1.0000
  C   C704      1.0  0.64275  0.73060  0.79595  1.0000
  S   S157      1.0  0.91226  0.90447  0.89235  1.0000
  C   C705      1.0  0.71500  0.80170  0.80082  1.0000
  H   H1252     1.0  0.71421  0.83465  0.92062  1.0000
  H   H1253     1.0  0.69750  0.91075  0.59996  1.0000
  S   S158      1.0  0.63719  0.82791  0.66730  1.0000
  H   H1254     1.0  0.70576  0.76817  0.76346  1.0000
  H   H1255     1.0  0.68757  0.93822  0.95466  1.0000
  H   H1256     1.0  0.65956  0.93545  0.75293  1.0000
  H   H1257     1.0  0.68109  0.86827  0.50462  1.0000
  H   H1258     1.0  0.69122  0.93522  0.60664  1.0000
  C   C706      1.0  0.66341  0.75767  0.92714  1.0000
  H   H1259     1.0  0.65179  0.86907  0.84567  1.0000
  H   H1260     1.0  0.63670  0.90881  0.90533  1.0000
  C   C707      1.0  0.93731  0.52737  0.95338  1.0000
  C   C708      1.0  0.64119  0.81041  0.87673  1.0000
  S   S159      1.0  0.84233  0.89213  0.91722  1.0000
  H   H1261     1.0  0.64724  0.75865  0.91623  1.0000
  H   H1262     1.0  0.66945  0.50184  0.85472  1.0000
  N   N39       1.0  0.64818  0.88590  0.93968  1.0000
  H   H1263     1.0  0.94912  0.95505  0.83992  1.0000
  C   C709      1.0  0.94018  0.91214  0.97028  1.0000
  H   H1264     1.0  0.63814  0.72516  0.97296  1.0000
  C   C710      1.0  0.64519  0.88961  0.59406  1.0000
  H   H1265     1.0  0.72346  0.83976  0.86121  1.0000
  H   H1266     1.0  0.94824  0.57390  0.76518  1.0000
  C   C711      1.0  0.65599  0.74428  0.97491  1.0000
  N   N40       1.0  0.69689  0.80011  0.88302  1.0000
  H   H1267     1.0  0.70780  0.93507  0.55508  1.0000
  H   H1268     1.0  0.68934  0.89622  0.79397  1.0000
  H   H1269     1.0  0.68348  0.93624  0.89368  1.0000
  C   C712      1.0  0.68851  0.78444  0.92790  1.0000
  C   C713      1.0  0.95532  0.96986  0.86585  1.0000
  H   H1270     1.0  0.66560  0.74542  0.90329  1.0000
  H   H1271     1.0  0.68709  0.76837  0.84078  1.0000
  H   H1272     1.0  0.75221  0.82457  0.87396  1.0000
  H   H1273     1.0  0.69732  0.88279  0.84044  1.0000
  C   C714      1.0  0.95768  0.90801  0.89850  1.0000
  H   H1274     1.0  0.75825  0.86137  0.94843  1.0000
  S   S160      1.0  0.84573  0.94059  0.96742  1.0000
  C   C715      1.0  0.67436  0.93539  0.92751  1.0000
  H   H1275     1.0  0.63412  0.85861  0.52012  1.0000
  H   H1276     1.0  0.66244  0.95818  0.96053  1.0000
  C   C716      1.0  0.67150  0.95790  0.92736  1.0000
  H   H1277     1.0  0.92850  0.97147  0.77548  1.0000
  C   C717      1.0  0.65797  0.48078  0.85322  1.0000
  H   H1278     1.0  0.63023  0.84322  0.57363  1.0000
  C   C718      1.0  0.95649  0.54827  0.97658  1.0000
  C   C719      1.0  0.96113  0.54741  0.88079  1.0000
  H   H1279     1.0  0.63261  0.81695  0.90171  1.0000
  C   C720      1.0  0.91193  0.97294  0.77054  1.0000
  H   H1280     1.0  0.67099  0.47450  0.84547  1.0000
