data_image0
_chemical_formula_structural       FeS2FeS2FeSFeS3HSFeS2FeSFeS2CFeSH2SHCHCH2C6H4C6H4C2H3CH7CHC3H2CHCH5CH2C2HCH4CH2C2HC2H2CHC2H3CH3C2H5C2H3C3NC4HC2H2C3H9NH7SHCHCH3CHC3H3C3H3NCH2FeH2CH8CH12CH2CH2CH8C3H2C2H4CH3C2HC2HC2NSH8CH2CH2C2H3CH3CH6NHFeS2FeS2FeSFeS3HSFeSHFeSFeSH2FeSH2SH3CH2C6H4C6H4C2NCH7CHC4H3CHNC12H26CHC2H2SH4C2H2C2H5CH9CHCHCH3C2HC2H4C2HCH5CH4CH3CHC2HC4NC4HC2H4CHC2H6SHC3H4CHCSCNFeHN2CH4C2H5C2H3C3H7CHCH2CH3C2H2CHNHCHCHCFeS2HSFeSC2SNSHC6H4C6H4SH5C2H2SFeH2C3H3C4H2C2H2CHC2SCH2FeHCH2CHSH2CHCH2FeHSFeHCSCHNC3H3CH4CH4CHCH2CH10CSCH5C2HCH3FeSHS2FeSHCSH3C6H4C6H4CSC2H3C3HCHNCH3CH2CH5CH2CH4CH3C3HCHCHSCHCH3CSH12CH7NCHCHCH10CH7CHCNC2HFeH4CHCH2NC12H6C2SH3CH6CH2FeSHCH3CH2SH2CH2SC3SHSFeSHFeSFeS3FeS2FeS2FeSFeS3CHC2HCH4C6H4C3H2CH4C6H4CHC2H2CHCH2CHCH2C3H10CHCH5C3NH4CH2NH11NC11H2CH22CHCHCHC2SH3FeHCHCH7CH3CSHCH2CH3FeC2HCHC3HCH11C2H5SCHFeSCSFeSHFeSFeS2CFeS2FeS2FeSFeS3CHC2HCNH3C6H4C3H2CHC2HC6H4C2H2CH2C4H3C2H2CH4CH5NC12H19CH13CH3C2H4SH3FeH2CH2CH6CHC2H3NCHC4HC2H3C2H4CH3SHCHSCH3CHCH5C2H2CH9NH2CH2C2H6C2H6C2H5CHCH2C3FeS2FeS2FeSFeS3FeS2FeCSFeHCS2HSH2FeSCH2NH3C3HC7H4CHSNHCH2CHCH4C6H6CH4FeHCH4CHC3FeNC4H2C3H2CH19C4HCH3CH2C4SH4CH5CH3CHCH4C2H2CH8CNHCH2CH2SH3CHCHC2H2FeCH2SCH4CH4CH4NHC2SH4CHC2HCHCH2C2H3CHC2H2C2H9CH2CH2CHNCH2C2H3C3H2C2HC3HCFeS2FeS2FeSFeS3FeS2FeS2FeHCS2HSHCFeSH7CH2CHC6H5CHCHC4H5C7H4SHC3H2C4H3FeH5CH2SH5C2HFe2CH4NC10H16C3H3CH4CHCH2CH2CH4SHCH3CH4C4H2C2H2NHSH3C2H3CHC3SH3CNC2H3CHCHCHCH5CH5SCH2CH2SC8H4C6H11CNC5H3SCH6SH2CH3CH5CHCH2FeNCH3CH6FeSH6C2H3CHCHCH5CH2CHCH3CHCH4C2H4C2H4CHSHCHSHSH3SHCSHCFeSC4HC4H3C6HFeH6NH3SH7CH2CH3CH2C4SC3H4FeH3CH2SCH3C3H2CH2CH3CHC3H4SH2FeHC2H2C2HSH2CH8CH3CFeSH2SHFeSFeSHFeSFeS3FeS2FeS2FeSFeS3CHCHC4H2CH2C2H2CH2C6H4C6H6C2H4C2H2CHCH2SH11NC4H2C3HC2H6CH4CH4CH8CFeC2H4CH7C2HC6SHC2HCHCNCH3CH6CH4NH7CHCH2CH12CHC3H3CH5SC5HNH3NCH3C2H4CHCHCHCHCFeSC2H7FeSH2SHFeSFeS2FeSFeS3FeS2FeS2FeSFeS3CH3C2H4C2HC2H5C6H4C6H4CHCH2C2H5C2HC2HNHCH3CH3C2H2FeCH2CH3CH3NH3CHNHCH2CHC2HSHC2H3CH2CH4C2HC2H2CH2C2H2C2SH10NC9H2CH25SC3HCH2FeH3CH2CNH3CH4CH4CHC2HCNCH8C2H2
_chemical_formula_sum              "Fe96 S192 H1536 C864 N48"
_cell_length_a       33.2473
_cell_length_b       66.5384
_cell_length_c       47.0281
_cell_angle_alpha    90.04
_cell_angle_beta     90.0134
_cell_angle_gamma    90.1421

_space_group_name_H-M_alt    "P 1"
_space_group_IT_number       1

loop_
  _space_group_symop_operation_xyz
  'x, y, z'

loop_
  _atom_site_type_symbol
  _atom_site_label
  _atom_site_symmetry_multiplicity
  _atom_site_fract_x
  _atom_site_fract_y
  _atom_site_fract_z
  _atom_site_occupancy
  Fe  Fe1       1.0  0.16513  0.20170  0.12151  1.0000
  S   S1        1.0  0.20760  0.22696  0.10956  1.0000
  S   S2        1.0  0.10015  0.21343  0.12498  1.0000
  Fe  Fe2       1.0  0.23652  0.17195  0.12629  1.0000
  S   S3        1.0  0.28171  0.19559  0.11554  1.0000
  S   S4        1.0  0.25758  0.13955  0.13323  1.0000
  Fe  Fe3       1.0  0.24640  0.21541  0.14517  1.0000
  S   S5        1.0  0.27857  0.23675  0.17563  1.0000
  Fe  Fe4       1.0  0.23865  0.20482  0.08108  1.0000
  S   S6        1.0  0.26543  0.20657  0.03635  1.0000
  S   S7        1.0  0.20335  0.19123  0.15839  1.0000
  S   S8        1.0  0.19408  0.18016  0.09058  1.0000
  H   H1        1.0  0.29584  0.21404  0.48539  1.0000
  S   S9        1.0  0.25004  0.28448  0.37328  1.0000
  Fe  Fe5       1.0  0.36667  0.28459  0.35801  1.0000
  S   S10       1.0  0.33120  0.25699  0.37028  1.0000
  S   S11       1.0  0.43320  0.27510  0.35478  1.0000
  Fe  Fe6       1.0  0.28469  0.26781  0.33910  1.0000
  S   S12       1.0  0.25363  0.24497  0.30989  1.0000
  Fe  Fe7       1.0  0.30023  0.27601  0.40300  1.0000
  S   S13       1.0  0.30045  0.27085  0.45111  1.0000
  S   S14       1.0  0.32106  0.29461  0.32498  1.0000
  C   C1        1.0  0.35664  0.26369  0.01382  1.0000
  Fe  Fe8       1.0  0.47275  0.07723  0.11981  1.0000
  S   S15       1.0  0.43844  0.10729  0.12280  1.0000
  H   H2        1.0  0.42272  0.15665  0.23394  1.0000
  H   H3        1.0  0.24988  0.15973  0.18959  1.0000
  S   S16       1.0  0.45729  0.04433  0.12568  1.0000
  H   H4        1.0  0.13469  0.18227  0.19867  1.0000
  C   C2        1.0  0.26034  0.22647  0.01145  1.0000
  H   H5        1.0  0.46204  0.31648  0.34431  1.0000
  C   C3        1.0  0.40034  0.05049  0.27218  1.0000
  H   H6        1.0  0.31866  0.09532  0.06829  1.0000
  H   H7        1.0  0.35357  0.19809  0.29342  1.0000
  C   C4        1.0  0.30809  0.13068  0.13125  1.0000
  C   C5        1.0  0.31562  0.10986  0.13139  1.0000
  C   C6        1.0  0.35522  0.10232  0.12909  1.0000
  C   C7        1.0  0.38782  0.11556  0.12667  1.0000
  C   C8        1.0  0.38025  0.13637  0.12678  1.0000
  C   C9        1.0  0.34075  0.14386  0.12915  1.0000
  H   H8        1.0  0.29065  0.09947  0.13309  1.0000
  H   H9        1.0  0.36048  0.08627  0.12904  1.0000
  H   H10       1.0  0.40518  0.14676  0.12482  1.0000
  H   H11       1.0  0.33549  0.15985  0.12901  1.0000
  C   C10       1.0  0.27068  0.23889  0.21286  1.0000
  C   C11       1.0  0.24701  0.22515  0.22792  1.0000
  C   C12       1.0  0.24210  0.22721  0.25758  1.0000
  C   C13       1.0  0.26101  0.24294  0.27256  1.0000
  C   C14       1.0  0.28490  0.25659  0.25750  1.0000
  C   C15       1.0  0.28968  0.25456  0.22783  1.0000
  H   H12       1.0  0.23310  0.21274  0.21680  1.0000
  H   H13       1.0  0.22391  0.21644  0.26908  1.0000
  H   H14       1.0  0.29966  0.26876  0.26869  1.0000
  H   H15       1.0  0.30825  0.26523  0.21644  1.0000
  C   C16       1.0  0.26956  0.25654  0.47420  1.0000
  C   C17       1.0  0.02225  0.19772  0.04928  1.0000
  H   H16       1.0  0.11113  0.24931  0.16330  1.0000
  H   H17       1.0  0.39683  0.08784  0.03474  1.0000
  H   H18       1.0  0.36845  0.06980  0.05514  1.0000
  C   C18       1.0  0.23625  0.24564  0.46454  1.0000
  H   H19       1.0  0.08289  0.20524  0.21726  1.0000
  H   H20       1.0  0.22702  0.24610  0.03906  1.0000
  H   H21       1.0  0.35821  0.12487  0.07123  1.0000
  H   H22       1.0  0.22868  0.24576  0.44216  1.0000
  H   H23       1.0  0.37588  0.12362  0.03571  1.0000
  H   H24       1.0  0.38917  0.15448  0.05967  1.0000
  H   H25       1.0  0.39314  0.09033  0.07293  1.0000
  C   C19       1.0  0.21260  0.23461  0.48397  1.0000
  H   H26       1.0  0.34595  0.20444  0.42627  1.0000
  C   C20       1.0  0.04507  0.18188  0.13157  1.0000
  C   C21       1.0  0.05120  0.20250  0.12781  1.0000
  C   C22       1.0  0.34858  0.12141  0.04910  1.0000
  H   H27       1.0  0.07065  0.17189  0.13248  1.0000
  H   H28       1.0  0.16126  0.28565  0.14470  1.0000
  C   C23       1.0  0.49021  0.24255  0.28644  1.0000
  H   H29       1.0  0.40665  0.02796  0.42455  1.0000
  C   C24       1.0  0.27512  0.12809  0.04996  1.0000
  H   H30       1.0  0.40867  0.05337  0.24965  1.0000
  H   H31       1.0  0.36028  0.99186  0.46060  1.0000
  H   H32       1.0  0.31200  0.19140  0.46903  1.0000
  H   H33       1.0  0.41273  0.03731  0.37365  1.0000
  H   H34       1.0  0.39066  0.21634  0.28168  1.0000
  C   C25       1.0  0.15941  0.30389  0.42408  1.0000
  H   H35       1.0  0.38833  0.25959  0.01826  1.0000
  H   H36       1.0  0.36755  0.04728  0.27311  1.0000
  C   C26       1.0  0.40054  0.01668  0.40766  1.0000
  C   C27       1.0  0.47727  0.30282  0.01677  1.0000
  H   H37       1.0  0.45574  0.02364  0.38647  1.0000
  C   C28       1.0  0.40091  0.15116  0.21775  1.0000
  H   H38       1.0  0.17706  0.28971  0.42543  1.0000
  H   H39       1.0  0.18680  0.22625  0.47635  1.0000
  H   H40       1.0  0.19425  0.11679  0.04552  1.0000
  H   H41       1.0  0.20119  0.13149  0.07761  1.0000
  C   C29       1.0  0.31652  0.13907  0.00825  1.0000
  H   H42       1.0  0.43659  0.30483  0.44790  1.0000
  H   H43       1.0  0.37243  0.22805  0.42899  1.0000
  C   C30       1.0  0.32156  0.20335  0.48418  1.0000
  C   C31       1.0  0.41947  0.13288  0.20306  1.0000
  H   H44       1.0  0.44040  0.99078  0.00983  1.0000
  C   C32       1.0  0.30338  0.16247  0.21604  1.0000
  C   C33       1.0  0.32285  0.15578  0.05416  1.0000
  H   H45       1.0  0.03372  0.23462  0.46943  1.0000
  H   H46       1.0  0.30310  0.27100  0.03854  1.0000
  C   C34       1.0  0.03463  0.24707  0.48518  1.0000
  H   H47       1.0  0.18841  0.26720  0.27794  1.0000
  C   C35       1.0  0.15683  0.26360  0.28376  1.0000
  C   C36       1.0  0.19299  0.29544  0.48398  1.0000
  H   H48       1.0  0.02164  0.23118  0.12379  1.0000
  H   H49       1.0  0.30952  0.16334  0.23915  1.0000
  H   H50       1.0  0.18586  0.24463  0.16973  1.0000
  C   C37       1.0  0.24041  0.24431  0.01825  1.0000
  H   H51       1.0  0.12205  0.17643  0.23494  1.0000
  H   H52       1.0  0.24568  0.14824  0.22402  1.0000
  H   H53       1.0  0.35702  0.17011  0.48892  1.0000
  C   C38       1.0  0.38004  0.98982  0.47941  1.0000
  C   C39       1.0  0.42435  0.03262  0.28339  1.0000
  H   H54       1.0  0.42785  0.12142  0.21915  1.0000
  H   H55       1.0  0.38406  0.00434  0.35463  1.0000
  H   H56       1.0  0.11432  0.21199  0.24654  1.0000
  H   H57       1.0  0.15771  0.27774  0.37749  1.0000
  H   H58       1.0  0.15496  0.23431  0.26513  1.0000
  C   C40       1.0  0.35682  0.21475  0.46973  1.0000
  C   C41       1.0  0.42348  0.02235  0.38063  1.0000
  H   H59       1.0  0.49107  0.29552  0.41429  1.0000
  H   H60       1.0  0.13625  0.29514  0.35244  1.0000
  H   H61       1.0  0.13918  0.27775  0.28425  1.0000
  C   C42       1.0  0.13810  0.29115  0.37534  1.0000
  C   C43       1.0  0.00564  0.17413  0.13445  1.0000
  C   C44       1.0  0.04678  0.23946  0.19130  1.0000
  N   N1        1.0  0.36522  0.18527  0.20555  1.0000
  C   C45       1.0  0.37269  0.19015  0.23649  1.0000
  C   C46       1.0  0.39211  0.16820  0.19606  1.0000
  C   C47       1.0  0.37609  0.20378  0.18843  1.0000
  C   C48       1.0  0.32150  0.18053  0.19976  1.0000
  H   H62       1.0  0.28484  0.16162  0.49563  1.0000
  C   C49       1.0  0.34717  0.20748  0.24915  1.0000
  C   C50       1.0  0.38075  0.20073  0.15580  1.0000
  H   H63       1.0  0.35013  0.27734  0.05574  1.0000
  H   H64       1.0  0.38522  0.20608  0.47118  1.0000
  C   C51       1.0  0.43403  0.99229  0.31041  1.0000
  C   C52       1.0  0.35866  0.21164  0.28009  1.0000
  C   C53       1.0  0.38425  0.22084  0.14029  1.0000
  H   H65       1.0  0.40505  0.19398  0.23966  1.0000
  H   H66       1.0  0.36719  0.17696  0.25033  1.0000
  H   H67       1.0  0.37985  0.16126  0.17634  1.0000
  H   H68       1.0  0.42250  0.17401  0.19028  1.0000
  H   H69       1.0  0.40497  0.21038  0.19611  1.0000
  H   H70       1.0  0.35308  0.21573  0.19143  1.0000
  H   H71       1.0  0.30245  0.19397  0.20378  1.0000
  H   H72       1.0  0.31667  0.17714  0.17688  1.0000
  H   H73       1.0  0.23651  0.30551  0.43644  1.0000
  N   N2        1.0  0.31556  0.13568  0.03994  1.0000
  H   H74       1.0  0.35150  0.22170  0.23726  1.0000
  H   H75       1.0  0.31482  0.20342  0.24885  1.0000
  H   H76       1.0  0.35482  0.19259  0.14674  1.0000
  H   H77       1.0  0.40823  0.19196  0.15083  1.0000
  H   H78       1.0  0.31568  0.14825  0.20729  1.0000
  H   H79       1.0  0.27542  0.12645  0.07355  1.0000
  H   H80       1.0  0.24335  0.17522  0.22098  1.0000
  S   S17       1.0  0.33773  0.30310  0.39229  1.0000
  H   H81       1.0  0.00132  0.15815  0.13751  1.0000
  C   C54       1.0  0.45218  0.31643  0.43495  1.0000
  H   H82       1.0  0.41750  0.01964  0.26936  1.0000
  C   C55       1.0  0.17344  0.27017  0.14303  1.0000
  H   H83       1.0  0.41044  0.22954  0.14832  1.0000
  H   H84       1.0  0.38831  0.21816  0.11715  1.0000
  H   H85       1.0  0.35644  0.22983  0.14325  1.0000
  C   C56       1.0  0.06289  0.20850  0.05015  1.0000
  H   H86       1.0  0.39750  0.12594  0.18816  1.0000
  C   C57       1.0  0.07533  0.24672  0.21539  1.0000
  C   C58       1.0  0.19952  0.13216  0.05401  1.0000
  C   C59       1.0  0.25777  0.16146  0.21239  1.0000
  H   H87       1.0  0.36486  0.18200  0.09059  1.0000
  H   H88       1.0  0.04502  0.25099  0.17426  1.0000
  H   H89       1.0  0.17603  0.25545  0.22757  1.0000
  C   C60       1.0  0.14314  0.25637  0.23174  1.0000
  C   C61       1.0  0.33460  0.26610  0.04213  1.0000
  C   C62       1.0  0.36973  0.18454  0.06752  1.0000
  H   H90       1.0  0.30214  0.16739  0.04559  1.0000
  H   H91       1.0  0.31579  0.15482  0.07722  1.0000
  H   H92       1.0  0.18397  0.28212  0.47130  1.0000
  N   N3        1.0  0.11969  0.24560  0.20874  1.0000
  C   C63       1.0  0.01734  0.21519  0.12670  1.0000
  H   H93       1.0  0.22618  0.29701  0.48275  1.0000
  H   H94       1.0  0.16733  0.22365  0.20810  1.0000
  Fe  Fe9       1.0  0.28856  0.31085  0.36089  1.0000
  H   H95       1.0  0.08722  0.19745  0.05425  1.0000
  H   H96       1.0  0.37292  0.16797  0.02856  1.0000
  C   C64       1.0  0.47141  0.99258  0.00334  1.0000
  H   H97       1.0  0.18848  0.26884  0.18693  1.0000
  H   H98       1.0  0.33971  0.22399  0.28862  1.0000
  H   H99       1.0  0.25164  0.18221  0.48798  1.0000
  H   H100      1.0  0.06675  0.26249  0.22058  1.0000
  H   H101      1.0  0.37379  0.14598  0.22918  1.0000
  H   H102      1.0  0.37339  0.99617  0.29181  1.0000
  H   H103      1.0  0.18505  0.31266  0.38276  1.0000
  H   H104      1.0  0.38044  0.02544  0.31607  1.0000
  C   C65       1.0  0.13646  0.18779  0.22094  1.0000
  H   H105      1.0  0.41873  0.04218  0.32701  1.0000
  H   H106      1.0  0.48194  0.03186  0.34265  1.0000
  H   H107      1.0  0.01934  0.18883  0.06920  1.0000
  H   H108      1.0  0.13548  0.27269  0.23153  1.0000
  H   H109      1.0  0.24107  0.15657  0.05019  1.0000
  H   H110      1.0  0.15619  0.26178  0.12660  1.0000
  H   H111      1.0  0.40036  0.19087  0.06454  1.0000
  H   H112      1.0  0.12968  0.21918  0.18257  1.0000
  H   H113      1.0  0.05767  0.22530  0.18159  1.0000
  H   H114      1.0  0.10740  0.28741  0.38304  1.0000
  H   H115      1.0  0.34750  0.19568  0.05968  1.0000
  H   H116      1.0  0.26858  0.11281  0.04179  1.0000
  C   C66       1.0  0.34796  0.21876  0.43833  1.0000
  H   H117      1.0  0.20536  0.27114  0.13615  1.0000
  H   H118      1.0  0.46915  0.24677  0.30381  1.0000
  C   C67       1.0  0.36589  0.16477  0.05115  1.0000
  H   H119      1.0  0.06902  0.21608  0.02956  1.0000
  H   H120      1.0  0.10671  0.24649  0.26894  1.0000
  C   C68       1.0  0.13429  0.22428  0.20491  1.0000
  H   H121      1.0  0.31926  0.22712  0.43593  1.0000
  H   H122      1.0  0.36120  0.22964  0.48003  1.0000
  H   H123      1.0  0.41642  0.31278  0.01207  1.0000
  H   H124      1.0  0.16850  0.18936  0.22730  1.0000
  H   H125      1.0  0.15686  0.25698  0.30545  1.0000
  H   H126      1.0  0.17358  0.14176  0.04805  1.0000
  H   H127      1.0  0.32301  0.09336  0.03044  1.0000
  H   H128      1.0  0.36766  0.01623  0.40356  1.0000
  C   C69       1.0  0.13847  0.24868  0.26263  1.0000
  C   C70       1.0  0.23824  0.14109  0.04180  1.0000
  C   C71       1.0  0.12659  0.25699  0.18132  1.0000
  H   H129      1.0  0.22301  0.27381  0.00376  1.0000
  H   H130      1.0  0.06784  0.23795  0.23470  1.0000
  C   C72       1.0  0.17103  0.25949  0.17175  1.0000
  C   C73       1.0  0.11455  0.20785  0.22381  1.0000
  H   H131      1.0  0.11315  0.27230  0.18269  1.0000
  H   H132      1.0  0.12892  0.29990  0.43209  1.0000
  H   H133      1.0  0.41046  0.00175  0.41553  1.0000
  H   H134      1.0  0.33392  0.25146  0.05350  1.0000
  C   C74       1.0  0.48775  0.30683  0.34770  1.0000
  H   H135      1.0  0.45670  0.03636  0.28100  1.0000
  H   H136      1.0  0.47538  0.02062  0.45420  1.0000
  H   H137      1.0  0.06539  0.25364  0.48568  1.0000
  C   C75       1.0  0.33858  0.09858  0.04985  1.0000
  C   C76       1.0  0.37663  0.08595  0.05336  1.0000
  H   H138      1.0  0.42177  0.28902  0.02921  1.0000
  C   C77       1.0  0.41350  0.02804  0.31492  1.0000
  C   C78       1.0  0.15539  0.30892  0.39200  1.0000
  H   H139      1.0  0.00370  0.22366  0.21827  1.0000
  C   C79       1.0  0.48178  0.28640  0.35338  1.0000
  C   C80       1.0  0.47954  0.01703  0.33179  1.0000
  N   N4        1.0  0.43605  0.01091  0.32857  1.0000
  S   S18       1.0  0.47717  0.01750  0.05068  1.0000
  H   H140      1.0  0.47884  0.24916  0.26631  1.0000
  H   H141      1.0  0.40709  0.06424  0.28474  1.0000
  H   H142      1.0  0.48079  0.31035  0.03771  1.0000
  H   H143      1.0  0.42799  0.99167  0.36544  1.0000
  H   H144      1.0  0.36601  0.01890  0.49628  1.0000
  H   H145      1.0  0.49060  0.22590  0.28464  1.0000
  H   H146      1.0  0.45093  0.99452  0.29030  1.0000
  H   H147      1.0  0.41126  0.99386  0.47320  1.0000
  C   C81       1.0  0.41712  0.00633  0.35703  1.0000
  H   H148      1.0  0.06350  0.21987  0.06746  1.0000
  H   H149      1.0  0.48464  0.99069  0.19347  1.0000
  C   C82       1.0  0.43281  0.29836  0.01130  1.0000
  H   H150      1.0  0.02279  0.18708  0.03120  1.0000
  H   H151      1.0  0.01327  0.25890  0.47823  1.0000
  C   C83       1.0  0.00408  0.23594  0.20227  1.0000
  C   C84       1.0  0.49059  0.01112  0.46940  1.0000
  H   H152      1.0  0.44694  0.13718  0.19102  1.0000
  H   H153      1.0  0.23472  0.14187  0.01836  1.0000
  H   H154      1.0  0.35479  0.29616  0.00975  1.0000
  C   C85       1.0  0.49446  0.30948  0.42694  1.0000
  H   H155      1.0  0.29581  0.15153  0.00228  1.0000
  H   H156      1.0  0.49360  0.01934  0.31061  1.0000
  H   H157      1.0  0.43430  0.31888  0.41527  1.0000
  C   C86       1.0  0.17153  0.31468  0.47317  1.0000
  H   H158      1.0  0.13885  0.31236  0.47713  1.0000
  H   H159      1.0  0.34246  0.25091  0.00235  1.0000
  H   H160      1.0  0.34679  0.14436  0.00152  1.0000
  H   H161      1.0  0.30422  0.31800  0.45043  1.0000
  H   H162      1.0  0.49417  0.99704  0.36802  1.0000
  H   H163      1.0  0.99544  0.22461  0.03128  1.0000
  N   N5        1.0  0.17855  0.31995  0.44237  1.0000
  H   H164      1.0  0.48946  0.31296  0.00007  1.0000
  Fe  Fe10      1.0  0.16509  0.18637  0.62813  1.0000
  S   S19       1.0  0.16770  0.21941  0.61929  1.0000
  S   S20       1.0  0.10511  0.16975  0.63294  1.0000
  Fe  Fe11      1.0  0.25696  0.18080  0.61834  1.0000
  S   S21       1.0  0.26383  0.21376  0.60812  1.0000
  S   S22       1.0  0.31894  0.16566  0.61476  1.0000
  Fe  Fe12      1.0  0.22410  0.21902  0.64618  1.0000
  S   S23       1.0  0.24187  0.24471  0.67591  1.0000
  Fe  Fe13      1.0  0.20737  0.21108  0.58232  1.0000
  S   S24       1.0  0.19171  0.22010  0.53667  1.0000
  S   S25       1.0  0.21923  0.18630  0.65760  1.0000
  S   S26       1.0  0.20274  0.17785  0.59010  1.0000
  H   H165      1.0  0.46393  0.06205  0.53010  1.0000
  S   S27       1.0  0.23262  0.28207  0.86313  1.0000
  Fe  Fe14      1.0  0.34546  0.29880  0.86701  1.0000
  S   S28       1.0  0.32505  0.26757  0.87826  1.0000
  H   H166      1.0  0.44092  0.26974  0.93264  1.0000
  Fe  Fe15      1.0  0.28580  0.26982  0.83894  1.0000
  S   S29       1.0  0.28083  0.24272  0.80914  1.0000
  Fe  Fe16      1.0  0.27385  0.28248  0.90125  1.0000
  S   S30       1.0  0.25330  0.27878  0.94735  1.0000
  H   H167      1.0  0.39602  0.01405  0.60108  1.0000
  H   H168      1.0  0.99711  0.19748  0.54353  1.0000
  Fe  Fe17      1.0  0.46285  0.06824  0.61936  1.0000
  S   S31       1.0  0.39620  0.07742  0.61814  1.0000
  H   H169      1.0  0.08239  0.22664  0.51927  1.0000
  H   H170      1.0  0.24296  0.15404  0.53942  1.0000
  S   S32       1.0  0.47625  0.03496  0.62247  1.0000
  H   H171      1.0  0.37188  0.99212  0.58750  1.0000
  H   H172      1.0  0.10965  0.20587  0.55280  1.0000
  H   H173      1.0  0.32257  0.00763  0.56067  1.0000
  C   C87       1.0  0.40460  0.31926  0.79510  1.0000
  H   H174      1.0  0.39526  0.01570  0.91614  1.0000
  H   H175      1.0  0.42524  0.07569  0.51166  1.0000
  C   C88       1.0  0.33913  0.14084  0.61496  1.0000
  C   C89       1.0  0.38089  0.13841  0.61128  1.0000
  C   C90       1.0  0.39882  0.11920  0.61218  1.0000
  C   C91       1.0  0.37516  0.10206  0.61667  1.0000
  C   C92       1.0  0.33331  0.10448  0.62002  1.0000
  C   C93       1.0  0.31538  0.12373  0.61927  1.0000
  H   H176      1.0  0.39965  0.15150  0.60798  1.0000
  H   H177      1.0  0.43100  0.11764  0.60953  1.0000
  H   H178      1.0  0.31465  0.09136  0.62346  1.0000
  H   H179      1.0  0.28326  0.12529  0.62218  1.0000
  C   C94       1.0  0.25107  0.24383  0.71318  1.0000
  C   C95       1.0  0.24841  0.22597  0.72879  1.0000
  C   C96       1.0  0.25703  0.22596  0.75819  1.0000
  C   C97       1.0  0.26796  0.24378  0.77242  1.0000
  C   C98       1.0  0.27020  0.26166  0.75687  1.0000
  C   C99       1.0  0.26197  0.26164  0.72743  1.0000
  H   H180      1.0  0.23954  0.21222  0.71824  1.0000
  H   H181      1.0  0.25486  0.21209  0.77008  1.0000
  H   H182      1.0  0.27853  0.27549  0.76748  1.0000
  H   H183      1.0  0.26390  0.27556  0.71562  1.0000
  C   C100      1.0  0.25551  0.25801  0.97102  1.0000
  C   C101      1.0  0.42693  0.28714  0.98259  1.0000
  N   N6        1.0  0.38567  0.01451  0.55545  1.0000
  C   C102      1.0  0.41801  0.00426  0.92172  1.0000
  H   H184      1.0  0.46522  0.06083  0.92810  1.0000
  H   H185      1.0  0.13061  0.26953  0.58891  1.0000
  H   H186      1.0  0.36618  0.05032  0.86353  1.0000
  H   H187      1.0  0.26296  0.24513  0.54513  1.0000
  H   H188      1.0  0.42040  0.04281  0.89785  1.0000
  H   H189      1.0  0.28846  0.23833  0.94325  1.0000
  H   H190      1.0  0.38937  0.25248  0.96698  1.0000
  C   C103      1.0  0.45799  0.30134  0.87135  1.0000
  H   H191      1.0  0.29295  0.21067  0.97874  1.0000
  C   C104      1.0  0.10974  0.16624  0.54977  1.0000
  C   C105      1.0  0.40631  0.04655  0.52752  1.0000
  C   C106      1.0  0.05253  0.20138  0.64378  1.0000
  C   C107      1.0  0.05688  0.18122  0.63599  1.0000
  H   H192      1.0  0.40239  0.01786  0.85872  1.0000
  H   H193      1.0  0.07896  0.21038  0.64815  1.0000
  H   H194      1.0  0.02494  0.15410  0.62477  1.0000
  C   C108      1.0  0.07995  0.20060  0.56076  1.0000
  H   H195      1.0  0.43172  0.12892  0.70084  1.0000
  N   N7        1.0  0.33716  0.17089  0.71141  1.0000
  C   C109      1.0  0.33091  0.18024  0.74031  1.0000
  C   C110      1.0  0.29706  0.16339  0.70064  1.0000
  C   C111      1.0  0.36704  0.15399  0.71415  1.0000
  C   C112      1.0  0.35333  0.18603  0.69043  1.0000
  C   C113      1.0  0.32962  0.20605  0.68823  1.0000
  C   C114      1.0  0.36829  0.19056  0.75377  1.0000
  C   C115      1.0  0.37428  0.14136  0.68686  1.0000
  C   C116      1.0  0.27893  0.14495  0.71629  1.0000
  C   C117      1.0  0.23837  0.13906  0.70337  1.0000
  C   C118      1.0  0.34674  0.21938  0.66474  1.0000
  C   C119      1.0  0.35745  0.20075  0.78186  1.0000
  C   C120      1.0  0.40206  0.12360  0.69295  1.0000
  H   H196      1.0  0.32079  0.16869  0.75582  1.0000
  H   H197      1.0  0.30600  0.19139  0.73963  1.0000
  H   H198      1.0  0.27422  0.17550  0.70234  1.0000
  H   H199      1.0  0.29864  0.15973  0.67753  1.0000
  H   H200      1.0  0.35827  0.14367  0.73174  1.0000
  H   H201      1.0  0.39705  0.15997  0.72033  1.0000
  H   H202      1.0  0.38532  0.18972  0.69509  1.0000
  H   H203      1.0  0.35376  0.17944  0.66868  1.0000
  H   H204      1.0  0.33112  0.21469  0.70839  1.0000
  H   H205      1.0  0.29758  0.20329  0.68305  1.0000
  H   H206      1.0  0.39204  0.17934  0.75839  1.0000
  H   H207      1.0  0.38107  0.20225  0.73962  1.0000
  H   H208      1.0  0.38882  0.15071  0.67023  1.0000
  H   H209      1.0  0.34589  0.13521  0.67806  1.0000
  H   H210      1.0  0.29882  0.13165  0.71467  1.0000
  H   H211      1.0  0.27391  0.14831  0.73911  1.0000
  H   H212      1.0  0.24181  0.13527  0.68047  1.0000
  H   H213      1.0  0.22612  0.12569  0.71456  1.0000
  H   H214      1.0  0.21642  0.15154  0.70557  1.0000
  H   H215      1.0  0.32956  0.23367  0.66380  1.0000
  H   H216      1.0  0.37884  0.22295  0.66889  1.0000
  H   H217      1.0  0.34382  0.21169  0.64388  1.0000
  H   H218      1.0  0.38476  0.20756  0.79151  1.0000
  H   H219      1.0  0.33522  0.21289  0.77824  1.0000
  H   H220      1.0  0.34464  0.18972  0.79713  1.0000
  H   H221      1.0  0.38830  0.11337  0.70889  1.0000
  C   C121      1.0  0.43137  0.06572  0.53007  1.0000
  H   H222      1.0  0.28195  0.05308  0.59841  1.0000
  C   C122      1.0  0.39142  0.27775  0.77208  1.0000
  C   C123      1.0  0.45320  0.00373  0.90020  1.0000
  H   H223      1.0  0.09563  0.25270  0.54913  1.0000
  H   H224      1.0  0.39419  0.23233  0.56924  1.0000
  S   S33       1.0  0.30943  0.30020  0.82630  1.0000
  H   H225      1.0  0.01096  0.22534  0.65327  1.0000
  H   H226      1.0  0.32267  0.28329  0.98640  1.0000
  H   H227      1.0  0.27074  0.20052  0.53017  1.0000
  H   H228      1.0  0.05556  0.22822  0.59766  1.0000
  C   C124      1.0  0.30694  0.12066  0.98934  1.0000
  C   C125      1.0  0.38580  0.25590  0.78126  1.0000
  H   H229      1.0  0.44129  0.99198  0.62981  1.0000
  H   H230      1.0  0.41531  0.03910  0.50742  1.0000
  C   C126      1.0  0.35744  0.20544  0.56266  1.0000
  C   C127      1.0  0.36905  0.22415  0.57969  1.0000
  H   H231      1.0  0.39832  0.27504  0.91052  1.0000
  H   H232      1.0  0.06467  0.18051  0.52458  1.0000
  H   H233      1.0  0.29402  0.17980  0.54605  1.0000
  H   H234      1.0  0.43820  0.99943  0.75949  1.0000
  H   H235      1.0  0.34179  0.29963  0.94415  1.0000
  C   C128      1.0  0.27758  0.22443  0.98425  1.0000
  H   H236      1.0  0.41117  0.24647  0.77373  1.0000
  H   H237      1.0  0.33096  0.15078  0.52864  1.0000
  H   H238      1.0  0.40384  0.06246  0.84148  1.0000
  H   H239      1.0  0.46163  0.00322  0.58133  1.0000
  H   H240      1.0  0.33199  0.19814  0.57374  1.0000
  H   H241      1.0  0.38386  0.19528  0.56291  1.0000
  H   H242      1.0  0.34284  0.23438  0.58184  1.0000
  H   H243      1.0  0.37902  0.21965  0.60127  1.0000
  H   H244      1.0  0.37490  0.21714  0.52267  1.0000
  C   C129      1.0  0.05081  0.22239  0.52457  1.0000
  H   H245      1.0  0.12203  0.23521  0.57137  1.0000
  C   C130      1.0  0.05584  0.23364  0.57525  1.0000
  H   H246      1.0  0.26905  0.02845  0.58519  1.0000
  C   C131      1.0  0.38173  0.26588  0.95396  1.0000
  H   H247      1.0  0.42257  0.15497  0.53555  1.0000
  H   H248      1.0  0.44131  0.27216  0.98552  1.0000
  H   H249      1.0  0.19789  0.27740  0.52224  1.0000
  C   C132      1.0  0.37264  0.30213  0.95286  1.0000
  C   C133      1.0  0.18220  0.29118  0.51500  1.0000
  H   H250      1.0  0.04405  0.20946  0.51041  1.0000
  C   C134      1.0  0.39468  0.14651  0.53032  1.0000
  C   C135      1.0  0.22226  0.23421  0.51310  1.0000
  H   H251      1.0  0.45665  0.30309  0.73585  1.0000
  H   H252      1.0  0.11893  0.29762  0.87292  1.0000
  H   H253      1.0  0.43002  0.24396  0.89538  1.0000
  H   H254      1.0  0.43928  0.27249  0.85546  1.0000
  C   C136      1.0  0.43666  0.99239  0.58347  1.0000
  C   C137      1.0  0.39561  0.00350  0.58271  1.0000
  H   H255      1.0  0.43544  0.28220  0.80571  1.0000
  C   C138      1.0  0.27512  0.24009  0.96408  1.0000
  H   H256      1.0  0.38351  0.25487  0.80480  1.0000
  H   H257      1.0  0.35021  0.26346  0.94644  1.0000
  H   H258      1.0  0.40588  0.31023  0.73951  1.0000
  H   H259      1.0  0.10355  0.15132  0.54012  1.0000
  H   H260      1.0  0.39154  0.13400  0.54584  1.0000
  C   C139      1.0  0.34226  0.02104  0.55751  1.0000
  H   H261      1.0  0.46206  0.01758  0.71634  1.0000
  H   H262      1.0  0.33025  0.13422  0.95038  1.0000
  H   H263      1.0  0.40707  0.11488  0.67313  1.0000
  H   H264      1.0  0.45583  0.27775  0.77138  1.0000
  C   C140      1.0  0.49323  0.05048  0.96640  1.0000
  H   H265      1.0  0.13556  0.17322  0.53847  1.0000
  H   H266      1.0  0.35749  0.24991  0.77199  1.0000
  H   H267      1.0  0.32499  0.22377  0.53236  1.0000
  C   C141      1.0  0.07247  0.17951  0.54740  1.0000
  H   H268      1.0  0.36542  0.28636  0.78030  1.0000
  C   C142      1.0  0.28789  0.04197  0.58126  1.0000
  C   C143      1.0  0.29021  0.18738  0.52522  1.0000
  H   H269      1.0  0.33166  0.02790  0.53742  1.0000
  C   C144      1.0  0.43222  0.28632  0.78289  1.0000
  C   C145      1.0  0.41161  0.24382  0.91509  1.0000
  C   C146      1.0  0.02199  0.16974  0.63072  1.0000
  C   C147      1.0  0.39151  0.00002  0.53090  1.0000
  N   N8        1.0  0.32996  0.19441  0.51319  1.0000
  C   C148      1.0  0.27900  0.25624  0.50336  1.0000
  C   C149      1.0  0.30234  0.12684  0.95820  1.0000
  C   C150      1.0  0.25556  0.24510  0.52272  1.0000
  C   C151      1.0  0.23819  0.26000  0.99818  1.0000
  H   H270      1.0  0.47598  0.06118  0.97980  1.0000
  C   C152      1.0  0.47028  0.04620  0.93890  1.0000
  C   C153      1.0  0.44309  0.03862  0.88166  1.0000
  H   H271      1.0  0.27665  0.13735  0.95565  1.0000
  H   H272      1.0  0.37446  0.05124  0.52611  1.0000
  H   H273      1.0  0.42361  0.07397  0.54989  1.0000
  H   H274      1.0  0.37220  0.04299  0.82689  1.0000
  C   C154      1.0  0.09570  0.24528  0.57026  1.0000
  H   H275      1.0  0.01090  0.31157  0.84648  1.0000
  C   C155      1.0  0.40974  0.26504  0.92749  1.0000
  C   C156      1.0  0.47009  0.00026  0.75507  1.0000
  H   H276      1.0  0.39029  0.27810  0.74849  1.0000
  H   H277      1.0  0.38098  0.23830  0.90971  1.0000
  H   H278      1.0  0.15348  0.31813  0.87959  1.0000
  H   H279      1.0  0.06855  0.31345  0.90510  1.0000
  H   H280      1.0  0.42380  0.99972  0.52439  1.0000
  H   H281      1.0  0.30458  0.26474  0.51104  1.0000
  S   S34       1.0  0.29605  0.31383  0.89202  1.0000
  H   H282      1.0  0.10259  0.25493  0.61435  1.0000
  C   C157      1.0  0.33250  0.03650  0.58130  1.0000
  C   C158      1.0  0.38852  0.04799  0.84627  1.0000
  C   C159      1.0  0.10163  0.26164  0.59272  1.0000
  H   H283      1.0  0.08418  0.19821  0.58402  1.0000
  H   H284      1.0  0.35622  0.16580  0.55442  1.0000
  H   H285      1.0  0.03163  0.24503  0.57433  1.0000
  H   H286      1.0  0.44547  0.02704  0.55069  1.0000
  C   C160      1.0  0.23127  0.16290  0.52120  1.0000
  H   H287      1.0  0.48991  0.01221  0.85158  1.0000
  C   C161      1.0  0.36012  0.17754  0.51005  1.0000
  S   S35       1.0  0.40877  0.31164  0.87496  1.0000
  C   C162      1.0  0.41388  0.03223  0.55289  1.0000
  N   N9        1.0  0.47284  0.02357  0.89324  1.0000
  Fe  Fe18      1.0  0.25813  0.31256  0.85266  1.0000
  H   H288      1.0  0.29645  0.11332  0.94495  1.0000
  N   N10       1.0  0.04781  0.21625  0.55538  1.0000
  N   N11       1.0  0.38432  0.28477  0.97178  1.0000
  C   C163      1.0  0.46465  0.28204  0.86056  1.0000
  H   H289      1.0  0.44062  0.03991  0.94477  1.0000
  H   H290      1.0  0.27861  0.11313  0.99576  1.0000
  H   H291      1.0  0.47563  0.99324  0.90949  1.0000
  H   H292      1.0  0.02335  0.25252  0.52929  1.0000
  C   C164      1.0  0.34655  0.21101  0.53173  1.0000
  C   C165      1.0  0.35370  0.28298  0.99537  1.0000
  H   H293      1.0  0.27923  0.04885  0.56063  1.0000
  H   H294      1.0  0.04756  0.17165  0.55858  1.0000
  H   H295      1.0  0.41388  0.04124  0.57287  1.0000
  H   H296      1.0  0.34965  0.05064  0.57809  1.0000
  H   H297      1.0  0.39290  0.30309  0.93416  1.0000
  C   C166      1.0  0.35801  0.16024  0.53231  1.0000
  C   C167      1.0  0.41919  0.03202  0.85482  1.0000
  H   H298      1.0  0.33963  0.03050  0.60269  1.0000
  H   H299      1.0  0.01007  0.19626  0.58014  1.0000
  H   H300      1.0  0.39730  0.13998  0.50866  1.0000
  C   C168      1.0  0.12811  0.30926  0.88859  1.0000
  C   C169      1.0  0.48355  0.01058  0.73046  1.0000
  C   C170      1.0  0.01386  0.20982  0.64673  1.0000
  H   H301      1.0  0.20952  0.17428  0.52893  1.0000
  H   H302      1.0  0.42574  0.23334  0.93049  1.0000
  H   H303      1.0  0.44571  0.29488  0.96625  1.0000
  H   H304      1.0  0.39127  0.18374  0.51020  1.0000
  H   H305      1.0  0.11785  0.16392  0.57241  1.0000
  H   H306      1.0  0.42982  0.00731  0.94337  1.0000
  H   H307      1.0  0.07688  0.27280  0.59174  1.0000
  C   C171      1.0  0.02265  0.23947  0.51467  1.0000
  H   H308      1.0  0.44264  0.99622  0.88041  1.0000
  C   C172      1.0  0.00732  0.20682  0.56185  1.0000
  H   H309      1.0  0.43943  0.02981  0.83633  1.0000
  H   H310      1.0  0.33379  0.99905  0.50834  1.0000
  C   C173      1.0  0.36557  0.00318  0.50380  1.0000
  H   H311      1.0  0.45901  0.05291  0.87642  1.0000
  H   H312      1.0  0.33211  0.10977  0.99039  1.0000
  H   H313      1.0  0.13900  0.30158  0.90809  1.0000
  C   C174      1.0  0.49152  0.31338  0.87825  1.0000
  C   C175      1.0  0.43656  0.31335  0.74794  1.0000
  H   H314      1.0  0.14932  0.28870  0.51736  1.0000
  H   H315      1.0  0.47786  0.31095  0.81551  1.0000
  C   C176      1.0  0.26552  0.17330  0.50539  1.0000
  H   H316      1.0  0.21514  0.15256  0.50656  1.0000
  N   N12       1.0  0.43826  0.30870  0.77931  1.0000
  H   H317      1.0  0.39467  0.31007  0.81364  1.0000
  C   C177      1.0  0.47848  0.31407  0.79228  1.0000
  H   H318      1.0  0.49013  0.03373  0.50267  1.0000
  C   C178      1.0  0.49443  0.03198  0.91906  1.0000
  H   H319      1.0  0.19177  0.30385  0.52884  1.0000
  C   C179      1.0  0.16955  0.44149  0.33645  1.0000
  Fe  Fe19      1.0  0.05278  0.41138  0.36260  1.0000
  S   S36       1.0  0.09034  0.38393  0.34830  1.0000
  S   S37       1.0  0.04874  0.46728  0.43765  1.0000
  H   H320      1.0  0.15867  0.44986  0.28208  1.0000
  S   S38       1.0  0.06435  0.44484  0.35878  1.0000
  Fe  Fe20      1.0  0.06223  0.56943  0.11063  1.0000
  S   S39       1.0  0.09720  0.59870  0.10051  1.0000
  C   C180      1.0  0.01079  0.40037  0.26621  1.0000
  C   C181      1.0  0.02050  0.49674  0.01701  1.0000
  S   S40       1.0  0.08105  0.53698  0.11537  1.0000
  N   N13       1.0  0.99485  0.63763  0.10008  1.0000
  S   S41       1.0  0.26440  0.34330  0.36384  1.0000
  H   H321      1.0  0.11040  0.45219  0.29722  1.0000
  C   C182      1.0  0.14269  0.61053  0.11234  1.0000
  C   C183      1.0  0.16821  0.60189  0.13260  1.0000
  C   C184      1.0  0.20415  0.61180  0.14077  1.0000
  C   C185      1.0  0.21511  0.63052  0.12902  1.0000
  C   C186      1.0  0.18922  0.63932  0.10913  1.0000
  C   C187      1.0  0.15344  0.62936  0.10082  1.0000
  H   H322      1.0  0.16061  0.58744  0.14168  1.0000
  H   H323      1.0  0.10658  0.34057  0.46364  1.0000
  H   H324      1.0  0.02730  0.64496  0.15518  1.0000
  H   H325      1.0  0.13431  0.63612  0.08493  1.0000
  C   C188      1.0  0.13890  0.37295  0.35347  1.0000
  C   C189      1.0  0.14688  0.35403  0.34126  1.0000
  C   C190      1.0  0.18474  0.34466  0.34442  1.0000
  C   C191      1.0  0.21544  0.35410  0.35987  1.0000
  C   C192      1.0  0.20750  0.37306  0.37205  1.0000
  C   C193      1.0  0.16949  0.38237  0.36907  1.0000
  H   H326      1.0  0.12358  0.34657  0.32911  1.0000
  H   H327      1.0  0.05462  0.42331  0.47385  1.0000
  H   H328      1.0  0.23100  0.38063  0.38387  1.0000
  H   H329      1.0  0.16399  0.39689  0.37865  1.0000
  S   S42       1.0  0.26092  0.64231  0.14031  1.0000
  H   H330      1.0  0.01596  0.62526  0.19849  1.0000
  H   H331      1.0  0.12472  0.47315  0.25182  1.0000
  H   H332      1.0  0.04195  0.41792  0.23528  1.0000
  H   H333      1.0  0.12470  0.62850  0.20144  1.0000
  H   H334      1.0  0.18810  0.64388  0.18401  1.0000
  C   C194      1.0  0.21063  0.40047  0.24047  1.0000
  C   C195      1.0  0.12047  0.47118  0.20629  1.0000
  H   H335      1.0  0.15038  0.45417  0.34358  1.0000
  H   H336      1.0  0.17381  0.35184  0.45091  1.0000
  S   S43       1.0  0.01415  0.56135  0.07837  1.0000
  Fe  Fe21      1.0  0.00536  0.44672  0.33509  1.0000
  H   H337      1.0  0.03701  0.44316  0.49660  1.0000
  H   H338      1.0  0.17767  0.43235  0.35535  1.0000
  C   C196      1.0  0.15416  0.62406  0.21061  1.0000
  C   C197      1.0  0.01365  0.61781  0.17743  1.0000
  C   C198      1.0  0.99975  0.62339  0.12485  1.0000
  H   H339      1.0  0.19741  0.39070  0.22371  1.0000
  H   H340      1.0  0.04294  0.61052  0.17262  1.0000
  H   H341      1.0  0.05870  0.64800  0.05819  1.0000
  C   C199      1.0  0.02564  0.48130  0.46605  1.0000
  C   C200      1.0  0.99759  0.50973  0.00009  1.0000
  C   C201      1.0  0.17617  0.49052  0.00073  1.0000
  C   C202      1.0  0.29317  0.33356  0.44698  1.0000
  H   H342      1.0  0.10334  0.36384  0.40723  1.0000
  H   H343      1.0  0.08780  0.47427  0.20423  1.0000
  C   C203      1.0  0.10244  0.44314  0.24078  1.0000
  C   C204      1.0  0.04312  0.48970  0.26879  1.0000
  H   H344      1.0  0.02658  0.61375  0.12158  1.0000
  H   H345      1.0  0.09957  0.43456  0.22052  1.0000
  C   C205      1.0  0.03051  0.47773  0.00567  1.0000
  H   H346      1.0  0.02306  0.61662  0.07132  1.0000
  C   C206      1.0  0.24860  0.33506  0.45447  1.0000
  C   C207      1.0  0.00044  0.49342  0.21744  1.0000
  S   S44       1.0  0.99526  0.41318  0.33722  1.0000
  C   C208      1.0  0.13243  0.44090  0.28917  1.0000
  H   H347      1.0  0.04789  0.46742  0.01849  1.0000
  H   H348      1.0  0.05622  0.43108  0.28602  1.0000
  Fe  Fe22      1.0  0.03532  0.53507  0.15109  1.0000
  H   H349      1.0  0.18018  0.32743  0.48727  1.0000
  C   C209      1.0  0.09863  0.36226  0.43048  1.0000
  H   H350      1.0  0.99887  0.57774  0.21169  1.0000
  H   H351      1.0  0.13506  0.32187  0.38848  1.0000
  C   C210      1.0  0.22292  0.32079  0.43560  1.0000
  H   H352      1.0  0.11416  0.37481  0.44160  1.0000
  S   S45       1.0  0.01932  0.56813  0.14778  1.0000
  H   H353      1.0  0.16473  0.61043  0.19918  1.0000
  H   H354      1.0  0.29513  0.64504  0.20491  1.0000
  C   C211      1.0  0.14121  0.41263  0.25443  1.0000
  H   H355      1.0  0.21438  0.63524  0.21454  1.0000
  C   C212      1.0  0.05620  0.50312  0.24730  1.0000
  H   H356      1.0  0.21396  0.39167  0.26042  1.0000
  H   H357      1.0  0.08132  0.48477  0.48906  1.0000
  Fe  Fe23      1.0  0.02971  0.52884  0.08550  1.0000
  H   H358      1.0  0.01696  0.39008  0.28429  1.0000
  S   S46       1.0  0.01990  0.41442  0.40437  1.0000
  Fe  Fe24      1.0  0.02711  0.44810  0.39931  1.0000
  H   H359      1.0  0.12155  0.42128  0.32607  1.0000
  C   C213      1.0  0.00853  0.47799  0.26479  1.0000
  S   S47       1.0  0.03777  0.50330  0.05210  1.0000
  C   C214      1.0  0.11428  0.34194  0.44076  1.0000
  H   H360      1.0  0.13695  0.48565  0.20416  1.0000
  N   N14       1.0  0.11399  0.42917  0.26489  1.0000
  C   C215      1.0  0.18493  0.64097  0.20700  1.0000
  C   C216      1.0  0.03079  0.65172  0.10013  1.0000
  C   C217      1.0  0.07582  0.41951  0.27592  1.0000
  H   H361      1.0  0.15931  0.49897  0.01727  1.0000
  H   H362      1.0  0.31086  0.34389  0.46070  1.0000
  H   H363      1.0  0.07203  0.44971  0.24463  1.0000
  C   C218      1.0  0.12990  0.46162  0.23509  1.0000
  H   H364      1.0  0.06585  0.36341  0.43472  1.0000
  H   H365      1.0  0.14339  0.40046  0.27064  1.0000
  H   H366      1.0  0.15035  0.62022  0.23344  1.0000
  H   H367      1.0  0.23964  0.35094  0.45122  1.0000
  C   C219      1.0  0.05008  0.40810  0.25343  1.0000
  H   H368      1.0  0.08256  0.40843  0.29297  1.0000
  H   H369      1.0  0.16834  0.34552  0.41472  1.0000
  H   H370      1.0  0.18310  0.42741  0.22526  1.0000
  H   H371      1.0  0.16824  0.41628  0.30833  1.0000
  C   C220      1.0  0.14723  0.42832  0.31492  1.0000
  H   H372      1.0  0.05982  0.48846  0.28845  1.0000
  C   C221      1.0  0.03513  0.50508  0.22140  1.0000
  H   H373      1.0  0.19764  0.44758  0.32698  1.0000
  H   H374      1.0  0.12981  0.46107  0.18871  1.0000
  C   C222      1.0  0.18423  0.41892  0.24554  1.0000
  H   H375      1.0  0.22380  0.60480  0.15617  1.0000
  H   H376      1.0  0.12798  0.40516  0.23544  1.0000
  H   H377      1.0  0.06655  0.39485  0.24518  1.0000
  H   H378      1.0  0.19932  0.42818  0.26198  1.0000
  H   H379      1.0  0.09775  0.33011  0.42896  1.0000
  H   H380      1.0  0.16223  0.45782  0.23528  1.0000
  H   H381      1.0  0.24102  0.40533  0.23343  1.0000
  H   H382      1.0  0.24563  0.33137  0.47734  1.0000
  H   H383      1.0  0.22760  0.32584  0.41334  1.0000
  H   H384      1.0  0.08310  0.51198  0.25070  1.0000
  C   C223      1.0  0.99862  0.56505  0.22696  1.0000
  S   S48       1.0  0.05438  0.52177  0.19466  1.0000
  C   C224      1.0  0.16049  0.34033  0.43657  1.0000
  H   H385      1.0  0.05789  0.64393  0.10882  1.0000
  H   H386      1.0  0.18823  0.47661  0.01059  1.0000
  H   H387      1.0  0.45345  0.33078  0.44700  1.0000
  H   H388      1.0  0.02962  0.55892  0.22839  1.0000
  H   H389      1.0  0.29818  0.33792  0.42445  1.0000
  C   C225      1.0  0.00339  0.63333  0.15467  1.0000
  C   C226      1.0  0.04944  0.48799  0.48906  1.0000
  H   H390      1.0  0.32083  0.64999  0.23795  1.0000
  C   C227      1.0  0.03071  0.42762  0.48918  1.0000
  H   H391      1.0  0.19037  0.33026  0.33454  1.0000
  H   H392      1.0  0.19712  0.65365  0.09978  1.0000
  H   H393      1.0  0.19432  0.47749  0.88130  1.0000
  Fe  Fe25      1.0  0.05427  0.42238  0.86996  1.0000
  S   S49       1.0  0.11200  0.40775  0.88643  1.0000
  H   H394      1.0  0.20695  0.44496  0.85656  1.0000
  S   S50       1.0  0.00586  0.42160  0.90324  1.0000
  S   S51       1.0  0.04515  0.45549  0.86098  1.0000
  Fe  Fe26      1.0  0.05006  0.56512  0.60427  1.0000
  S   S52       1.0  0.11017  0.57982  0.59260  1.0000
  H   H395      1.0  0.05429  0.49362  0.66304  1.0000
  C   C228      1.0  0.00154  0.50896  0.71689  1.0000
  S   S53       1.0  0.04047  0.53168  0.60979  1.0000
  H   H396      1.0  0.21647  0.55475  0.65621  1.0000
  H   H397      1.0  0.14565  0.43810  0.97478  1.0000
  H   H398      1.0  0.40594  0.32769  0.97039  1.0000
  C   C229      1.0  0.13734  0.59982  0.60888  1.0000
  C   C230      1.0  0.16946  0.60870  0.59397  1.0000
  C   C231      1.0  0.19266  0.62423  0.60624  1.0000
  C   C232      1.0  0.18452  0.63082  0.63390  1.0000
  C   C233      1.0  0.15248  0.62187  0.64890  1.0000
  C   C234      1.0  0.12872  0.60664  0.63637  1.0000
  H   H399      1.0  0.17661  0.60346  0.57278  1.0000
  H   H400      1.0  0.23439  0.56504  0.60717  1.0000
  H   H401      1.0  0.14600  0.62679  0.67034  1.0000
  H   H402      1.0  0.10416  0.59999  0.64810  1.0000
  C   C235      1.0  0.14050  0.38783  0.87122  1.0000
  C   C236      1.0  0.13840  0.38305  0.84230  1.0000
  C   C237      1.0  0.16226  0.36741  0.83110  1.0000
  C   C238      1.0  0.18808  0.35615  0.84866  1.0000
  C   C239      1.0  0.18972  0.36074  0.87769  1.0000
  C   C240      1.0  0.16633  0.37660  0.88881  1.0000
  H   H403      1.0  0.11900  0.39163  0.82841  1.0000
  H   H404      1.0  0.16085  0.36404  0.80861  1.0000
  H   H405      1.0  0.43490  0.33880  0.82620  1.0000
  H   H406      1.0  0.16824  0.38015  0.91122  1.0000
  C   C241      1.0  0.12565  0.43358  0.95703  1.0000
  S   S54       1.0  0.01288  0.41210  0.83515  1.0000
  C   C242      1.0  0.01786  0.47182  0.97811  1.0000
  C   C243      1.0  0.12737  0.48251  0.91066  1.0000
  H   H407      1.0  0.18871  0.46183  0.96210  1.0000
  H   H408      1.0  0.05137  0.50353  0.52969  1.0000
  H   H409      1.0  0.03178  0.41722  0.50761  1.0000
  C   C244      1.0  0.04765  0.36229  0.89700  1.0000
  C   C245      1.0  0.44627  0.33521  0.73911  1.0000
  C   C246      1.0  0.17046  0.47397  0.95223  1.0000
  H   H410      1.0  0.07491  0.43238  0.98632  1.0000
  C   C247      1.0  0.22794  0.45068  0.87312  1.0000
  H   H411      1.0  0.19589  0.52521  0.68599  1.0000
  N   N15       1.0  0.04109  0.34749  0.87283  1.0000
  C   C248      1.0  0.00325  0.33554  0.87837  1.0000
  H   H412      1.0  0.04299  0.51398  0.90848  1.0000
  H   H413      1.0  0.00770  0.62479  0.59968  1.0000
  H   H414      1.0  0.15101  0.50865  0.71922  1.0000
  C   C249      1.0  0.08524  0.49046  0.91925  1.0000
  H   H415      1.0  0.00427  0.36589  0.84501  1.0000
  H   H416      1.0  0.10444  0.59714  0.70714  1.0000
  C   C250      1.0  0.35674  0.33912  0.94618  1.0000
  H   H417      1.0  0.10374  0.33377  0.91221  1.0000
  H   H418      1.0  0.48683  0.32834  0.88663  1.0000
  H   H419      1.0  0.13380  0.54370  0.62942  1.0000
  H   H420      1.0  0.02001  0.52651  0.75320  1.0000
  H   H421      1.0  0.21739  0.63083  0.59452  1.0000
  C   C251      1.0  0.09291  0.65311  0.58913  1.0000
  H   H422      1.0  0.42246  0.34545  0.74693  1.0000
  H   H423      1.0  0.14564  0.49876  0.67223  1.0000
  C   C252      1.0  0.03808  0.63088  0.60453  1.0000
  H   H424      1.0  0.24116  0.43769  0.88463  1.0000
  H   H425      1.0  0.06238  0.47876  0.91462  1.0000
  H   H426      1.0  0.05783  0.58585  0.69499  1.0000
  H   H427      1.0  0.05464  0.37419  0.84790  1.0000
  C   C253      1.0  0.14792  0.48536  0.97613  1.0000
  H   H428      1.0  0.03073  0.37652  0.89313  1.0000
  H   H429      1.0  0.20942  0.35224  0.89147  1.0000
  H   H430      1.0  0.09499  0.52165  0.90670  1.0000
  C   C254      1.0  0.17160  0.45317  0.90927  1.0000
  C   C255      1.0  0.03398  0.36413  0.79256  1.0000
  C   C256      1.0  0.01113  0.51174  0.74588  1.0000
  H   H431      1.0  0.18646  0.44093  0.92142  1.0000
  C   C257      1.0  0.20594  0.46460  0.89377  1.0000
  H   H432      1.0  0.06723  0.41893  0.95326  1.0000
  C   C258      1.0  0.09270  0.32297  0.89596  1.0000
  H   H433      1.0  0.03638  0.33572  0.81393  1.0000
  S   S55       1.0  0.99941  0.56811  0.57299  1.0000
  C   C259      1.0  0.03436  0.35582  0.92737  1.0000
  H   H434      1.0  0.42764  0.35062  0.79241  1.0000
  C   C260      1.0  0.06236  0.62841  0.55575  1.0000
  H   H435      1.0  0.13459  0.53174  0.73451  1.0000
  H   H436      1.0  0.22842  0.47030  0.90926  1.0000
  H   H437      1.0  0.00507  0.62881  0.53222  1.0000
  C   C261      1.0  0.00903  0.49567  0.76566  1.0000
  S   S56       1.0  0.21769  0.33679  0.83308  1.0000
  H   H438      1.0  0.20425  0.53883  0.75162  1.0000
  H   H439      1.0  0.03959  0.61582  0.66030  1.0000
  H   H440      1.0  0.14839  0.49557  0.90995  1.0000
  H   H441      1.0  0.05730  0.61747  0.60837  1.0000
  H   H442      1.0  0.37747  0.32067  0.78133  1.0000
  H   H443      1.0  0.37213  0.33864  0.92519  1.0000
  H   H444      1.0  0.17082  0.52589  0.63992  1.0000
  H   H445      1.0  0.09949  0.40864  0.98039  1.0000
  H   H446      1.0  0.20152  0.50005  0.99327  1.0000
  H   H447      1.0  0.01626  0.49823  0.78778  1.0000
  H   H448      1.0  0.36089  0.35435  0.95540  1.0000
  H   H449      1.0  0.06869  0.58722  0.73240  1.0000
  C   C262      1.0  0.03250  0.49871  0.51222  1.0000
  H   H450      1.0  0.22518  0.53833  0.60898  1.0000
  H   H451      1.0  0.06316  0.64836  0.64066  1.0000
  H   H452      1.0  0.25262  0.45904  0.86242  1.0000
  H   H453      1.0  0.12518  0.56403  0.72715  1.0000
  H   H454      1.0  0.22115  0.51549  0.73574  1.0000
  H   H455      1.0  0.02491  0.45702  0.97018  1.0000
  H   H456      1.0  0.11812  0.50442  0.64027  1.0000
  N   N16       1.0  0.14498  0.46565  0.92839  1.0000
  C   C263      1.0  0.11205  0.45198  0.93919  1.0000
  H   H457      1.0  0.18522  0.51513  0.76444  1.0000
  C   C264      1.0  0.08948  0.42276  0.97002  1.0000
  H   H458      1.0  0.35354  0.35263  0.80182  1.0000
  C   C265      1.0  0.03386  0.64227  0.63328  1.0000
  H   H459      1.0  0.04746  0.37939  0.79401  1.0000
  H   H460      1.0  0.08312  0.49422  0.94209  1.0000
  H   H461      1.0  0.14162  0.42251  0.94350  1.0000
  H   H462      1.0  0.18774  0.55496  0.59389  1.0000
  H   H463      1.0  0.14000  0.64341  0.55957  1.0000
  H   H464      1.0  0.10144  0.56506  0.66376  1.0000
  H   H465      1.0  0.08126  0.48752  0.69534  1.0000
  H   H466      1.0  0.09403  0.44614  0.92093  1.0000
  H   H467      1.0  0.14741  0.57266  0.68004  1.0000
  H   H468      1.0  0.18073  0.57183  0.64085  1.0000
  C   C266      1.0  0.44730  0.33727  0.70674  1.0000
  H   H469      1.0  0.15296  0.44558  0.89269  1.0000
  H   H470      1.0  0.04141  0.38578  0.94515  1.0000
  H   H471      1.0  0.19009  0.54908  0.70208  1.0000
  H   H472      1.0  0.09039  0.46035  0.95246  1.0000
  H   H473      1.0  0.08159  0.35011  0.81582  1.0000
  H   H474      1.0  0.13613  0.49979  0.96787  1.0000
  H   H475      1.0  0.07890  0.55296  0.71409  1.0000
  C   C267      1.0  0.05122  0.37020  0.94975  1.0000
  H   H476      1.0  0.04410  0.34046  0.93298  1.0000
  C   C268      1.0  0.03585  0.36031  0.84638  1.0000
  N   N17       1.0  0.05424  0.64297  0.57974  1.0000
  C   C269      1.0  0.41378  0.34030  0.80799  1.0000
  C   C270      1.0  0.04828  0.35105  0.81725  1.0000
  H   H477      1.0  0.48458  0.33041  0.79072  1.0000
  Fe  Fe27      1.0  0.99840  0.54022  0.64585  1.0000
  H   H478      1.0  0.07977  0.36698  0.89775  1.0000
  H   H479      1.0  0.07360  0.50579  0.87910  1.0000
  H   H480      1.0  0.05740  0.59070  0.53018  1.0000
  H   H481      1.0  0.19299  0.48480  0.94375  1.0000
  C   C271      1.0  0.07374  0.50914  0.90226  1.0000
  H   H482      1.0  0.08388  0.61666  0.56303  1.0000
  C   C272      1.0  0.99553  0.48494  0.96107  1.0000
  H   H483      1.0  0.09140  0.47393  0.66295  1.0000
  H   H484      1.0  0.12366  0.47762  0.88809  1.0000
  N   N18       1.0  0.14030  0.54041  0.67510  1.0000
  C   C273      1.0  0.10618  0.52541  0.67525  1.0000
  C   C274      1.0  0.12336  0.56107  0.68082  1.0000
  C   C275      1.0  0.15790  0.54079  0.64543  1.0000
  C   C276      1.0  0.17316  0.53523  0.69607  1.0000
  C   C277      1.0  0.16026  0.52435  0.72388  1.0000
  C   C278      1.0  0.11638  0.50413  0.66387  1.0000
  C   C279      1.0  0.19223  0.55624  0.64015  1.0000
  C   C280      1.0  0.10249  0.56435  0.70986  1.0000
  C   C281      1.0  0.08223  0.58494  0.71106  1.0000
  C   C282      1.0  0.19498  0.52344  0.74514  1.0000
  C   C283      1.0  0.08381  0.48890  0.67185  1.0000
  C   C284      1.0  0.21097  0.55337  0.61074  1.0000
  H   H485      1.0  0.08080  0.53112  0.66223  1.0000
  H   H486      1.0  0.09308  0.52368  0.69677  1.0000
  H   H487      1.0  0.04346  0.35729  0.77208  1.0000
  H   H488      1.0  0.01495  0.63686  0.67681  1.0000
  H   H489      1.0  0.04008  0.36587  0.97115  1.0000
  H   H490      1.0  0.38303  0.36497  0.82892  1.0000
  C   C285      1.0  0.07777  0.33436  0.86935  1.0000
  C   C286      1.0  0.03764  0.60230  0.52050  1.0000
  S   S57       1.0  0.01184  0.57350  0.64140  1.0000
  H   H491      1.0  0.08464  0.36969  0.94985  1.0000
  H   H492      1.0  0.07754  0.63579  0.53758  1.0000
  H   H493      1.0  0.10903  0.64350  0.60478  1.0000
  C   C287      1.0  0.37551  0.35020  0.81928  1.0000
  H   H494      1.0  0.32402  0.33651  0.94310  1.0000
  H   H495      1.0  0.41789  0.33287  0.69734  1.0000
  H   H496      1.0  0.36135  0.34068  0.83594  1.0000
  H   H497      1.0  0.00099  0.35626  0.92895  1.0000
  H   H498      1.0  0.00713  0.32555  0.89703  1.0000
  H   H499      1.0  0.00066  0.36540  0.79265  1.0000
  C   C288      1.0  0.02504  0.61778  0.54282  1.0000
  H   H500      1.0  0.10363  0.34373  0.86212  1.0000
  H   H501      1.0  0.47595  0.34021  0.74721  1.0000
  Fe  Fe28      1.0  0.99994  0.44529  0.82786  1.0000
  S   S58       1.0  0.21421  0.64957  0.65101  1.0000
  H   H502      1.0  0.12285  0.47641  0.98516  1.0000
  C   C289      1.0  0.01822  0.62834  0.65664  1.0000
  H   H503      1.0  0.45354  0.35316  0.70092  1.0000
  H   H504      1.0  0.01053  0.59465  0.51185  1.0000
  H   H505      1.0  0.05388  0.60967  0.50269  1.0000
  C   C290      1.0  0.99740  0.47638  0.75681  1.0000
  H   H506      1.0  0.35680  0.32418  0.98635  1.0000
  H   H507      1.0  0.07299  0.32298  0.85243  1.0000
  S   S59       1.0  0.00492  0.53005  0.69297  1.0000
  H   H508      1.0  0.00732  0.60980  0.55919  1.0000
  H   H509      1.0  0.47141  0.32772  0.69756  1.0000
  C   C291      1.0  0.37419  0.32336  0.96630  1.0000
  H   H510      1.0  0.99469  0.42186  0.99049  1.0000
  H   H511      1.0  0.08743  0.68190  0.05389  1.0000
  S   S60       1.0  0.45663  0.94802  0.36293  1.0000
  C   C292      1.0  0.04496  0.66023  0.07107  1.0000
  C   C293      1.0  0.01379  0.77972  0.38401  1.0000
  C   C294      1.0  0.30321  0.65696  0.22051  1.0000
  S   S61       1.0  0.42157  0.88974  0.38488  1.0000
  H   H512      1.0  0.36183  0.82922  0.29214  1.0000
  S   S62       1.0  0.24799  0.69826  0.11691  1.0000
  Fe  Fe29      1.0  0.36525  0.69919  0.11961  1.0000
  S   S63       1.0  0.32710  0.72659  0.10954  1.0000
  H   H513      1.0  0.40927  0.96997  0.26335  1.0000
  Fe  Fe30      1.0  0.28760  0.71648  0.14573  1.0000
  S   S64       1.0  0.25521  0.73823  0.17553  1.0000
  Fe  Fe31      1.0  0.29065  0.70609  0.08151  1.0000
  S   S65       1.0  0.25785  0.71174  0.03942  1.0000
  S   S66       1.0  0.32691  0.69044  0.15747  1.0000
  S   S67       1.0  0.33029  0.67907  0.08930  1.0000
  Fe  Fe32      1.0  0.24309  0.80979  0.35361  1.0000
  S   S68       1.0  0.28140  0.78321  0.36407  1.0000
  S   S69       1.0  0.27591  0.83699  0.33401  1.0000
  Fe  Fe33      1.0  0.16392  0.78663  0.36876  1.0000
  S   S70       1.0  0.19949  0.75865  0.37951  1.0000
  S   S71       1.0  0.09676  0.78209  0.38053  1.0000
  Fe  Fe34      1.0  0.24197  0.77920  0.40241  1.0000
  S   S72       1.0  0.27035  0.77531  0.44627  1.0000
  Fe  Fe35      1.0  0.23548  0.76509  0.33995  1.0000
  S   S73       1.0  0.25875  0.74001  0.31106  1.0000
  S   S74       1.0  0.20578  0.80712  0.39359  1.0000
  S   S75       1.0  0.19793  0.79169  0.32756  1.0000
  C   C295      1.0  0.26940  0.72819  0.01084  1.0000
  H   H514      1.0  0.12336  0.73374  0.38110  1.0000
  C   C296      1.0  0.23853  0.73886  0.46400  1.0000
  C   C297      1.0  0.25731  0.75686  0.47174  1.0000
  H   H515      1.0  0.14339  0.69526  0.20089  1.0000
  C   C298      1.0  0.29925  0.74297  0.01281  1.0000
  H   H516      1.0  0.11887  0.69844  0.14989  1.0000
  H   H517      1.0  0.23190  0.73595  0.44186  1.0000
  H   H518      1.0  0.18534  0.81549  0.45745  1.0000
  H   H519      1.0  0.31674  0.74435  0.03212  1.0000
  C   C299      1.0  0.25786  0.73883  0.21315  1.0000
  C   C300      1.0  0.28529  0.72716  0.22847  1.0000
  C   C301      1.0  0.28548  0.72784  0.25845  1.0000
  C   C302      1.0  0.25869  0.74034  0.27337  1.0000
  C   C303      1.0  0.23154  0.75209  0.25800  1.0000
  C   C304      1.0  0.23119  0.75135  0.22808  1.0000
  H   H520      1.0  0.30609  0.71751  0.21724  1.0000
  H   H521      1.0  0.30643  0.71858  0.27017  1.0000
  H   H522      1.0  0.21023  0.76146  0.26922  1.0000
  H   H523      1.0  0.20981  0.76039  0.21641  1.0000
  C   C305      1.0  0.48268  0.69668  0.12546  1.0000
  C   C306      1.0  0.04669  0.78802  0.36910  1.0000
  C   C307      1.0  0.03869  0.80076  0.34610  1.0000
  H   H524      1.0  0.01935  0.76982  0.40179  1.0000
  H   H525      1.0  0.06345  0.80733  0.33441  1.0000
  C   C308      1.0  0.07374  0.76293  0.46147  1.0000
  H   H526      1.0  0.00042  0.77633  0.21500  1.0000
  H   H527      1.0  0.27539  0.67898  0.24734  1.0000
  H   H528      1.0  0.17445  0.78164  0.07818  1.0000
  H   H529      1.0  0.07544  0.78797  0.49233  1.0000
  C   C309      1.0  0.38112  0.87539  0.36992  1.0000
  C   C310      1.0  0.36173  0.86096  0.38708  1.0000
  C   C311      1.0  0.33002  0.84894  0.37639  1.0000
  C   C312      1.0  0.31675  0.85134  0.34836  1.0000
  C   C313      1.0  0.33620  0.86573  0.33112  1.0000
  C   C314      1.0  0.36829  0.87759  0.34173  1.0000
  H   H530      1.0  0.37123  0.85908  0.40892  1.0000
  H   H531      1.0  0.31543  0.83804  0.39001  1.0000
  H   H532      1.0  0.32612  0.86785  0.30948  1.0000
  H   H533      1.0  0.38273  0.88859  0.32821  1.0000
  C   C315      1.0  0.15761  0.70849  0.28500  1.0000
  H   H534      1.0  0.36264  0.96090  0.27823  1.0000
  C   C316      1.0  0.99851  0.80528  0.33845  1.0000
  C   C317      1.0  0.26550  0.66680  0.23268  1.0000
  H   H535      1.0  0.10341  0.67040  0.08661  1.0000
  H   H536      1.0  0.16101  0.74016  0.44089  1.0000
  C   C318      1.0  0.49137  0.82584  0.36943  1.0000
  H   H537      1.0  0.25249  0.69011  0.20202  1.0000
  C   C319      1.0  0.48925  0.67663  0.13317  1.0000
  H   H538      1.0  0.35934  0.70342  0.45871  1.0000
  H   H539      1.0  0.39101  0.82366  0.34682  1.0000
  C   C320      1.0  0.22901  0.72444  0.48489  1.0000
  H   H540      1.0  0.16800  0.70853  0.14141  1.0000
  C   C321      1.0  0.12970  0.74575  0.43855  1.0000
  H   H541      1.0  0.14913  0.68693  0.12251  1.0000
  H   H542      1.0  0.48814  0.81468  0.38697  1.0000
  C   C322      1.0  0.12313  0.72143  0.39707  1.0000
  C   C323      1.0  0.44867  0.83400  0.36280  1.0000
  C   C324      1.0  0.39347  0.96618  0.28348  1.0000
  H   H543      1.0  0.17392  0.76152  0.48156  1.0000
  H   H544      1.0  0.19815  0.67520  0.15679  1.0000
  H   H545      1.0  0.20702  0.80351  0.07608  1.0000
  H   H546      1.0  0.34978  0.74552  0.43237  1.0000
  H   H547      1.0  0.01280  0.76891  0.25101  1.0000
  H   H548      1.0  0.06464  0.68949  0.08699  1.0000
  H   H549      1.0  0.07356  0.73417  0.41945  1.0000
  H   H550      1.0  0.17582  0.65589  0.24687  1.0000
  H   H551      1.0  0.02531  0.66466  0.11464  1.0000
  H   H552      1.0  0.12558  0.79393  0.44918  1.0000
  C   C325      1.0  0.15004  0.69450  0.14355  1.0000
  H   H553      1.0  0.24015  0.66595  0.19004  1.0000
  C   C326      1.0  0.20903  0.78393  0.03886  1.0000
  H   H554      1.0  0.15441  0.71618  0.40073  1.0000
  H   H555      1.0  0.08228  0.72837  0.48492  1.0000
  H   H556      1.0  0.09600  0.80324  0.00520  1.0000
  H   H557      1.0  0.31077  0.72689  0.43737  1.0000
  H   H558      1.0  0.16807  0.69692  0.30030  1.0000
  C   C327      1.0  0.01538  0.78469  0.47688  1.0000
  C   C328      1.0  0.07702  0.67651  0.07501  1.0000
  C   C329      1.0  0.11184  0.73614  0.48710  1.0000
  N   N19       1.0  0.19505  0.67931  0.21760  1.0000
  H   H559      1.0  0.22799  0.77895  0.08241  1.0000
  H   H560      1.0  0.21004  0.68423  0.26197  1.0000
  H   H561      1.0  0.17905  0.72132  0.28525  1.0000
  H   H562      1.0  0.39675  0.80701  0.25007  1.0000
  C   C330      1.0  0.16902  0.68041  0.16542  1.0000
  H   H563      1.0  0.44947  0.84598  0.34643  1.0000
  H   H564      1.0  0.07446  0.77267  0.44218  1.0000
  N   N20       1.0  0.11456  0.75372  0.46666  1.0000
  H   H565      1.0  0.31118  0.69795  0.49654  1.0000
  H   H566      1.0  0.14836  0.66738  0.16757  1.0000
  H   H567      1.0  0.39990  0.72086  0.45236  1.0000
  H   H568      1.0  0.43364  0.81069  0.33197  1.0000
  H   H569      1.0  0.43450  0.83176  0.27940  1.0000
  H   H570      1.0  0.21436  0.70597  0.24034  1.0000
  H   H571      1.0  0.41212  0.85584  0.28667  1.0000
  H   H572      1.0  0.32246  0.66836  0.20999  1.0000
  H   H573      1.0  0.13488  0.72456  0.48171  1.0000
  H   H574      1.0  0.21449  0.71054  0.47871  1.0000
  H   H575      1.0  0.24923  0.65541  0.24550  1.0000
  N   N21       1.0  0.33235  0.80195  0.25014  1.0000
  C   C331      1.0  0.29554  0.81379  0.25858  1.0000
  C   C332      1.0  0.36843  0.81587  0.24854  1.0000
  C   C333      1.0  0.32482  0.79307  0.22094  1.0000
  C   C334      1.0  0.33979  0.78463  0.27018  1.0000
  C   C335      1.0  0.35242  0.79012  0.30080  1.0000
  C   C336      1.0  0.25502  0.80227  0.25885  1.0000
  C   C337      1.0  0.36246  0.78536  0.20454  1.0000
  C   C338      1.0  0.17436  0.69110  0.19441  1.0000
  C   C339      1.0  0.35975  0.77125  0.31856  1.0000
  C   C340      1.0  0.21988  0.81663  0.26378  1.0000
  C   C341      1.0  0.35035  0.77234  0.17911  1.0000
  H   H576      1.0  0.29212  0.82693  0.24407  1.0000
  H   H577      1.0  0.29880  0.82016  0.28024  1.0000
  C   C342      1.0  0.19561  0.69234  0.24399  1.0000
  H   H578      1.0  0.36944  0.82347  0.22744  1.0000
  H   H579      1.0  0.30985  0.80426  0.20684  1.0000
  H   H580      1.0  0.30360  0.78010  0.22246  1.0000
  H   H581      1.0  0.31294  0.77466  0.27140  1.0000
  H   H582      1.0  0.36393  0.77477  0.26187  1.0000
  H   H583      1.0  0.32897  0.79928  0.31144  1.0000
  H   H584      1.0  0.38132  0.79840  0.30052  1.0000
  H   H585      1.0  0.24908  0.79452  0.23844  1.0000
  H   H586      1.0  0.25496  0.79111  0.27634  1.0000
  H   H587      1.0  0.38258  0.77628  0.21816  1.0000
  H   H588      1.0  0.38022  0.79822  0.19619  1.0000
  H   H589      1.0  0.34898  0.84559  0.26366  1.0000
  H   H590      1.0  0.38438  0.76211  0.30929  1.0000
  H   H591      1.0  0.36836  0.77561  0.34054  1.0000
  H   H592      1.0  0.33212  0.76193  0.31965  1.0000
  H   H593      1.0  0.22361  0.82483  0.28421  1.0000
  H   H594      1.0  0.21773  0.82770  0.24618  1.0000
  H   H595      1.0  0.19131  0.80797  0.26466  1.0000
  H   H596      1.0  0.37749  0.76806  0.16676  1.0000
  H   H597      1.0  0.33541  0.75833  0.18647  1.0000
  H   H598      1.0  0.32953  0.78059  0.16481  1.0000
  H   H599      1.0  0.41733  0.80539  0.36800  1.0000
  C   C343      1.0  0.41231  0.84293  0.27164  1.0000
  H   H600      1.0  0.45120  0.67837  0.04650  1.0000
  C   C344      1.0  0.23822  0.67575  0.20903  1.0000
  H   H601      1.0  0.46377  0.66669  0.13608  1.0000
  C   C345      1.0  0.15416  0.69969  0.25504  1.0000
  H   H602      1.0  0.16024  0.80971  0.49040  1.0000
  C   C346      1.0  0.17615  0.79535  0.02179  1.0000
  C   C347      1.0  0.42112  0.81733  0.35172  1.0000
  S   S76       1.0  0.49092  0.98306  0.42559  1.0000
  H   H603      1.0  0.20741  0.76749  0.03505  1.0000
  H   H604      1.0  0.13964  0.66236  0.22096  1.0000
  H   H605      1.0  0.17176  0.78179  0.43891  1.0000
  Fe  Fe36      1.0  0.46586  0.91516  0.37302  1.0000
  H   H606      1.0  0.13127  0.75792  0.42249  1.0000
  C   C348      1.0  0.17252  0.66004  0.22404  1.0000
  H   H607      1.0  0.46835  0.70109  0.06338  1.0000
  C   C349      1.0  0.34347  0.72913  0.43386  1.0000
  H   H608      1.0  0.14665  0.79036  0.03048  1.0000
  H   H609      1.0  0.12779  0.71405  0.29211  1.0000
  H   H610      1.0  0.46164  0.70033  0.02527  1.0000
  H   H611      1.0  0.36715  0.74623  0.48368  1.0000
  H   H612      1.0  0.10137  0.71558  0.43917  1.0000
  H   H613      1.0  0.19075  0.70554  0.19067  1.0000
  H   H614      1.0  0.23965  0.78916  0.03303  1.0000
  C   C350      1.0  0.10416  0.72872  0.42479  1.0000
  H   H615      1.0  0.47748  0.96222  0.22744  1.0000
  H   H616      1.0  0.14244  0.71184  0.24115  1.0000
  H   H617      1.0  0.17831  0.81157  0.02741  1.0000
  C   C351      1.0  0.15356  0.78695  0.45727  1.0000
  S   S77       1.0  0.43341  0.70698  0.12015  1.0000
  H   H618      1.0  0.42162  0.84850  0.25036  1.0000
  C   C352      1.0  0.36760  0.71957  0.45798  1.0000
  H   H619      1.0  0.10523  0.70876  0.38827  1.0000
  H   H620      1.0  0.37491  0.97995  0.32246  1.0000
  C   C353      1.0  0.47145  0.69157  0.04412  1.0000
  H   H621      1.0  0.43449  0.84004  0.38233  1.0000
  H   H622      1.0  0.00254  0.79351  0.49474  1.0000
  H   H623      1.0  0.13191  0.68725  0.25567  1.0000
  Fe  Fe37      1.0  0.28870  0.67251  0.12637  1.0000
  C   C354      1.0  0.00026  0.76366  0.23038  1.0000
  C   C355      1.0  0.20414  0.78729  0.07081  1.0000
  H   H624      1.0  0.40977  0.95372  0.29417  1.0000
  C   C356      1.0  0.37030  0.83361  0.27027  1.0000
  H   H625      1.0  0.35161  0.72201  0.41330  1.0000
  C   C357      1.0  0.17786  0.80323  0.47257  1.0000
  C   C358      1.0  0.49404  0.97550  0.23380  1.0000
  C   C359      1.0  0.35891  0.73016  0.48672  1.0000
  H   H626      1.0  0.01997  0.75157  0.22202  1.0000
  C   C360      1.0  0.14466  0.76899  0.47730  1.0000
  H   H627      1.0  0.47995  0.85987  0.40013  1.0000
  H   H628      1.0  0.02372  0.70827  0.00697  1.0000
  H   H629      1.0  0.37923  0.97373  0.48567  1.0000
  H   H630      1.0  0.49171  0.88138  0.44376  1.0000
  H   H631      1.0  0.32582  0.73025  0.49005  1.0000
  H   H632      1.0  0.20644  0.79695  0.48095  1.0000
  H   H633      1.0  0.01989  0.66676  0.05872  1.0000
  H   H634      1.0  0.05125  0.75106  0.45642  1.0000
  H   H635      1.0  0.23752  0.82062  0.00786  1.0000
  H   H636      1.0  0.44946  0.97963  0.32116  1.0000
  H   H637      1.0  0.01984  0.79496  0.45848  1.0000
  C   C361      1.0  0.39127  0.98455  0.30295  1.0000
  C   C362      1.0  0.05542  0.77540  0.48597  1.0000
  H   H638      1.0  0.43646  0.71570  0.49106  1.0000
  H   H639      1.0  0.33660  0.66301  0.49763  1.0000
  H   H640      1.0  0.38814  0.69083  0.49837  1.0000
  H   H641      1.0  0.13540  0.77530  0.49812  1.0000
  H   H642      1.0  0.38216  0.75812  0.70584  1.0000
  S   S78       1.0  0.46509  0.95402  0.87919  1.0000
  C   C363      1.0  0.21838  0.79659  0.97819  1.0000
  H   H643      1.0  0.05690  0.68226  0.55111  1.0000
  Fe  Fe38      1.0  0.46567  0.92020  0.87568  1.0000
  S   S79       1.0  0.41342  0.89992  0.89022  1.0000
  C   C364      1.0  0.48534  0.98243  0.97871  1.0000
  S   S80       1.0  0.22089  0.70329  0.62246  1.0000
  Fe  Fe39      1.0  0.33561  0.69215  0.61173  1.0000
  S   S81       1.0  0.30718  0.72207  0.60210  1.0000
  H   H644      1.0  0.46608  0.80896  0.91778  1.0000
  Fe  Fe40      1.0  0.27394  0.71798  0.64356  1.0000
  S   S82       1.0  0.26820  0.74525  0.67269  1.0000
  Fe  Fe41      1.0  0.25674  0.70473  0.58195  1.0000
  S   S83       1.0  0.22559  0.70932  0.53910  1.0000
  S   S84       1.0  0.30498  0.68900  0.65443  1.0000
  C   C365      1.0  0.38286  0.74431  0.65289  1.0000
  Fe  Fe42      1.0  0.25330  0.81177  0.85213  1.0000
  S   S85       1.0  0.28500  0.78208  0.85543  1.0000
  S   S86       1.0  0.29011  0.83762  0.83276  1.0000
  Fe  Fe43      1.0  0.17236  0.79365  0.87364  1.0000
  S   S87       1.0  0.20056  0.76310  0.87882  1.0000
  S   S88       1.0  0.10772  0.79578  0.89142  1.0000
  Fe  Fe44      1.0  0.25386  0.77899  0.89771  1.0000
  S   S89       1.0  0.29231  0.77214  0.93682  1.0000
  Fe  Fe45      1.0  0.22904  0.76890  0.83610  1.0000
  S   S90       1.0  0.22739  0.74264  0.80498  1.0000
  S   S91       1.0  0.22454  0.80946  0.89538  1.0000
  S   S92       1.0  0.19837  0.79864  0.82980  1.0000
  C   C366      1.0  0.23880  0.72774  0.51360  1.0000
  H   H645      1.0  0.28150  0.77410  0.50665  1.0000
  C   C367      1.0  0.25414  0.73963  0.96248  1.0000
  C   C368      1.0  0.28366  0.75454  0.96454  1.0000
  H   H646      1.0  0.01225  0.65485  0.63142  1.0000
  C   C369      1.0  0.25762  0.74573  0.52134  1.0000
  N   N22       1.0  0.38846  0.73289  0.73448  1.0000
  H   H647      1.0  0.23717  0.73800  0.94300  1.0000
  H   H648      1.0  0.35917  0.76332  0.52345  1.0000
  H   H649      1.0  0.26452  0.74860  0.54345  1.0000
  C   C370      1.0  0.25729  0.74421  0.70952  1.0000
  C   C371      1.0  0.25627  0.76216  0.72531  1.0000
  C   C372      1.0  0.24780  0.76195  0.75466  1.0000
  C   C373      1.0  0.24028  0.74373  0.76849  1.0000
  C   C374      1.0  0.24170  0.72577  0.75276  1.0000
  C   C375      1.0  0.25019  0.72599  0.72343  1.0000
  H   H650      1.0  0.26192  0.77633  0.71474  1.0000
  H   H651      1.0  0.24692  0.77586  0.76656  1.0000
  H   H652      1.0  0.23578  0.71160  0.76327  1.0000
  H   H653      1.0  0.25076  0.71207  0.71151  1.0000
  C   C376      1.0  0.02482  0.79561  0.89510  1.0000
  C   C377      1.0  0.05816  0.79771  0.87683  1.0000
  C   C378      1.0  0.05100  0.80141  0.84799  1.0000
  H   H654      1.0  0.46011  0.82950  0.94224  1.0000
  H   H655      1.0  0.07618  0.80364  0.83378  1.0000
  C   C379      1.0  0.42451  0.92839  0.76621  1.0000
  H   H656      1.0  0.44551  0.71857  0.77544  1.0000
  C   C380      1.0  0.04268  0.71154  0.98806  1.0000
  C   C381      1.0  0.37389  0.75489  0.54092  1.0000
  H   H657      1.0  0.42914  0.69596  0.65574  1.0000
  C   C382      1.0  0.38126  0.88190  0.87352  1.0000
  C   C383      1.0  0.35784  0.86910  0.89075  1.0000
  C   C384      1.0  0.33080  0.85505  0.87870  1.0000
  C   C385      1.0  0.32620  0.85387  0.84916  1.0000
  C   C386      1.0  0.35005  0.86648  0.83192  1.0000
  C   C387      1.0  0.37762  0.88030  0.84396  1.0000
  H   H658      1.0  0.36022  0.87024  0.91363  1.0000
  H   H659      1.0  0.31268  0.84555  0.89229  1.0000
  H   H660      1.0  0.34663  0.86580  0.80906  1.0000
  H   H661      1.0  0.39495  0.89016  0.83040  1.0000
  C   C388      1.0  0.01111  0.80261  0.83759  1.0000
  C   C389      1.0  0.37464  0.74182  0.70666  1.0000
  H   H662      1.0  0.38540  0.69372  0.53561  1.0000
  H   H663      1.0  0.43516  0.74428  0.78470  1.0000
  C   C390      1.0  0.34157  0.70191  0.72904  1.0000
  H   H664      1.0  0.22407  0.71509  0.98378  1.0000
  H   H665      1.0  0.11224  0.66453  0.54666  1.0000
  C   C391      1.0  0.39621  0.98401  0.92288  1.0000
  C   C392      1.0  0.16083  0.76568  0.95155  1.0000
  C   C393      1.0  0.44992  0.82328  0.92160  1.0000
  C   C394      1.0  0.14398  0.74445  0.94773  1.0000
  H   H666      1.0  0.45605  0.91381  0.73227  1.0000
  H   H667      1.0  0.39436  0.92468  0.75747  1.0000
  H   H668      1.0  0.04407  0.81529  0.97156  1.0000
  C   C395      1.0  0.45010  0.69083  0.61323  1.0000
  C   C396      1.0  0.01650  0.71419  0.96160  1.0000
  H   H669      1.0  0.19036  0.76641  0.94068  1.0000
  H   H670      1.0  0.14010  0.77604  0.94057  1.0000
  C   C397      1.0  0.44978  0.73440  0.76875  1.0000
  H   H671      1.0  0.40668  0.75786  0.54012  1.0000
  H   H672      1.0  0.18207  0.67322  0.56122  1.0000
  H   H673      1.0  0.47824  0.88362  0.91895  1.0000
  H   H674      1.0  0.06362  0.69874  0.98486  1.0000
  C   C398      1.0  0.34544  0.77071  0.79025  1.0000
  H   H675      1.0  0.33048  0.73786  0.75418  1.0000
  H   H676      1.0  0.34816  0.77194  0.74461  1.0000
  H   H677      1.0  0.21820  0.82958  0.97439  1.0000
  H   H678      1.0  0.31423  0.76487  0.79188  1.0000
  H   H679      1.0  0.43257  0.91678  0.78218  1.0000
  N   N23       1.0  0.09803  0.75853  0.77567  1.0000
  C   C399      1.0  0.10682  0.74479  0.80040  1.0000
  C   C400      1.0  0.10038  0.74651  0.74849  1.0000
  C   C401      1.0  0.12841  0.77541  0.77594  1.0000
  C   C402      1.0  0.05637  0.76739  0.77784  1.0000
  C   C403      1.0  0.42478  0.72495  0.50894  1.0000
  C   C404      1.0  0.10149  0.75416  0.83044  1.0000
  C   C405      1.0  0.12748  0.78978  0.74997  1.0000
  C   C406      1.0  0.14251  0.73847  0.74022  1.0000
  C   C407      1.0  0.14070  0.72717  0.71190  1.0000
  C   C408      1.0  0.11039  0.72186  0.53726  1.0000
  C   C409      1.0  0.10831  0.73852  0.85370  1.0000
  C   C410      1.0  0.16011  0.80590  0.75249  1.0000
  H   H680      1.0  0.13850  0.73945  0.79942  1.0000
  H   H681      1.0  0.08821  0.73089  0.79912  1.0000
  H   H682      1.0  0.08060  0.73306  0.74982  1.0000
  H   H683      1.0  0.08858  0.75538  0.73024  1.0000
  H   H684      1.0  0.15952  0.76940  0.77820  1.0000
  H   H685      1.0  0.12388  0.78507  0.79499  1.0000
  H   H686      1.0  0.05494  0.77874  0.79516  1.0000
  H   H687      1.0  0.04904  0.77593  0.75818  1.0000
  H   H688      1.0  0.37266  0.75590  0.58728  1.0000
  H   H689      1.0  0.04114  0.66253  0.52701  1.0000
  H   H690      1.0  0.12355  0.76646  0.83394  1.0000
  H   H691      1.0  0.07087  0.76029  0.83352  1.0000
  H   H692      1.0  0.09811  0.79759  0.74856  1.0000
  H   H693      1.0  0.13271  0.78160  0.72977  1.0000
  H   H694      1.0  0.16460  0.75084  0.73773  1.0000
  H   H695      1.0  0.15388  0.72789  0.75655  1.0000
  H   H696      1.0  0.11954  0.71426  0.71324  1.0000
  H   H697      1.0  0.13115  0.73740  0.69451  1.0000
  H   H698      1.0  0.17089  0.72124  0.70646  1.0000
  C   C411      1.0  0.14789  0.80703  0.97647  1.0000
  H   H699      1.0  0.44466  0.94003  0.72632  1.0000
  H   H700      1.0  0.31107  0.67353  0.72168  1.0000
  H   H701      1.0  0.08568  0.72627  0.85213  1.0000
  H   H702      1.0  0.13902  0.73206  0.85197  1.0000
  H   H703      1.0  0.10537  0.74582  0.87486  1.0000
  H   H704      1.0  0.15887  0.81603  0.73375  1.0000
  H   H705      1.0  0.15561  0.81509  0.77197  1.0000
  H   H706      1.0  0.19040  0.79892  0.75323  1.0000
  H   H707      1.0  0.39334  0.81167  0.90431  1.0000
  H   H708      1.0  0.17091  0.66600  0.59719  1.0000
  H   H709      1.0  0.02995  0.79324  0.91753  1.0000
  H   H710      1.0  0.00367  0.75725  0.86457  1.0000
  H   H711      1.0  0.39403  0.70397  0.75518  1.0000
  C   C412      1.0  0.45523  0.69491  0.64221  1.0000
  H   H712      1.0  0.13783  0.76664  0.99489  1.0000
  H   H713      1.0  0.35436  0.67170  0.74464  1.0000
  H   H714      1.0  0.46516  0.97286  0.96682  1.0000
  C   C413      1.0  0.37238  0.69939  0.51536  1.0000
  C   C414      1.0  0.02153  0.75211  0.78234  1.0000
  H   H715      1.0  0.29140  0.66577  0.51848  1.0000
  H   H716      1.0  0.43560  0.85077  0.89853  1.0000
  H   H717      1.0  0.45590  0.86448  0.94056  1.0000
  H   H718      1.0  0.36976  0.73372  0.77863  1.0000
  S   S93       1.0  0.40146  0.68818  0.59709  1.0000
  H   H719      1.0  0.39603  0.77017  0.76215  1.0000
  H   H720      1.0  0.02078  0.74075  0.76513  1.0000
  H   H721      1.0  0.48763  0.86308  0.79586  1.0000
  Fe  Fe46      1.0  0.25318  0.67421  0.63073  1.0000
  H   H722      1.0  0.44797  0.82993  0.87719  1.0000
  H   H723      1.0  0.04925  0.76566  0.50455  1.0000
  C   C415      1.0  0.45733  0.83812  0.89670  1.0000
  H   H724      1.0  0.32930  0.76753  0.99153  1.0000
  H   H725      1.0  0.48163  0.68474  0.57409  1.0000
  C   C416      1.0  0.48479  0.68860  0.59627  1.0000
  H   H726      1.0  0.15390  0.82258  0.98413  1.0000
  H   H727      1.0  0.08618  0.66735  0.60065  1.0000
  H   H728      1.0  0.34437  0.78737  0.79170  1.0000
  H   H729      1.0  0.42274  0.94327  0.77693  1.0000
  H   H730      1.0  0.31228  0.69903  0.53477  1.0000
  H   H731      1.0  0.34994  0.74635  0.65039  1.0000
  C   C417      1.0  0.23633  0.81765  0.98469  1.0000
  H   H732      1.0  0.43831  0.75409  0.73296  1.0000
  C   C418      1.0  0.32756  0.69285  0.51574  1.0000
  C   C419      1.0  0.34220  0.67910  0.72530  1.0000
  H   H733      1.0  0.32518  0.76188  0.57038  1.0000
  H   H734      1.0  0.09330  0.78805  0.97356  1.0000
  H   H735      1.0  0.47669  0.87299  0.87374  1.0000
  N   N24       1.0  0.38013  0.72165  0.51238  1.0000
  C   C420      1.0  0.40511  0.81832  0.92436  1.0000
  H   H736      1.0  0.01779  0.66890  0.58975  1.0000
  C   C421      1.0  0.45548  0.92894  0.74216  1.0000
  C   C422      1.0  0.02285  0.65830  0.57186  1.0000
  C   C423      1.0  0.39211  0.73195  0.67944  1.0000
  C   C424      1.0  0.10262  0.80289  0.98209  1.0000
  H   H737      1.0  0.00762  0.74582  0.96658  1.0000
  C   C425      1.0  0.36476  0.76441  0.76213  1.0000
  C   C426      1.0  0.15763  0.67184  0.57719  1.0000
  H   H738      1.0  0.39441  0.73631  0.63382  1.0000
  H   H739      1.0  0.27962  0.81746  0.94979  1.0000
  H   H740      1.0  0.36313  0.76493  0.80852  1.0000
  C   C427      1.0  0.43235  0.73811  0.73858  1.0000
  C   C428      1.0  0.36279  0.74128  0.75810  1.0000
  H   H741      1.0  0.34135  0.74133  0.70495  1.0000
  H   H742      1.0  0.14274  0.74074  0.92472  1.0000
  H   H743      1.0  0.32790  0.70848  0.70972  1.0000
  H   H744      1.0  0.02462  0.74418  0.80295  1.0000
  C   C429      1.0  0.45102  0.71957  0.53514  1.0000
  H   H745      1.0  0.23995  0.78506  0.98572  1.0000
  H   H746      1.0  0.11307  0.74346  0.95656  1.0000
  H   H747      1.0  0.36081  0.67486  0.70662  1.0000
  S   S94       1.0  0.47821  0.97796  0.80460  1.0000
  H   H748      1.0  0.39758  0.75928  0.65412  1.0000
  C   C430      1.0  0.35836  0.76358  0.56892  1.0000
  H   H749      1.0  0.21832  0.79507  0.95467  1.0000
  S   S95       1.0  0.28632  0.67474  0.58905  1.0000
  C   C431      1.0  0.26696  0.76019  0.50048  1.0000
  H   H750      1.0  0.43131  0.74078  0.50278  1.0000
  H   H751      1.0  0.12959  0.70908  0.53043  1.0000
  H   H752      1.0  0.15119  0.74454  0.52280  1.0000
  C   C432      1.0  0.38447  0.71028  0.73439  1.0000
  H   H753      1.0  0.16346  0.73325  0.95848  1.0000
  C   C433      1.0  0.03234  0.67160  0.54576  1.0000
  H   H754      1.0  0.40524  0.70349  0.71848  1.0000
  H   H755      1.0  0.41731  0.97180  0.92879  1.0000
  H   H756      1.0  0.48189  0.89238  0.96953  1.0000
  H   H757      1.0  0.14504  0.68702  0.58122  1.0000
  H   H758      1.0  0.33122  0.73065  0.53973  1.0000
  C   C434      1.0  0.11913  0.74046  0.51917  1.0000
  C   C435      1.0  0.32370  0.66999  0.51704  1.0000
  H   H759      1.0  0.42522  0.73036  0.68072  1.0000
  H   H760      1.0  0.11731  0.72517  0.55990  1.0000
  C   C436      1.0  0.36446  0.73208  0.53861  1.0000
  H   H761      1.0  0.32176  0.70521  0.74744  1.0000
  H   H762      1.0  0.37554  0.72449  0.55821  1.0000
  H   H763      1.0  0.36574  0.77984  0.57010  1.0000
  H   H764      1.0  0.37869  0.71682  0.67630  1.0000
  H   H765      1.0  0.07821  0.71753  0.53552  1.0000
  H   H766      1.0  0.45131  0.72931  0.72356  1.0000
  H   H767      1.0  0.40042  0.80729  0.94177  1.0000
  H   H768      1.0  0.10024  0.75290  0.52712  1.0000
  H   H769      1.0  0.38763  0.83209  0.92940  1.0000
  N   N25       1.0  0.17702  0.79250  0.98995  1.0000
  H   H770      1.0  0.08152  0.81879  0.94436  1.0000
  H   H771      1.0  0.99646  0.72541  0.90799  1.0000
  C   C437      1.0  0.24694  0.72661  0.98557  1.0000
  H   H772      1.0  0.47249  0.97399  0.61168  1.0000
  H   H773      1.0  0.15256  0.80779  0.95300  1.0000
  C   C438      1.0  0.44251  0.98132  0.61163  1.0000
  C   C439      1.0  0.07632  0.81873  0.96771  1.0000
  H   H774      1.0  0.44824  0.70336  0.54005  1.0000
  H   H775      1.0  0.08298  0.83392  0.97633  1.0000
  H   H776      1.0  0.00604  0.80580  0.81533  1.0000
  H   H777      1.0  0.33942  0.66400  0.53609  1.0000
  H   H778      1.0  0.46707  0.88017  0.82164  1.0000
  H   H779      1.0  0.18929  0.76059  0.99164  1.0000
  C   C440      1.0  0.48480  0.87149  0.93418  1.0000
  C   C441      1.0  0.30632  0.75606  0.98974  1.0000
  H   H780      1.0  0.44220  0.72824  0.55429  1.0000
  H   H781      1.0  0.46304  0.84521  0.83815  1.0000
  H   H782      1.0  0.29898  0.80793  0.98308  1.0000
  H   H783      1.0  0.41907  0.96957  0.61440  1.0000
  H   H784      1.0  0.03708  0.71658  0.94331  1.0000
  H   H785      1.0  0.29158  0.83457  0.97827  1.0000
  C   C442      1.0  0.16584  0.77098  0.98346  1.0000
  C   C443      1.0  0.27923  0.81945  0.97325  1.0000
  H   H786      1.0  0.00193  0.75104  0.91696  1.0000
  H   H787      1.0  0.06082  0.72529  0.99214  1.0000
  H   H788      1.0  0.99985  0.69994  0.95811  1.0000
  H   H789      1.0  0.37199  0.98458  0.93913  1.0000
  H   H790      1.0  0.38242  0.98041  0.90196  1.0000
  C   C444      1.0  0.12508  0.65765  0.56600  1.0000
  H   H791      1.0  0.43949  0.98113  0.56620  1.0000
  C   C445      1.0  0.49217  0.86963  0.81733  1.0000
  H   H792      1.0  0.38428  0.98436  0.53769  1.0000
  H   H793      1.0  0.00367  0.69391  0.51892  1.0000
  C   C446      1.0  0.99581  0.68415  0.53726  1.0000
  C   C447      1.0  0.49254  0.85293  0.83954  1.0000
  C   C448      1.0  0.49429  0.69707  0.65384  1.0000
  Fe  Fe47      1.0  0.85941  0.18961  0.13358  1.0000
  S   S96       1.0  0.84695  0.22120  0.11955  1.0000
  S   S97       1.0  0.92280  0.17607  0.13727  1.0000
  Fe  Fe48      1.0  0.76794  0.17870  0.13575  1.0000
  S   S98       1.0  0.75077  0.20985  0.12136  1.0000
  S   S99       1.0  0.71396  0.15882  0.14790  1.0000
  Fe  Fe49      1.0  0.80129  0.20750  0.08973  1.0000
  S   S100      1.0  0.80098  0.21049  0.04116  1.0000
  Fe  Fe50      1.0  0.79742  0.22058  0.15271  1.0000
  S   S101      1.0  0.78401  0.24723  0.18198  1.0000
  S   S102      1.0  0.81583  0.17565  0.10244  1.0000
  S   S103      1.0  0.81261  0.18973  0.16860  1.0000
  Fe  Fe51      1.0  0.72765  0.26506  0.34390  1.0000
  S   S104      1.0  0.72226  0.29709  0.33002  1.0000
  S   S105      1.0  0.73635  0.23898  0.31302  1.0000
  Fe  Fe52      1.0  0.71496  0.27586  0.40728  1.0000
  C   C449      1.0  0.89585  0.25639  0.22216  1.0000
  S   S106      1.0  0.70061  0.26691  0.45328  1.0000
  Fe  Fe53      1.0  0.66982  0.29841  0.36047  1.0000
  H   H794      1.0  0.74326  0.17811  0.43361  1.0000
  C   C450      1.0  0.89938  0.17337  0.04797  1.0000
  S   S107      1.0  0.67303  0.26594  0.37219  1.0000
  S   S108      1.0  0.77009  0.27183  0.38012  1.0000
  H   H795      1.0  0.57090  0.23529  0.43325  1.0000
  S   S109      1.0  0.55338  0.03446  0.11495  1.0000
  H   H796      1.0  0.78859  0.13357  0.05737  1.0000
  H   H797      1.0  0.62101  0.23642  0.41860  1.0000
  Fe  Fe54      1.0  0.56238  0.06801  0.10999  1.0000
  S   S110      1.0  0.62464  0.08073  0.09884  1.0000
  C   C451      1.0  0.60168  0.16467  0.04050  1.0000
  H   H798      1.0  0.73916  0.15584  0.07852  1.0000
  H   H799      1.0  0.61195  0.26220  0.45545  1.0000
  N   N26       1.0  0.94541  0.20468  0.04095  1.0000
  H   H800      1.0  0.81176  0.22162  0.48087  1.0000
  H   H801      1.0  0.62442  0.17632  0.12759  1.0000
  H   H802      1.0  0.90328  0.15308  0.08431  1.0000
  C   C452      1.0  0.58594  0.29816  0.47580  1.0000
  C   C453      1.0  0.55502  0.28211  0.35634  1.0000
  C   C454      1.0  0.94023  0.18399  0.05370  1.0000
  H   H803      1.0  0.58065  0.27258  0.36027  1.0000
  C   C455      1.0  0.59188  0.24449  0.42026  1.0000
  C   C456      1.0  0.68999  0.13696  0.13388  1.0000
  C   C457      1.0  0.70903  0.12397  0.11476  1.0000
  C   C458      1.0  0.68852  0.10692  0.10419  1.0000
  C   C459      1.0  0.64890  0.10250  0.11277  1.0000
  C   C460      1.0  0.63000  0.11536  0.13211  1.0000
  C   C461      1.0  0.65050  0.13242  0.14264  1.0000
  H   H804      1.0  0.73981  0.12682  0.10854  1.0000
  H   H805      1.0  0.70358  0.09698  0.08944  1.0000
  H   H806      1.0  0.59958  0.11216  0.13896  1.0000
  H   H807      1.0  0.63558  0.14220  0.15767  1.0000
  C   C462      1.0  0.97179  0.18682  0.13354  1.0000
  H   H808      1.0  0.54637  0.27756  0.41452  1.0000
  S   S111      1.0  0.52450  0.03049  0.19896  1.0000
  N   N27       1.0  0.60515  0.25271  0.27395  1.0000
  H   H809      1.0  0.95232  0.21742  0.12879  1.0000
  C   C463      1.0  0.73033  0.25258  0.47732  1.0000
  H   H810      1.0  0.61818  0.29445  0.47183  1.0000
  H   H811      1.0  0.62128  0.27316  0.42120  1.0000
  C   C464      1.0  0.77948  0.22877  0.01817  1.0000
  H   H812      1.0  0.73848  0.00190  0.24341  1.0000
  C   C465      1.0  0.76401  0.24172  0.46839  1.0000
  H   H813      1.0  0.59598  0.09796  0.19388  1.0000
  H   H814      1.0  0.67168  0.31594  0.27020  1.0000
  H   H815      1.0  0.55767  0.01606  0.02326  1.0000
  H   H816      1.0  0.77301  0.24218  0.44630  1.0000
  C   C466      1.0  0.74831  0.24146  0.27640  1.0000
  C   C467      1.0  0.74570  0.25991  0.26233  1.0000
  C   C468      1.0  0.75642  0.26142  0.23340  1.0000
  C   C469      1.0  0.76952  0.24446  0.21813  1.0000
  C   C470      1.0  0.77111  0.22591  0.23204  1.0000
  C   C471      1.0  0.76056  0.22444  0.26101  1.0000
  H   H817      1.0  0.73525  0.27296  0.27377  1.0000
  H   H818      1.0  0.75460  0.27579  0.22274  1.0000
  H   H819      1.0  0.78087  0.21269  0.22059  1.0000
  H   H820      1.0  0.76237  0.21003  0.27160  1.0000
  H   H821      1.0  0.67576  0.18366  0.49596  1.0000
  H   H822      1.0  0.79365  0.29132  0.28010  1.0000
  C   C472      1.0  0.78594  0.23007  0.48807  1.0000
  H   H823      1.0  0.73050  0.20047  0.45320  1.0000
  H   H824      1.0  0.76511  0.17491  0.48320  1.0000
  H   H825      1.0  0.56330  0.01556  0.33337  1.0000
  H   H826      1.0  0.87433  0.24273  0.32474  1.0000
  Fe  Fe55      1.0  0.49823  0.03851  0.08743  1.0000
  H   H827      1.0  0.96046  0.17449  0.99938  1.0000
  C   C473      1.0  0.51881  0.00920  0.22221  1.0000
  H   H828      1.0  0.54124  0.24410  0.31402  1.0000
  H   H829      1.0  0.80526  0.27326  0.32014  1.0000
  H   H830      1.0  0.98741  0.22089  0.06812  1.0000
  H   H831      1.0  0.62793  0.31258  0.24801  1.0000
  C   C474      1.0  0.58458  0.31102  0.42711  1.0000
  H   H832      1.0  0.72001  0.16644  0.01624  1.0000
  C   C475      1.0  0.77573  0.14570  0.04396  1.0000
  C   C476      1.0  0.89876  0.15230  0.06093  1.0000
  C   C477      1.0  0.52717  0.31475  0.34594  1.0000
  Fe  Fe56      1.0  0.76211  0.30438  0.36755  1.0000
  N   N28       1.0  0.66291  0.03672  0.17317  1.0000
  C   C478      1.0  0.70072  0.02635  0.18315  1.0000
  C   C479      1.0  0.66728  0.04347  0.14251  1.0000
  C   C480      1.0  0.65743  0.05529  0.19130  1.0000
  C   C481      1.0  0.62611  0.02365  0.17672  1.0000
  H   H833      1.0  0.94297  0.21996  0.00037  1.0000
  H   H834      1.0  0.54389  0.15123  0.03021  1.0000
  C   C482      1.0  0.62111  0.06884  0.18349  1.0000
  C   C483      1.0  0.69387  0.03052  0.12249  1.0000
  C   C484      1.0  0.68983  0.03731  0.09158  1.0000
  H   H835      1.0  0.92261  0.27007  0.25904  1.0000
  H   H836      1.0  0.50365  0.29499  0.46729  1.0000
  C   C485      1.0  0.66887  0.19701  0.03295  1.0000
  H   H837      1.0  0.72696  0.03667  0.18056  1.0000
  H   H838      1.0  0.58856  0.98780  0.19294  1.0000
  H   H839      1.0  0.63716  0.04488  0.13239  1.0000
  H   H840      1.0  0.68060  0.05887  0.14134  1.0000
  H   H841      1.0  0.68522  0.06472  0.19055  1.0000
  H   H842      1.0  0.65273  0.05122  0.21397  1.0000
  H   H843      1.0  0.61895  0.02144  0.19964  1.0000
  H   H844      1.0  0.59925  0.03141  0.16806  1.0000
  H   H845      1.0  0.56237  0.22855  0.26657  1.0000
  H   H846      1.0  0.58641  0.31354  0.48507  1.0000
  H   H847      1.0  0.56639  0.26845  0.49218  1.0000
  H   H848      1.0  0.94712  0.24735  0.04903  1.0000
  H   H849      1.0  0.59254  0.06130  0.18949  1.0000
  H   H850      1.0  0.62004  0.07228  0.16048  1.0000
  H   H851      1.0  0.72603  0.03216  0.12855  1.0000
  H   H852      1.0  0.68596  0.01438  0.12344  1.0000
  H   H853      1.0  0.69896  0.05331  0.08931  1.0000
  H   H854      1.0  0.58099  0.14890  0.00244  1.0000
  H   H855      1.0  0.65823  0.03560  0.08419  1.0000
  C   C486      1.0  0.51570  0.27414  0.35773  1.0000
  C   C487      1.0  0.83295  0.26630  0.31139  1.0000
  C   C488      1.0  0.50242  0.99161  0.46107  1.0000
  C   C489      1.0  0.56103  0.30244  0.35019  1.0000
  H   H856      1.0  0.64628  0.24414  0.17786  1.0000
  C   C490      1.0  0.49798  0.99171  0.21441  1.0000
  H   H857      1.0  0.88408  0.21332  0.05071  1.0000
  H   H858      1.0  0.55244  0.02328  0.25601  1.0000
  H   H859      1.0  0.52162  0.31993  0.46645  1.0000
  C   C491      1.0  0.67243  0.17856  0.07877  1.0000
  H   H860      1.0  0.69193  0.18220  0.44449  1.0000
  H   H861      1.0  0.62273  0.31464  0.28621  1.0000
  C   C492      1.0  0.64206  0.19420  0.09073  1.0000
  C   C493      1.0  0.63586  0.19164  0.12271  1.0000
  C   C494      1.0  0.73250  0.17303  0.47859  1.0000
  C   C495      1.0  0.53219  0.25060  0.29329  1.0000
  S   S112      1.0  0.70905  0.30888  0.39688  1.0000
  H   H862      1.0  0.66575  0.16362  0.08839  1.0000
  H   H863      1.0  0.70184  0.18318  0.08800  1.0000
  H   H864      1.0  0.90760  0.24252  0.02365  1.0000
  H   H865      1.0  0.65307  0.25151  0.30505  1.0000
  C   C496      1.0  0.65350  0.23991  0.20013  1.0000
  H   H866      1.0  0.65382  0.20966  0.08719  1.0000
  H   H867      1.0  0.66265  0.28277  0.29147  1.0000
  H   H868      1.0  0.96364  0.17346  0.04612  1.0000
  H   H869      1.0  0.61226  0.19321  0.08043  1.0000
  H   H870      1.0  0.61367  0.20280  0.13047  1.0000
  C   C497      1.0  0.91665  0.24081  0.04623  1.0000
  H   H871      1.0  0.58820  0.28193  0.29022  1.0000
  H   H872      1.0  0.90447  0.20203  0.00532  1.0000
  H   H873      1.0  0.59210  0.17944  0.03205  1.0000
  C   C498      1.0  0.56276  0.24515  0.26954  1.0000
  H   H874      1.0  0.89481  0.27545  0.30513  1.0000
  C   C499      1.0  0.76100  0.24616  0.02846  1.0000
  H   H875      1.0  0.91874  0.21756  0.07875  1.0000
  H   H876      1.0  0.65391  0.99407  0.16820  1.0000
  H   H877      1.0  0.66457  0.19412  0.13427  1.0000
  H   H878      1.0  0.57934  0.24630  0.39853  1.0000
  C   C500      1.0  0.71781  0.17023  0.03925  1.0000
  C   C501      1.0  0.59883  0.26498  0.43415  1.0000
  H   H879      1.0  0.85592  0.25853  0.35337  1.0000
  H   H880      1.0  0.58905  0.21779  0.30728  1.0000
  C   C502      1.0  0.53596  0.00999  0.24965  1.0000
  H   H881      1.0  0.63806  0.20262  0.03699  1.0000
  H   H882      1.0  0.70944  0.02801  0.07775  1.0000
  H   H883      1.0  0.62977  0.22678  0.25236  1.0000
  H   H884      1.0  0.66349  0.22519  0.34449  1.0000
  H   H885      1.0  0.88169  0.25336  0.26618  1.0000
  H   H886      1.0  0.75929  0.24877  0.05113  1.0000
  H   H887      1.0  0.73917  0.18284  0.04290  1.0000
  H   H888      1.0  0.68446  0.24523  0.20490  1.0000
  C   C503      1.0  0.88740  0.25336  0.06388  1.0000
  N   N29       1.0  0.67560  0.17676  0.04672  1.0000
  H   H889      1.0  0.62307  0.08635  0.22273  1.0000
  C   C504      1.0  0.73481  0.15195  0.05581  1.0000
  H   H890      1.0  0.85617  0.24756  0.06148  1.0000
  H   H891      1.0  0.87034  0.29355  0.23407  1.0000
  C   C505      1.0  0.55912  0.27703  0.43632  1.0000
  H   H892      1.0  0.57064  0.30964  0.40579  1.0000
  H   H893      1.0  0.69975  0.03153  0.22955  1.0000
  S   S113      1.0  0.52652  0.07527  0.14887  1.0000
  H   H894      1.0  0.61601  0.30570  0.42417  1.0000
  H   H895      1.0  0.68944  0.20834  0.04282  1.0000
  H   H896      1.0  0.94115  0.30172  0.25941  1.0000
  C   C506      1.0  0.62285  0.08886  0.19939  1.0000
  H   H897      1.0  0.82464  0.25821  0.29163  1.0000
  C   C507      1.0  0.63193  0.22032  0.34089  1.0000
  H   H898      1.0  0.62994  0.20399  0.34556  1.0000
  C   C508      1.0  0.52068  0.30580  0.45381  1.0000
  C   C509      1.0  0.60469  0.27535  0.27183  1.0000
  H   H899      1.0  0.65205  0.15827  0.01254  1.0000
  H   H900      1.0  0.52959  0.26713  0.29576  1.0000
  Fe  Fe57      1.0  0.51371  0.04194  0.15271  1.0000
  C   C510      1.0  0.53728  0.00677  0.01104  1.0000
  H   H901      1.0  0.89369  0.17172  0.02486  1.0000
  H   H902      1.0  0.79693  0.15864  0.04398  1.0000
  S   S114      1.0  0.61008  0.31320  0.34851  1.0000
  C   C511      1.0  0.61960  0.22416  0.31007  1.0000
  H   H903      1.0  0.64077  0.21570  0.29630  1.0000
  H   H904      1.0  0.88800  0.26920  0.05645  1.0000
  H   H905      1.0  0.89601  0.25308  0.08669  1.0000
  H   H906      1.0  0.58771  0.28032  0.25269  1.0000
  C   C512      1.0  0.72388  0.18417  0.45082  1.0000
  H   H907      1.0  0.53727  0.26786  0.44874  1.0000
  H   H908      1.0  0.61179  0.22848  0.35575  1.0000
  H   H909      1.0  0.51145  0.25836  0.36236  1.0000
  H   H910      1.0  0.81189  0.31293  0.23577  1.0000
  C   C513      1.0  0.98705  0.21295  0.04722  1.0000
  H   H911      1.0  0.82355  0.23987  0.33748  1.0000
  H   H912      1.0  0.58410  0.13335  0.03401  1.0000
  H   H913      1.0  0.66507  0.28071  0.25339  1.0000
  H   H914      1.0  0.90836  0.26753  0.20694  1.0000
  N   N30       1.0  0.56259  0.29801  0.44832  1.0000
  H   H915      1.0  0.74085  0.99336  0.20710  1.0000
  C   C514      1.0  0.86497  0.28280  0.30561  1.0000
  C   C515      1.0  0.57626  0.14853  0.02582  1.0000
  S   S115      1.0  0.50976  0.07157  0.08032  1.0000
  H   H916      1.0  0.66422  0.24672  0.25636  1.0000
  H   H917      1.0  0.94451  0.18477  0.07715  1.0000
  H   H918      1.0  0.86585  0.29260  0.32484  1.0000
  H   H919      1.0  0.71472  0.13869  0.05454  1.0000
  C   C516      1.0  0.89224  0.26554  0.25190  1.0000
  H   H920      1.0  0.65319  0.14622  0.04586  1.0000
  C   C517      1.0  0.62326  0.24957  0.22045  1.0000
  C   C518      1.0  0.70071  0.01877  0.21437  1.0000
  H   H921      1.0  0.70765  0.01310  0.16974  1.0000
  C   C519      1.0  0.62103  0.24693  0.30286  1.0000
  H   H922      1.0  0.60517  0.25537  0.31987  1.0000
  C   C520      1.0  0.64173  0.30862  0.26877  1.0000
  H   H923      1.0  0.65011  0.09749  0.19311  1.0000
  H   H924      1.0  0.87414  0.18182  0.05749  1.0000
  C   C521      1.0  0.91523  0.21833  0.05518  1.0000
  C   C522      1.0  0.84782  0.25095  0.33309  1.0000
  H   H925      1.0  0.72646  0.15688  0.47510  1.0000
  H   H926      1.0  0.67473  0.00871  0.21853  1.0000
  H   H927      1.0  0.62519  0.26606  0.21748  1.0000
  C   C523      1.0  0.63203  0.24346  0.25167  1.0000
  H   H928      1.0  0.86918  0.14508  0.05681  1.0000
  C   C524      1.0  0.64633  0.28585  0.27146  1.0000
  C   C525      1.0  0.97792  0.20744  0.12947  1.0000
  H   H929      1.0  0.59476  0.16374  0.06354  1.0000
  H   H930      1.0  0.59280  0.24449  0.21396  1.0000
  C   C526      1.0  0.49717  0.00480  0.01988  1.0000
  C   C527      1.0  0.64702  0.16094  0.03561  1.0000
  H   H931      1.0  0.65262  0.22326  0.20186  1.0000
  H   H932      1.0  0.55020  0.25129  0.24941  1.0000
  H   H933      1.0  0.86593  0.25126  0.21441  1.0000
  H   H934      1.0  0.91607  0.24315  0.22281  1.0000
  H   H935      1.0  0.49499  0.28868  0.01701  1.0000
  H   H936      1.0  0.77254  0.13998  0.02188  1.0000
  H   H937      1.0  0.94041  0.29803  0.29758  1.0000
  H   H938      1.0  0.51151  0.98818  0.33426  1.0000
  H   H939      1.0  0.67706  0.13936  0.49260  1.0000
  C   C528      1.0  0.86222  0.28339  0.25201  1.0000
  H   H940      1.0  0.83274  0.27671  0.24578  1.0000
  H   H941      1.0  0.81095  0.31133  0.30162  1.0000
  C   C529      1.0  0.54839  0.01093  0.35347  1.0000
  H   H942      1.0  0.98424  0.23144  0.18434  1.0000
  H   H943      1.0  0.54559  0.02414  0.36778  1.0000
  C   C530      1.0  0.88656  0.31305  0.27982  1.0000
  H   H944      1.0  0.56764  0.99963  0.36421  1.0000
  N   N31       1.0  0.85814  0.29532  0.27929  1.0000
  C   C531      1.0  0.93211  0.30835  0.28008  1.0000
  H   H945      1.0  0.92265  0.14279  0.05142  1.0000
  H   H946      1.0  0.73112  0.27389  0.01744  1.0000
  C   C532      1.0  0.74511  0.26040  0.00929  1.0000
  C   C533      1.0  0.81596  0.30368  0.28088  1.0000
  H   H947      1.0  0.99192  0.24990  0.21193  1.0000
  H   H948      1.0  0.54635  0.99456  0.28959  1.0000
  H   H949      1.0  0.62672  0.00485  0.13852  1.0000
  C   C534      1.0  0.53234  0.99371  0.26892  1.0000
  C   C535      1.0  0.93706  0.20480  0.00943  1.0000
  C   C536      1.0  0.49869  0.01861  0.49707  1.0000
  H   H950      1.0  0.74172  0.30873  0.25282  1.0000
  H   H951      1.0  0.56218  0.99807  0.16257  1.0000
  C   C537      1.0  0.59008  0.99037  0.16962  1.0000
  C   C538      1.0  0.50702  0.00181  0.34745  1.0000
  H   H952      1.0  0.76605  0.01641  0.21753  1.0000
  C   C539      1.0  0.73894  0.00690  0.22088  1.0000
  C   C540      1.0  0.62713  0.00288  0.16192  1.0000
  C   C541      1.0  0.80391  0.31873  0.25716  1.0000
  H   H953      1.0  0.68050  0.23092  0.00012  1.0000
  C   C542      1.0  0.67588  0.19818  0.00036  1.0000
  Fe  Fe58      1.0  0.86542  0.20238  0.63555  1.0000
  S   S116      1.0  0.83162  0.22983  0.62078  1.0000
  S   S117      1.0  0.93117  0.21007  0.64608  1.0000
  Fe  Fe59      1.0  0.78710  0.17655  0.63333  1.0000
  S   S118      1.0  0.74979  0.20237  0.61803  1.0000
  S   S119      1.0  0.75981  0.14554  0.64295  1.0000
  Fe  Fe60      1.0  0.80172  0.20952  0.58883  1.0000
  S   S120      1.0  0.80308  0.21388  0.54046  1.0000
  Fe  Fe61      1.0  0.78328  0.22021  0.65152  1.0000
  S   S121      1.0  0.74871  0.24116  0.68113  1.0000
  S   S122      1.0  0.83772  0.18238  0.60223  1.0000
  S   S123      1.0  0.81834  0.19413  0.66815  1.0000
  Fe  Fe62      1.0  0.73267  0.26489  0.84608  1.0000
  S   S124      1.0  0.69891  0.29121  0.82896  1.0000
  S   S125      1.0  0.76173  0.24165  0.81674  1.0000
  Fe  Fe63      1.0  0.72061  0.27867  0.90818  1.0000
  S   S126      1.0  0.68598  0.30622  0.89400  1.0000
  S   S127      1.0  0.72645  0.27595  0.95671  1.0000
  Fe  Fe64      1.0  0.65346  0.28534  0.86373  1.0000
  H   H954      1.0  0.63042  0.15242  0.73708  1.0000
  C   C543      1.0  0.54031  0.00674  0.87856  1.0000
  S   S128      1.0  0.68608  0.25776  0.87945  1.0000
  S   S129      1.0  0.77070  0.28330  0.87637  1.0000
  H   H955      1.0  0.63856  0.11818  0.71578  1.0000
  S   S130      1.0  0.57142  0.04700  0.61880  1.0000
  H   H956      1.0  0.64807  0.11624  0.54547  1.0000
  C   C544      1.0  0.64211  0.15099  0.71510  1.0000
  Fe  Fe65      1.0  0.55210  0.07950  0.61652  1.0000
  S   S131      1.0  0.58675  0.10931  0.60991  1.0000
  H   H957      1.0  0.73240  0.19788  0.81879  1.0000
  H   H958      1.0  0.49723  0.03641  0.97868  1.0000
  H   H959      1.0  0.65496  0.20410  0.59745  1.0000
  H   H960      1.0  0.83434  0.17071  0.72704  1.0000
  H   H961      1.0  0.68467  0.18573  0.81299  1.0000
  H   H962      1.0  0.66819  0.22279  0.68377  1.0000
  H   H963      1.0  0.62883  0.20458  0.67690  1.0000
  C   C545      1.0  0.51876  0.00671  0.51714  1.0000
  H   H964      1.0  0.74530  0.30002  0.73965  1.0000
  H   H965      1.0  0.70862  0.12829  0.51976  1.0000
  C   C546      1.0  0.53119  0.30644  0.87383  1.0000
  H   H966      1.0  0.88327  0.25518  0.70088  1.0000
  C   C547      1.0  0.71152  0.13573  0.63362  1.0000
  C   C548      1.0  0.68107  0.14786  0.62244  1.0000
  C   C549      1.0  0.64332  0.13947  0.61528  1.0000
  C   C550      1.0  0.63511  0.11890  0.61959  1.0000
  C   C551      1.0  0.66538  0.10682  0.63116  1.0000
  C   C552      1.0  0.70328  0.11520  0.63810  1.0000
  H   H967      1.0  0.68646  0.16374  0.61966  1.0000
  H   H968      1.0  0.62008  0.14902  0.60661  1.0000
  H   H969      1.0  0.65967  0.09099  0.63465  1.0000
  H   H970      1.0  0.72644  0.10565  0.64691  1.0000
  H   H971      1.0  0.58583  0.27403  0.54194  1.0000
  C   C553      1.0  0.82456  0.28893  0.79128  1.0000
  H   H972      1.0  0.69311  0.26002  0.51333  1.0000
  C   C554      1.0  0.86072  0.27546  0.73344  1.0000
  H   H973      1.0  0.95674  0.16923  0.62934  1.0000
  C   C555      1.0  0.74720  0.25740  0.97966  1.0000
  C   C556      1.0  0.76536  0.23989  0.96940  1.0000
  C   C557      1.0  0.74137  0.24029  0.52593  1.0000
  C   C558      1.0  0.77496  0.22938  0.51697  1.0000
  H   H974      1.0  0.66451  0.21098  0.64944  1.0000
  H   H975      1.0  0.99138  0.23370  0.51298  1.0000
  H   H976      1.0  0.76713  0.23734  0.94672  1.0000
  H   H977      1.0  0.73268  0.23999  0.54807  1.0000
  H   H978      1.0  0.62880  0.16307  0.70190  1.0000
  C   C559      1.0  0.95086  0.30998  0.86303  1.0000
  C   C560      1.0  0.75737  0.24158  0.77907  1.0000
  C   C561      1.0  0.72782  0.25268  0.76495  1.0000
  C   C562      1.0  0.72557  0.25237  0.73501  1.0000
  C   C563      1.0  0.75251  0.24080  0.71882  1.0000
  C   C564      1.0  0.78188  0.22956  0.73295  1.0000
  C   C565      1.0  0.78431  0.22999  0.76289  1.0000
  H   H979      1.0  0.70650  0.26142  0.77712  1.0000
  H   H980      1.0  0.70269  0.26110  0.72433  1.0000
  H   H981      1.0  0.80314  0.22077  0.72081  1.0000
  H   H982      1.0  0.80733  0.22136  0.77358  1.0000
  S   S132      1.0  0.50530  0.07281  0.58269  1.0000
  H   H983      1.0  0.58384  0.00360  0.73881  1.0000
  C   C566      1.0  0.55108  0.99678  0.98621  1.0000
  C   C567      1.0  0.98323  0.17828  0.63328  1.0000
  C   C568      1.0  0.66399  0.21880  0.98878  1.0000
  H   H984      1.0  0.70821  0.19603  0.99527  1.0000
  H   H985      1.0  0.53031  0.99116  0.88288  1.0000
  C   C569      1.0  0.53847  0.99233  0.76776  1.0000
  C   C570      1.0  0.55193  0.00265  0.74316  1.0000
  C   C571      1.0  0.74895  0.30583  0.76164  1.0000
  C   C572      1.0  0.70731  0.18176  0.50344  1.0000
  H   H986      1.0  0.73042  0.17096  0.81489  1.0000
  H   H987      1.0  0.58095  0.30359  0.78337  1.0000
  H   H988      1.0  0.91527  0.18425  0.95965  1.0000
  Fe  Fe66      1.0  0.73485  0.30957  0.86067  1.0000
  H   H989      1.0  0.92578  0.32007  0.86928  1.0000
  H   H990      1.0  0.80871  0.29647  0.80927  1.0000
  H   H991      1.0  0.71928  0.19733  0.50615  1.0000
  H   H992      1.0  0.79302  0.12610  0.54944  1.0000
  H   H993      1.0  0.65792  0.18672  0.98885  1.0000
  C   C573      1.0  0.59808  0.28403  0.52512  1.0000
  H   H994      1.0  0.74579  0.29319  0.77675  1.0000
  H   H995      1.0  0.67173  0.21979  0.96583  1.0000
  S   S133      1.0  0.54396  0.02474  0.69344  1.0000
  H   H996      1.0  0.51615  0.30312  0.75663  1.0000
  H   H997      1.0  0.51601  0.28712  0.78764  1.0000
  H   H998      1.0  0.59677  0.99633  0.86080  1.0000
  H   H999      1.0  0.55658  0.31603  0.87878  1.0000
  H   H1000     1.0  0.92411  0.20569  0.54756  1.0000
  C   C574      1.0  0.65826  0.21298  0.57760  1.0000
  C   C575      1.0  0.85901  0.26649  0.70350  1.0000
  H   H1001     1.0  0.77277  0.17325  0.53511  1.0000
  Fe  Fe67      1.0  0.52476  0.04334  0.65377  1.0000
  Fe  Fe68      1.0  0.52153  0.04006  0.58730  1.0000
  C   C576      1.0  0.97237  0.22102  0.57057  1.0000
  H   H1002     1.0  0.75672  0.15059  0.51933  1.0000
  H   H1003     1.0  0.88653  0.27654  0.78699  1.0000
  H   H1004     1.0  0.64567  0.16198  0.52657  1.0000
  H   H1005     1.0  0.72756  0.19638  0.55620  1.0000
  N   N32       1.0  0.70744  0.17085  0.72691  1.0000
  C   C577      1.0  0.68875  0.15200  0.71469  1.0000
  C   C578      1.0  0.75138  0.17118  0.71901  1.0000
  C   C579      1.0  0.70182  0.17062  0.75875  1.0000
  C   C580      1.0  0.68783  0.18950  0.71520  1.0000
  C   C581      1.0  0.68844  0.19161  0.68239  1.0000
  C   C582      1.0  0.72301  0.18781  0.77543  1.0000
  C   C583      1.0  0.77768  0.15451  0.73259  1.0000
  C   C584      1.0  0.82107  0.15577  0.72205  1.0000
  C   C585      1.0  0.66073  0.20854  0.67262  1.0000
  C   C586      1.0  0.71714  0.18533  0.80746  1.0000
  H   H1006     1.0  0.69959  0.13853  0.72637  1.0000
  H   H1007     1.0  0.69882  0.14950  0.69238  1.0000
  H   H1008     1.0  0.75473  0.16955  0.69559  1.0000
  H   H1009     1.0  0.76513  0.18604  0.72404  1.0000
  H   H1010     1.0  0.71181  0.15602  0.76784  1.0000
  H   H1011     1.0  0.66932  0.17166  0.76414  1.0000
  H   H1012     1.0  0.65629  0.19079  0.72293  1.0000
  H   H1013     1.0  0.70322  0.20321  0.72334  1.0000
  H   H1014     1.0  0.67875  0.17770  0.67140  1.0000
  H   H1015     1.0  0.71943  0.19527  0.67534  1.0000
  H   H1016     1.0  0.71040  0.20266  0.76955  1.0000
  H   H1017     1.0  0.75584  0.18809  0.77136  1.0000
  H   H1018     1.0  0.77836  0.15590  0.75608  1.0000
  H   H1019     1.0  0.76616  0.13936  0.72696  1.0000
  H   H1020     1.0  0.83946  0.14403  0.73260  1.0000
  H   H1021     1.0  0.82233  0.15318  0.69870  1.0000
  C   C587      1.0  0.86527  0.28144  0.80363  1.0000
  C   C588      1.0  0.64639  0.12074  0.52271  1.0000
  C   C589      1.0  0.53789  0.28743  0.86200  1.0000
  H   H1022     1.0  0.89055  0.28271  0.73574  1.0000
  H   H1023     1.0  0.52115  0.04100  0.91244  1.0000
  H   H1024     1.0  0.83761  0.26761  0.84088  1.0000
  C   C590      1.0  0.97894  0.19837  0.64159  1.0000
  H   H1025     1.0  0.59368  0.13058  0.70343  1.0000
  H   H1026     1.0  0.95850  0.30001  0.88118  1.0000
  H   H1027     1.0  0.84830  0.25041  0.81205  1.0000
  H   H1028     1.0  0.94054  0.30043  0.84508  1.0000
  C   C591      1.0  0.94690  0.18967  0.96049  1.0000
  H   H1029     1.0  0.63701  0.12921  0.68066  1.0000
  C   C592      1.0  0.62707  0.13100  0.70305  1.0000
  H   H1030     1.0  0.86321  0.27838  0.68719  1.0000
  H   H1031     1.0  0.62816  0.27832  0.51878  1.0000
  C   C593      1.0  0.66296  0.19901  0.55203  1.0000
  H   H1032     1.0  0.63551  0.18955  0.55099  1.0000
  H   H1033     1.0  0.79875  0.13169  0.58671  1.0000
  C   C594      1.0  0.96207  0.19007  0.99118  1.0000
  H   H1034     1.0  0.79828  0.28083  0.73746  1.0000
  H   H1035     1.0  0.88854  0.25982  0.83398  1.0000
  H   H1036     1.0  0.60146  0.29940  0.53407  1.0000
  H   H1037     1.0  0.66426  0.20855  0.53268  1.0000
  S   S134      1.0  0.58691  0.27869  0.85266  1.0000
  H   H1038     1.0  0.82407  0.30067  0.71965  1.0000
  C   C595      1.0  0.85942  0.26377  0.82389  1.0000
  H   H1039     1.0  0.94864  0.20490  0.95087  1.0000
  H   H1040     1.0  0.75637  0.16135  0.58280  1.0000
  H   H1041     1.0  0.88003  0.29369  0.81579  1.0000
  C   C596      1.0  0.93186  0.21009  0.56968  1.0000
  H   H1042     1.0  0.50903  0.26056  0.84638  1.0000
  H   H1043     1.0  0.68528  0.31266  0.76436  1.0000
  H   H1044     1.0  0.66969  0.15070  0.55587  1.0000
  H   H1045     1.0  0.52324  0.05711  0.96181  1.0000
  C   C597      1.0  0.74906  0.16141  0.53640  1.0000
  C   C598      1.0  0.70142  0.18592  0.55484  1.0000
  C   C599      1.0  0.75491  0.15034  0.56511  1.0000
  C   C600      1.0  0.56966  0.28418  0.49957  1.0000
  H   H1046     1.0  0.89149  0.30698  0.76624  1.0000
  H   H1047     1.0  0.69955  0.17840  0.57585  1.0000
  C   C601      1.0  0.82575  0.29039  0.73835  1.0000
  C   C602      1.0  0.51575  0.30297  0.78018  1.0000
  H   H1048     1.0  0.68474  0.22309  0.57962  1.0000
  H   H1049     1.0  0.73014  0.13959  0.56942  1.0000
  N   N33       1.0  0.70819  0.17064  0.53155  1.0000
  H   H1050     1.0  0.79568  0.21229  0.98037  1.0000
  S   S135      1.0  0.53007  0.01530  0.55265  1.0000
  H   H1051     1.0  0.85819  0.26275  0.74865  1.0000
  H   H1052     1.0  0.64999  0.10702  0.50949  1.0000
  H   H1053     1.0  0.63100  0.22240  0.57489  1.0000
  C   C603      1.0  0.71903  0.25167  0.50616  1.0000
  C   C604      1.0  0.78148  0.22570  0.98858  1.0000
  H   H1054     1.0  0.80562  0.27556  0.78644  1.0000
  H   H1055     1.0  0.82016  0.14839  0.56059  1.0000
  H   H1056     1.0  0.51566  0.03454  0.86215  1.0000
  C   C605      1.0  0.67472  0.15528  0.53335  1.0000
  H   H1057     1.0  0.82974  0.25888  0.69974  1.0000
  C   C606      1.0  0.50429  0.27529  0.85552  1.0000
  C   C607      1.0  0.79417  0.13843  0.56535  1.0000
  C   C608      1.0  0.57099  0.00590  0.85437  1.0000
  S   S136      1.0  0.50828  0.07639  0.65311  1.0000
  H   H1058     1.0  0.90787  0.22016  0.57782  1.0000
  H   H1059     1.0  0.58213  0.99853  0.97977  1.0000
  H   H1060     1.0  0.55608  0.01249  0.89770  1.0000
  C   C609      1.0  0.79038  0.31620  0.76541  1.0000
  N   N34       1.0  0.82669  0.30254  0.76554  1.0000
  C   C610      1.0  0.67960  0.13588  0.51555  1.0000
  C   C611      1.0  0.55485  0.31272  0.79044  1.0000
  H   H1061     1.0  0.96997  0.23443  0.55690  1.0000
  H   H1062     1.0  0.58259  0.02116  0.84941  1.0000
  H   H1063     1.0  0.97718  0.22638  0.59270  1.0000
  C   C612      1.0  0.50374  0.01993  0.87020  1.0000
  H   H1064     1.0  0.93257  0.19645  0.58329  1.0000
  C   C613      1.0  0.52470  0.01194  0.72428  1.0000
  H   H1065     1.0  0.61622  0.12721  0.51843  1.0000
  C   C614      1.0  0.53043  0.98719  0.50884  1.0000
  H   H1066     1.0  0.50676  0.01950  0.93230  1.0000
  C   C615      1.0  0.49735  0.99099  0.77392  1.0000
  H   H1067     1.0  0.53987  0.28949  0.50708  1.0000
  H   H1068     1.0  0.55713  0.99930  0.83497  1.0000
  H   H1069     1.0  0.96578  0.17932  0.94766  1.0000
  H   H1070     1.0  0.63115  0.22129  0.99119  1.0000
  H   H1071     1.0  0.99392  0.19505  0.99060  1.0000
  C   C616      1.0  0.86346  0.31590  0.76551  1.0000
  H   H1072     1.0  0.55557  0.31355  0.81401  1.0000
  H   H1073     1.0  0.92779  0.43624  0.43966  1.0000
  H   H1074     1.0  0.96617  0.48168  0.44846  1.0000
  H   H1075     1.0  0.90960  0.50184  0.13671  1.0000
  H   H1076     1.0  0.97443  0.64038  0.16084  1.0000
  S   S137      1.0  0.90339  0.40479  0.39347  1.0000
  C   C617      1.0  0.86524  0.44305  0.44389  1.0000
  H   H1077     1.0  0.91769  0.40454  0.45685  1.0000
  H   H1078     1.0  0.84289  0.44870  0.45940  1.0000
  C   C618      1.0  0.84742  0.56842  0.18613  1.0000
  H   H1079     1.0  0.91822  0.56479  0.23359  1.0000
  H   H1080     1.0  0.98974  0.60617  0.17859  1.0000
  S   S138      1.0  0.90760  0.57013  0.11194  1.0000
  C   C619      1.0  0.98457  0.48590  0.46643  1.0000
  C   C620      1.0  0.89540  0.52369  0.22692  1.0000
  C   C621      1.0  0.88515  0.59365  0.12082  1.0000
  C   C622      1.0  0.89795  0.60505  0.14414  1.0000
  C   C623      1.0  0.87794  0.62304  0.15138  1.0000
  C   C624      1.0  0.84485  0.62995  0.13543  1.0000
  C   C625      1.0  0.83200  0.61854  0.11212  1.0000
  C   C626      1.0  0.85183  0.60044  0.10505  1.0000
  H   H1081     1.0  0.92257  0.59973  0.15707  1.0000
  H   H1082     1.0  0.58619  0.64984  0.08883  1.0000
  H   H1083     1.0  0.97186  0.53612  0.23263  1.0000
  H   H1084     1.0  0.84121  0.59162  0.08722  1.0000
  C   C627      1.0  0.88071  0.38164  0.38298  1.0000
  C   C628      1.0  0.90083  0.36762  0.36600  1.0000
  C   C629      1.0  0.88213  0.34922  0.35887  1.0000
  C   C630      1.0  0.84308  0.34456  0.36849  1.0000
  C   C631      1.0  0.82286  0.35861  0.38539  1.0000
  C   C632      1.0  0.84160  0.37702  0.39255  1.0000
  H   H1085     1.0  0.93094  0.37089  0.35857  1.0000
  H   H1086     1.0  0.89821  0.33845  0.34601  1.0000
  H   H1087     1.0  0.79284  0.35529  0.39293  1.0000
  H   H1088     1.0  0.82569  0.38775  0.40563  1.0000
  H   H1089     1.0  0.91848  0.45824  0.45942  1.0000
  H   H1090     1.0  0.86287  0.50682  0.17716  1.0000
  H   H1091     1.0  0.80066  0.58869  0.17190  1.0000
  H   H1092     1.0  0.99206  0.41316  0.27361  1.0000
  H   H1093     1.0  0.91054  0.54556  0.16198  1.0000
  H   H1094     1.0  0.96345  0.59743  0.08587  1.0000
  H   H1095     1.0  0.83258  0.45699  0.40919  1.0000
  C   C633      1.0  0.80419  0.57610  0.18723  1.0000
  N   N35       1.0  0.89494  0.54113  0.20637  1.0000
  C   C634      1.0  0.89730  0.51034  0.27744  1.0000
  C   C635      1.0  0.88295  0.51175  0.13450  1.0000
  C   C636      1.0  0.96990  0.54852  0.21699  1.0000
  C   C637      1.0  0.86493  0.39964  0.48314  1.0000
  C   C638      1.0  0.96748  0.49635  0.48977  1.0000
  H   H1096     1.0  0.91824  0.53945  0.26526  1.0000
  H   H1097     1.0  0.98073  0.54294  0.19617  1.0000
  H   H1098     1.0  0.79046  0.63166  0.44936  1.0000
  S   S139      1.0  0.98532  0.52538  0.12170  1.0000
  C   C639      1.0  0.85423  0.55106  0.20767  1.0000
  H   H1099     1.0  0.89517  0.51452  0.30026  1.0000
  H   H1100     1.0  0.87290  0.49944  0.27254  1.0000
  H   H1101     1.0  0.92242  0.51414  0.22344  1.0000
  H   H1102     1.0  0.60967  0.36162  0.41628  1.0000
  H   H1103     1.0  0.82978  0.53976  0.20498  1.0000
  H   H1104     1.0  0.63608  0.33958  0.40422  1.0000
  S   S140      1.0  0.96902  0.45195  0.37524  1.0000
  H   H1105     1.0  0.96231  0.45046  0.49739  1.0000
  H   H1106     1.0  0.86945  0.51352  0.22284  1.0000
  C   C640      1.0  0.90366  0.53310  0.17698  1.0000
  H   H1107     1.0  0.98976  0.57061  0.24833  1.0000
  H   H1108     1.0  0.98405  0.49450  0.19764  1.0000
  H   H1109     1.0  0.63975  0.65151  0.08233  1.0000
  C   C641      1.0  0.61022  0.64774  0.07271  1.0000
  H   H1110     1.0  0.98950  0.52437  0.00828  1.0000
  H   H1111     1.0  0.60749  0.33593  0.45338  1.0000
  H   H1112     1.0  0.84223  0.52869  0.16007  1.0000
  H   H1113     1.0  0.84914  0.55764  0.22911  1.0000
  H   H1114     1.0  0.81917  0.33340  0.26052  1.0000
  C   C642      1.0  0.95681  0.32758  0.28408  1.0000
  H   H1115     1.0  0.89020  0.52430  0.11975  1.0000
  C   C643      1.0  0.89352  0.52916  0.25899  1.0000
  H   H1116     1.0  0.92688  0.50298  0.27395  1.0000
  H   H1117     1.0  0.86445  0.53644  0.26420  1.0000
  Fe  Fe69      1.0  0.97256  0.55859  0.11600  1.0000
  N   N36       1.0  0.91330  0.43092  0.48393  1.0000
  C   C644      1.0  0.90812  0.44252  0.45663  1.0000
  H   H1118     1.0  0.87220  0.47245  0.42380  1.0000
  H   H1119     1.0  0.85805  0.50282  0.12505  1.0000
  H   H1120     1.0  0.88793  0.63162  0.16962  1.0000
  C   C645      1.0  0.87011  0.51989  0.16347  1.0000
  H   H1121     1.0  0.55796  0.34036  0.43917  1.0000
  H   H1122     1.0  0.80652  0.62354  0.09971  1.0000
  H   H1123     1.0  0.85338  0.56362  0.16397  1.0000
  H   H1124     1.0  0.84159  0.40819  0.47162  1.0000
  H   H1125     1.0  0.87063  0.37685  0.45001  1.0000
  H   H1126     1.0  0.72720  0.63500  0.47702  1.0000
  Fe  Fe70      1.0  0.96344  0.41814  0.37850  1.0000
  S   S141      1.0  0.82138  0.32105  0.35851  1.0000
  H   H1127     1.0  0.78276  0.56398  0.18125  1.0000
  H   H1128     1.0  0.79681  0.58174  0.20884  1.0000
  H   H1129     1.0  0.53141  0.33055  0.34136  1.0000
  H   H1130     1.0  0.93152  0.52383  0.17723  1.0000
  H   H1131     1.0  0.86735  0.58133  0.19114  1.0000
  H   H1132     1.0  0.85633  0.42786  0.43653  1.0000
  C   C646      1.0  0.92650  0.55659  0.21381  1.0000
  C   C647      1.0  0.86360  0.45684  0.41794  1.0000
  H   H1133     1.0  0.83200  0.37185  0.47589  1.0000
  H   H1134     1.0  0.88415  0.45129  0.40107  1.0000
  H   H1135     1.0  0.92811  0.56834  0.19700  1.0000
  C   C648      1.0  0.58777  0.33370  0.43460  1.0000
  H   H1136     1.0  0.61051  0.63166  0.06637  1.0000
  C   C649      1.0  0.90768  0.40858  0.47876  1.0000
  H   H1137     1.0  0.92732  0.39967  0.49324  1.0000
  C   C650      1.0  0.86293  0.37783  0.47295  1.0000
  H   H1138     1.0  0.92969  0.61683  0.07408  1.0000
  H   H1139     1.0  0.88414  0.36832  0.48523  1.0000
  H   H1140     1.0  0.95120  0.61185  0.02449  1.0000
  H   H1141     1.0  0.98786  0.59335  0.03563  1.0000
  H   H1142     1.0  0.58608  0.34494  0.39108  1.0000
  C   C651      1.0  0.95844  0.60034  0.04079  1.0000
  H   H1143     1.0  0.98491  0.41072  0.46777  1.0000
  H   H1144     1.0  0.76903  0.60757  0.45825  1.0000
  C   C652      1.0  0.60605  0.34562  0.41001  1.0000
  H   H1145     1.0  0.93490  0.58846  0.04013  1.0000
  C   C653      1.0  0.95941  0.60978  0.07042  1.0000
  H   H1146     1.0  0.75103  0.33409  0.24113  1.0000
  H   H1147     1.0  0.93125  0.63843  0.10982  1.0000
  H   H1148     1.0  0.99123  0.43606  0.45525  1.0000
  C   C654      1.0  0.78355  0.62124  0.46718  1.0000
  H   H1149     1.0  0.74929  0.32861  0.27867  1.0000
  C   C655      1.0  0.75522  0.63120  0.48854  1.0000
  H   H1150     1.0  0.99300  0.63476  0.05402  1.0000
  H   H1151     1.0  0.81206  0.61669  0.47770  1.0000
  H   H1152     1.0  0.80260  0.45763  0.00856  1.0000
  H   H1153     1.0  0.96063  0.47103  0.23546  1.0000
  C   C656      1.0  0.98973  0.42651  0.47452  1.0000
  C   C657      1.0  0.95583  0.43420  0.49438  1.0000
  H   H1154     1.0  0.97408  0.61279  0.12616  1.0000
  H   H1155     1.0  0.87983  0.32268  0.29870  1.0000
  H   H1156     1.0  0.93568  0.49970  0.48970  1.0000
  H   H1157     1.0  0.77811  0.43364  0.00242  1.0000
  C   C658      1.0  0.98733  0.48002  0.23895  1.0000
  C   C659      1.0  0.95609  0.64900  0.10445  1.0000
  H   H1158     1.0  0.95052  0.33847  0.26675  1.0000
  H   H1159     1.0  0.94976  0.33471  0.30487  1.0000
  H   H1160     1.0  0.65577  0.65028  0.23719  1.0000
  H   H1161     1.0  0.88431  0.47056  0.49608  1.0000
  C   C660      1.0  0.99430  0.62516  0.07323  1.0000
  H   H1162     1.0  0.88195  0.32274  0.26085  1.0000
  S   S142      1.0  0.99059  0.46044  0.29088  1.0000
  H   H1163     1.0  0.98940  0.32395  0.28375  1.0000
  C   C661      1.0  0.75868  0.32274  0.25755  1.0000
  H   H1164     1.0  0.99349  0.39198  0.24985  1.0000
  S   S143      1.0  0.82107  0.65283  0.14583  1.0000
  H   H1165     1.0  0.50782  0.32123  0.41310  1.0000
  S   S144      1.0  0.94768  0.44512  0.85891  1.0000
  H   H1166     1.0  0.95987  0.42708  0.51565  1.0000
  H   H1167     1.0  0.86015  0.45770  0.55655  1.0000
  H   H1168     1.0  0.96781  0.51418  0.95966  1.0000
  S   S145      1.0  0.92750  0.38459  0.88130  1.0000
  H   H1169     1.0  0.97769  0.33185  0.83586  1.0000
  C   C662      1.0  0.99001  0.48967  0.70803  1.0000
  S   S146      1.0  0.94353  0.54247  0.61714  1.0000
  H   H1170     1.0  0.78619  0.43817  0.95039  1.0000
  C   C663      1.0  0.80621  0.44679  0.96478  1.0000
  Fe  Fe71      1.0  0.95996  0.57526  0.61063  1.0000
  S   S147      1.0  0.92843  0.60624  0.60794  1.0000
  C   C664      1.0  0.69525  0.63954  0.54511  1.0000
  C   C665      1.0  0.85971  0.46064  0.90545  1.0000
  C   C666      1.0  0.87930  0.61662  0.61276  1.0000
  C   C667      1.0  0.87392  0.63745  0.60885  1.0000
  H   H1171     1.0  0.81042  0.46225  0.95656  1.0000
  C   C668      1.0  0.80259  0.63500  0.62074  1.0000
  C   C669      1.0  0.80798  0.61419  0.62471  1.0000
  C   C670      1.0  0.84599  0.60505  0.62081  1.0000
  C   C671      1.0  0.90778  0.34010  0.79362  1.0000
  H   H1172     1.0  0.79316  0.32770  0.74826  1.0000
  H   H1173     1.0  0.78254  0.60500  0.63088  1.0000
  H   H1174     1.0  0.84947  0.58905  0.62403  1.0000
  C   C672      1.0  0.88316  0.37169  0.86966  1.0000
  C   C673      1.0  0.87076  0.35431  0.88441  1.0000
  C   C674      1.0  0.83536  0.34380  0.87669  1.0000
  C   C675      1.0  0.81159  0.35058  0.85408  1.0000
  C   C676      1.0  0.82428  0.36781  0.83908  1.0000
  C   C677      1.0  0.85978  0.37829  0.84675  1.0000
  H   H1175     1.0  0.88841  0.34902  0.90221  1.0000
  Fe  Fe72      1.0  0.96353  0.41272  0.86792  1.0000
  H   H1176     1.0  0.80626  0.37324  0.82154  1.0000
  H   H1177     1.0  0.86874  0.39159  0.83511  1.0000
  H   H1178     1.0  0.89942  0.64663  0.60283  1.0000
  H   H1179     1.0  0.90631  0.48051  0.88865  1.0000
  H   H1180     1.0  0.80605  0.39058  0.89010  1.0000
  H   H1181     1.0  0.78865  0.37505  0.91891  1.0000
  N   N37       1.0  0.87063  0.43137  0.94196  1.0000
  H   H1182     1.0  0.87650  0.49136  0.91688  1.0000
  H   H1183     1.0  0.82704  0.63767  0.71373  1.0000
  H   H1184     1.0  0.69390  0.62978  0.52614  1.0000
  S   S148      1.0  0.99408  0.45524  0.78070  1.0000
  H   H1185     1.0  0.85477  0.38760  0.93168  1.0000
  H   H1186     1.0  0.89248  0.65149  0.72740  1.0000
  H   H1187     1.0  0.66124  0.61714  0.56859  1.0000
  H   H1188     1.0  0.84305  0.42287  0.98201  1.0000
  H   H1189     1.0  0.89570  0.40501  0.96247  1.0000
  H   H1190     1.0  0.82616  0.33061  0.88848  1.0000
  H   H1191     1.0  0.74871  0.61986  0.50521  1.0000
  C   C678      1.0  0.84753  0.43650  0.96866  1.0000
  H   H1192     1.0  0.91773  0.34793  0.77397  1.0000
  H   H1193     1.0  0.89050  0.42940  0.52685  1.0000
  C   C679      1.0  0.90273  0.63254  0.69133  1.0000
  H   H1194     1.0  0.86381  0.41634  0.90148  1.0000
  H   H1195     1.0  0.97905  0.45883  0.72048  1.0000
  H   H1196     1.0  0.75519  0.45653  0.99004  1.0000
  C   C680      1.0  0.79639  0.39069  0.91266  1.0000
  H   H1197     1.0  0.76154  0.63551  0.71509  1.0000
  H   H1198     1.0  0.91827  0.46439  0.52467  1.0000
  C   C681      1.0  0.88393  0.65128  0.70459  1.0000
  C   C682      1.0  0.98529  0.50387  0.97242  1.0000
  C   C683      1.0  0.87559  0.48152  0.89779  1.0000
  C   C684      1.0  0.85673  0.46673  0.53683  1.0000
  S   S149      1.0  0.75376  0.64560  0.62633  1.0000
  C   C685      1.0  0.82994  0.39876  0.93179  1.0000
  C   C686      1.0  0.98754  0.32225  0.85380  1.0000
  C   C687      1.0  0.84577  0.41938  0.92105  1.0000
  H   H1199     1.0  0.66935  0.65006  0.54403  1.0000
  H   H1200     1.0  0.86038  0.48286  0.54244  1.0000
  H   H1201     1.0  0.81764  0.39973  0.95362  1.0000
  H   H1202     1.0  0.71608  0.32683  0.78871  1.0000
  Fe  Fe73      1.0  0.98678  0.53534  0.58069  1.0000
  H   H1203     1.0  0.90820  0.35105  0.81147  1.0000
  H   H1204     1.0  0.93579  0.63273  0.69466  1.0000
  H   H1205     1.0  0.89031  0.61867  0.70116  1.0000
  C   C688      1.0  0.68899  0.62628  0.57125  1.0000
  H   H1206     1.0  0.89688  0.63213  0.66811  1.0000
  H   H1207     1.0  0.92131  0.41249  0.93106  1.0000
  S   S150      1.0  0.76588  0.33828  0.84378  1.0000
  C   C689      1.0  0.90603  0.41846  0.95042  1.0000
  H   H1208     1.0  0.76902  0.40012  0.91466  1.0000
  H   H1209     1.0  0.75952  0.64141  0.55452  1.0000
  H   H1210     1.0  0.68533  0.63570  0.59056  1.0000
  C   C690      1.0  0.83599  0.64658  0.61288  1.0000
  C   C691      1.0  0.88533  0.43823  0.50704  1.0000
  C   C692      1.0  0.93883  0.42890  0.96886  1.0000
  H   H1211     1.0  0.98408  0.40599  0.96031  1.0000
  H   H1212     1.0  0.80086  0.64402  0.51463  1.0000
  C   C693      1.0  0.78434  0.44872  0.99326  1.0000
  H   H1213     1.0  0.95448  0.44075  0.95651  1.0000
  H   H1214     1.0  0.89550  0.46158  0.94433  1.0000
  C   C694      1.0  0.83745  0.65095  0.70141  1.0000
  H   H1215     1.0  0.84516  0.34455  0.78484  1.0000
  H   H1216     1.0  0.85920  0.45153  0.88561  1.0000
  H   H1217     1.0  0.71582  0.33313  0.75128  1.0000
  C   C695      1.0  0.73526  0.65166  0.54700  1.0000
  H   H1218     1.0  0.81950  0.42807  0.91343  1.0000
  C   C696      1.0  0.88682  0.45023  0.92797  1.0000
  C   C697      1.0  0.86529  0.33172  0.78985  1.0000
  C   C698      1.0  0.77510  0.64991  0.50215  1.0000
  H   H1219     1.0  0.71484  0.61594  0.57431  1.0000
  H   H1220     1.0  0.82605  0.46448  0.52801  1.0000
  H   H1221     1.0  0.91524  0.44688  0.91640  1.0000
  H   H1222     1.0  0.82832  0.46235  0.91266  1.0000
  S   S151      1.0  0.96724  0.51528  0.54249  1.0000
  H   H1223     1.0  0.85565  0.48854  0.88168  1.0000
  H   H1224     1.0  0.92913  0.32781  0.79861  1.0000
  Fe  Fe74      1.0  0.99377  0.45374  0.89252  1.0000
  H   H1225     1.0  0.82965  0.64732  0.67892  1.0000
  C   C699      1.0  0.99120  0.50286  0.51295  1.0000
  C   C700      1.0  0.88865  0.46085  0.51499  1.0000
  H   H1226     1.0  0.86533  0.44689  0.98229  1.0000
  H   H1227     1.0  0.78860  0.32474  0.78575  1.0000
  C   C701      1.0  0.74886  0.65047  0.72025  1.0000
  C   C702      1.0  0.97050  0.41383  0.97876  1.0000
  H   H1228     1.0  0.86540  0.32435  0.74508  1.0000
  S   S152      1.0  0.97910  0.47839  0.92582  1.0000
  H   H1229     1.0  0.55804  0.32811  0.78161  1.0000
  H   H1230     1.0  0.97823  0.34601  0.88386  1.0000
  C   C703      1.0  0.98811  0.47358  0.72777  1.0000
  H   H1231     1.0  0.92597  0.43590  0.98818  1.0000
  H   H1232     1.0  0.98837  0.62203  0.65077  1.0000
  H   H1233     1.0  0.95680  0.40251  0.99318  1.0000
  H   H1234     1.0  0.98236  0.48712  0.68597  1.0000
  H   H1235     1.0  0.85525  0.32529  0.81043  1.0000
  H   H1236     1.0  0.70129  0.64709  0.68862  1.0000
  H   H1237     1.0  0.68891  0.63766  0.72342  1.0000
  H   H1238     1.0  0.99316  0.65084  0.56848  1.0000
  C   C704      1.0  0.70449  0.64995  0.71182  1.0000
  H   H1239     1.0  0.85344  0.43549  0.50133  1.0000
  H   H1240     1.0  0.85709  0.39974  0.50611  1.0000
  H   H1241     1.0  0.75022  0.65271  0.74359  1.0000
  C   C705      1.0  0.71453  0.32058  0.76681  1.0000
  Fe  Fe75      1.0  0.55771  0.92019  0.37595  1.0000
  S   S153      1.0  0.61233  0.90195  0.39143  1.0000
  H   H1242     1.0  0.66497  0.75166  0.15330  1.0000
  H   H1243     1.0  0.85455  0.78603  0.22800  1.0000
  S   S154      1.0  0.55538  0.95352  0.36566  1.0000
  H   H1244     1.0  0.68043  0.70406  0.20971  1.0000
  Fe  Fe76      1.0  0.76830  0.67255  0.13049  1.0000
  S   S155      1.0  0.78511  0.70385  0.11590  1.0000
  Fe  Fe77      1.0  0.67628  0.68333  0.13034  1.0000
  S   S156      1.0  0.68893  0.71477  0.11619  1.0000
  H   H1245     1.0  0.83723  0.90245  0.38092  1.0000
  Fe  Fe78      1.0  0.73301  0.70112  0.08536  1.0000
  S   S157      1.0  0.72508  0.70794  0.03791  1.0000
  Fe  Fe79      1.0  0.73951  0.71440  0.14816  1.0000
  S   S158      1.0  0.74758  0.74109  0.17823  1.0000
  S   S159      1.0  0.71835  0.66918  0.09819  1.0000
  S   S160      1.0  0.72482  0.68360  0.16400  1.0000
  Fe  Fe80      1.0  0.76221  0.80616  0.35914  1.0000
  S   S161      1.0  0.74174  0.77555  0.37421  1.0000
  S   S162      1.0  0.71902  0.83020  0.34161  1.0000
  Fe  Fe81      1.0  0.85290  0.79321  0.35817  1.0000
  S   S163      1.0  0.83735  0.76211  0.37287  1.0000
  S   S164      1.0  0.91553  0.80384  0.34311  1.0000
  Fe  Fe82      1.0  0.78561  0.76332  0.34188  1.0000
  S   S165      1.0  0.77410  0.73653  0.31253  1.0000
  Fe  Fe83      1.0  0.79517  0.77701  0.40394  1.0000
  S   S166      1.0  0.80237  0.76887  0.45103  1.0000
  S   S167      1.0  0.80328  0.79349  0.32537  1.0000
  S   S168      1.0  0.81335  0.80852  0.39064  1.0000
  C   C706      1.0  0.96563  0.79711  0.35350  1.0000
  H   H1246     1.0  0.55214  0.79919  0.37545  1.0000
  C   C707      1.0  0.61869  0.73349  0.17399  1.0000
  H   H1247     1.0  0.94885  0.77773  0.38813  1.0000
  C   C708      1.0  0.82516  0.89549  0.40067  1.0000
  C   C709      1.0  0.56263  0.68199  0.13363  1.0000
  C   C710      1.0  0.95759  0.75556  0.23442  1.0000
  C   C711      1.0  0.55607  0.70201  0.12576  1.0000
  H   H1248     1.0  0.57042  0.70277  0.18681  1.0000
  H   H1249     1.0  0.58143  0.71200  0.12317  1.0000
  C   C712      1.0  0.75384  0.72331  0.01447  1.0000
  H   H1250     1.0  0.59932  0.72837  0.01727  1.0000
  H   H1251     1.0  0.77069  0.88768  0.43750  1.0000
  C   C713      1.0  0.77069  0.75548  0.47502  1.0000
  C   C714      1.0  0.73176  0.74937  0.46768  1.0000
  H   H1252     1.0  0.88945  0.72284  0.19238  1.0000
  H   H1253     1.0  0.80121  0.73014  0.04411  1.0000
  C   C715      1.0  0.85970  0.73038  0.19256  1.0000
  H   H1254     1.0  0.72023  0.75266  0.44669  1.0000
  H   H1255     1.0  0.77216  0.86431  0.47882  1.0000
  C   C716      1.0  0.75335  0.73933  0.21568  1.0000
  C   C717      1.0  0.75967  0.72094  0.22935  1.0000
  C   C718      1.0  0.76556  0.72032  0.25904  1.0000
  C   C719      1.0  0.76517  0.73803  0.27539  1.0000
  C   C720      1.0  0.75796  0.75636  0.26180  1.0000
  C   C721      1.0  0.75227  0.75699  0.23211  1.0000
  H   H1256     1.0  0.76074  0.70722  0.21701  1.0000
  H   H1257     1.0  0.77095  0.70604  0.26936  1.0000
  H   H1258     1.0  0.75695  0.77007  0.27417  1.0000
  H   H1259     1.0  0.74721  0.77129  0.22176  1.0000
  C   C722      1.0  0.63760  0.88058  0.37725  1.0000
  C   C723      1.0  0.64030  0.87702  0.34800  1.0000
  C   C724      1.0  0.66468  0.86129  0.33759  1.0000
  C   C725      1.0  0.68640  0.84879  0.35621  1.0000
  C   C726      1.0  0.68224  0.85176  0.38550  1.0000
  C   C727      1.0  0.65836  0.86770  0.39590  1.0000
  H   H1260     1.0  0.62505  0.88694  0.33335  1.0000
  H   H1261     1.0  0.66746  0.85910  0.31488  1.0000
  H   H1262     1.0  0.69813  0.84207  0.40012  1.0000
  H   H1263     1.0  0.65642  0.87027  0.41859  1.0000
  H   H1264     1.0  0.99291  0.81535  0.32086  1.0000
  H   H1265     1.0  0.96205  0.67558  0.07740  1.0000
  C   C728      1.0  0.83916  0.81966  0.25637  1.0000
  C   C729      1.0  0.68256  0.68964  0.46286  1.0000
  H   H1266     1.0  0.57052  0.84302  0.32506  1.0000
  H   H1267     1.0  0.88713  0.91394  0.43088  1.0000
  H   H1268     1.0  0.83730  0.72035  0.20285  1.0000
  H   H1269     1.0  0.56832  0.86162  0.41990  1.0000
  C   C730      1.0  0.60597  0.68365  0.05387  1.0000
  C   C731      1.0  0.97362  0.78416  0.37627  1.0000
  H   H1270     1.0  0.93469  0.72912  0.33574  1.0000
  H   H1271     1.0  0.84781  0.83420  0.26623  1.0000
  C   C732      1.0  0.94175  0.66244  0.07965  1.0000
  H   H1272     1.0  0.58815  0.84188  0.38036  1.0000
  C   C733      1.0  0.76205  0.85245  0.46378  1.0000
  H   H1273     1.0  0.73979  0.67492  0.46216  1.0000
  H   H1274     1.0  0.53181  0.96469  0.47534  1.0000
  S   S169      1.0  0.50859  0.92270  0.40886  1.0000
  H   H1275     1.0  0.85075  0.85236  0.31282  1.0000
  H   H1276     1.0  0.54286  0.88680  0.45393  1.0000
  H   H1277     1.0  0.94726  0.74964  0.21359  1.0000
  H   H1278     1.0  0.50069  0.81699  0.35062  1.0000
  H   H1279     1.0  0.50629  0.71814  0.20274  1.0000
  H   H1280     1.0  0.80869  0.81548  0.26413  1.0000
  H   H1281     1.0  0.75857  0.92192  0.40235  1.0000
  H   H1282     1.0  0.50853  0.87270  0.30096  1.0000
  H   H1283     1.0  0.61908  0.74873  0.13329  1.0000
  H   H1284     1.0  0.88176  0.73450  0.33285  1.0000
  H   H1285     1.0  0.63737  0.81544  0.36494  1.0000
  N   N38       1.0  0.88781  0.76591  0.25560  1.0000
  C   C734      1.0  0.87154  0.74764  0.24031  1.0000
  C   C735      1.0  0.88862  0.76154  0.28713  1.0000
  C   C736      1.0  0.85842  0.78293  0.25106  1.0000
  C   C737      1.0  0.92879  0.77235  0.24501  1.0000
  H   H1286     1.0  0.89868  0.67915  0.10569  1.0000
  H   H1287     1.0  0.63245  0.75753  0.04520  1.0000
  C   C738      1.0  0.86977  0.80354  0.26452  1.0000
  C   C739      1.0  0.91799  0.74500  0.29722  1.0000
  C   C740      1.0  0.91244  0.74053  0.32882  1.0000
  H   H1288     1.0  0.88521  0.75997  0.19754  1.0000
  C   C741      1.0  0.52810  0.85701  0.35456  1.0000
  C   C742      1.0  0.56129  0.70093  0.20919  1.0000
  H   H1289     1.0  0.84305  0.74252  0.25050  1.0000
  H   H1290     1.0  0.89205  0.73465  0.24250  1.0000
  H   H1291     1.0  0.89758  0.77507  0.29933  1.0000
  H   H1292     1.0  0.85778  0.75754  0.29472  1.0000
  H   H1293     1.0  0.82813  0.77863  0.25914  1.0000
  H   H1294     1.0  0.63884  0.68656  0.05648  1.0000
  C   C743      1.0  0.64825  0.74767  0.29674  1.0000
  H   H1295     1.0  0.94461  0.78113  0.26190  1.0000
  H   H1296     1.0  0.53896  0.88080  0.40277  1.0000
  H   H1297     1.0  0.90782  0.90406  0.39806  1.0000
  H   H1298     1.0  0.63997  0.76272  0.30507  1.0000
  C   C744      1.0  0.52240  0.97969  0.48114  1.0000
  H   H1299     1.0  0.89980  0.80872  0.25727  1.0000
  H   H1300     1.0  0.87016  0.80284  0.28800  1.0000
  H   H1301     1.0  0.91340  0.73069  0.28564  1.0000
  H   H1302     1.0  0.92577  0.78293  0.22676  1.0000
  C   C745      1.0  0.89946  0.67052  0.08546  1.0000
  H   H1303     1.0  0.61979  0.68137  0.24761  1.0000
  H   H1304     1.0  0.67027  0.74127  0.06046  1.0000
  H   H1305     1.0  0.50444  0.70072  0.23242  1.0000
  H   H1306     1.0  0.62153  0.75035  0.21218  1.0000
  H   H1307     1.0  0.63570  0.69510  0.19439  1.0000
  H   H1308     1.0  0.66619  0.67620  0.45490  1.0000
  H   H1309     1.0  0.56461  0.82724  0.40699  1.0000
  H   H1310     1.0  0.57618  0.71071  0.25138  1.0000
  C   C746      1.0  0.51650  0.70927  0.12183  1.0000
  Fe  Fe84      1.0  0.50905  0.94508  0.33240  1.0000
  C   C747      1.0  0.64879  0.68270  0.23613  1.0000
  C   C748      1.0  0.86222  0.75050  0.20818  1.0000
  H   H1311     1.0  0.63702  0.75522  0.08324  1.0000
  H   H1312     1.0  0.68152  0.74621  0.29781  1.0000
  H   H1313     1.0  0.94950  0.75023  0.29449  1.0000
  H   H1314     1.0  0.82251  0.85412  0.38863  1.0000
  C   C749      1.0  0.71243  0.92360  0.37072  1.0000
  H   H1315     1.0  0.73583  0.87371  0.41718  1.0000
  H   H1316     1.0  0.73698  0.88405  0.36690  1.0000
  H   H1317     1.0  0.71662  0.90531  0.40796  1.0000
  H   H1318     1.0  0.69122  0.91371  0.35895  1.0000
  H   H1319     1.0  0.69447  0.93496  0.38246  1.0000
  H   H1320     1.0  0.73211  0.93151  0.35526  1.0000
  H   H1321     1.0  0.55235  0.86777  0.36056  1.0000
  C   C750      1.0  0.76035  0.89415  0.37620  1.0000
  C   C751      1.0  0.50845  0.85166  0.40408  1.0000
  H   H1322     1.0  0.91722  0.75437  0.34166  1.0000
  C   C752      1.0  0.79010  0.73230  0.02271  1.0000
  C   C753      1.0  0.60898  0.72946  0.06273  1.0000
  C   C754      1.0  0.58263  0.71612  0.22944  1.0000
  C   C755      1.0  0.73759  0.91138  0.39170  1.0000
  C   C756      1.0  0.63523  0.73614  0.20449  1.0000
  C   C757      1.0  0.83530  0.84885  0.33314  1.0000
  S   S170      1.0  0.61197  0.67211  0.14008  1.0000
  H   H1323     1.0  0.59153  0.97555  0.15881  1.0000
  C   C758      1.0  0.80182  0.86401  0.37664  1.0000
  C   C759      1.0  0.52886  0.66942  0.13736  1.0000
  H   H1324     1.0  0.50154  0.84032  0.42085  1.0000
  C   C760      1.0  0.82254  0.86835  0.34772  1.0000
  H   H1325     1.0  0.77089  0.83758  0.47252  1.0000
  C   C761      1.0  0.64845  0.70053  0.21479  1.0000
  N   N39       1.0  0.52286  0.84129  0.37737  1.0000
  C   C762      1.0  0.76854  0.87567  0.42104  1.0000
  H   H1326     1.0  0.77140  0.84273  0.42097  1.0000
  H   H1327     1.0  0.50144  0.69161  0.19634  1.0000
  H   H1328     1.0  0.80175  0.87617  0.33298  1.0000
  C   C763      1.0  0.78149  0.85541  0.43464  1.0000
  H   H1329     1.0  0.77488  0.85454  0.37226  1.0000
  H   H1330     1.0  0.61647  0.71936  0.08064  1.0000
  H   H1331     1.0  0.53202  0.71426  0.02571  1.0000
  H   H1332     1.0  0.83269  0.75807  0.20564  1.0000
  H   H1333     1.0  0.77596  0.90117  0.35778  1.0000
  H   H1334     1.0  0.83819  0.82169  0.23293  1.0000
  C   C764      1.0  0.53954  0.84918  0.32466  1.0000
  H   H1335     1.0  0.72872  0.85282  0.46198  1.0000
  H   H1336     1.0  0.68965  0.69956  0.44453  1.0000
  H   H1337     1.0  0.92068  0.89271  0.43159  1.0000
  H   H1338     1.0  0.85000  0.73292  0.17023  1.0000
  N   N40       1.0  0.78966  0.88213  0.39397  1.0000
  H   H1339     1.0  0.87151  0.87192  0.40590  1.0000
  H   H1340     1.0  0.80857  0.83938  0.32841  1.0000
  H   H1341     1.0  0.51618  0.67570  0.02062  1.0000
  H   H1342     1.0  0.54204  0.70896  0.06211  1.0000
  H   H1343     1.0  0.56081  0.87812  0.30876  1.0000
  H   H1344     1.0  0.63993  0.71339  0.26965  1.0000
  H   H1345     1.0  0.66284  0.69805  0.47776  1.0000
  C   C765      1.0  0.72153  0.68348  0.47771  1.0000
  H   H1346     1.0  0.58533  0.73353  0.17427  1.0000
  C   C766      1.0  0.51489  0.68451  0.04057  1.0000
  H   H1347     1.0  0.81562  0.90841  0.41402  1.0000
  H   H1348     1.0  0.62037  0.76545  0.16344  1.0000
  C   C767      1.0  0.63165  0.75094  0.15494  1.0000
  H   H1349     1.0  0.95924  0.74267  0.24916  1.0000
  H   H1350     1.0  0.59315  0.68619  0.07543  1.0000
  H   H1351     1.0  0.81445  0.85422  0.43727  1.0000
  H   H1352     1.0  0.84998  0.87763  0.35064  1.0000
  H   H1353     1.0  0.64267  0.71545  0.02946  1.0000
  H   H1354     1.0  0.62959  0.71944  0.16406  1.0000
  H   H1355     1.0  0.66816  0.73905  0.20301  1.0000
  H   H1356     1.0  0.85646  0.84026  0.34677  1.0000
  H   H1357     1.0  0.87741  0.65796  0.08687  1.0000
  H   H1358     1.0  0.73774  0.69752  0.48330  1.0000
  H   H1359     1.0  0.85096  0.88169  0.43877  1.0000
  H   H1360     1.0  0.56897  0.81290  0.34475  1.0000
  C   C768      1.0  0.89609  0.90004  0.41944  1.0000
  H   H1361     1.0  0.63433  0.73604  0.31057  1.0000
  C   C769      1.0  0.56273  0.83123  0.38400  1.0000
  C   C770      1.0  0.86046  0.88558  0.41685  1.0000
  C   C771      1.0  0.63359  0.74547  0.26606  1.0000
  H   H1362     1.0  0.89002  0.68061  0.06790  1.0000
  H   H1363     1.0  0.52170  0.86237  0.46139  1.0000
  H   H1364     1.0  0.62099  0.78974  0.36351  1.0000
  C   C772      1.0  0.70746  0.73926  0.48773  1.0000
  H   H1365     1.0  0.64730  0.75802  0.25382  1.0000
  H   H1366     1.0  0.67983  0.72540  0.25115  1.0000
  H   H1367     1.0  0.52185  0.67459  0.05892  1.0000
  H   H1368     1.0  0.56670  0.73079  0.22785  1.0000
  H   H1369     1.0  0.62103  0.80290  0.39706  1.0000
  S   S171      1.0  0.51529  0.91154  0.34077  1.0000
  C   C773      1.0  0.61558  0.80450  0.37386  1.0000
  C   C774      1.0  0.64645  0.72498  0.25322  1.0000
  C   C775      1.0  0.54429  0.70259  0.04033  1.0000
  C   C776      1.0  0.63901  0.74692  0.06282  1.0000
  C   C777      1.0  0.57253  0.81137  0.36804  1.0000
  H   H1370     1.0  0.56875  0.68526  0.21525  1.0000
  N   N41       1.0  0.58759  0.69822  0.03287  1.0000
  H   H1371     1.0  0.67282  0.68513  0.25223  1.0000
  H   H1372     1.0  0.57873  0.73599  0.06641  1.0000
  H   H1373     1.0  0.60040  0.74714  0.26586  1.0000
  N   N42       1.0  0.62735  0.71921  0.22515  1.0000
  C   C778      1.0  0.61031  0.71793  0.03409  1.0000
  H   H1374     1.0  0.67722  0.73488  0.48192  1.0000
  H   H1375     1.0  0.51196  0.72482  0.11597  1.0000
  H   H1376     1.0  0.51831  0.83752  0.31703  1.0000
  C   C779      1.0  0.52236  0.87489  0.44581  1.0000
  C   C780      1.0  0.51558  0.70305  0.21041  1.0000
  H   H1377     1.0  0.95844  0.65907  0.12326  1.0000
  H   H1378     1.0  0.50065  0.86649  0.35281  1.0000
  H   H1379     1.0  0.68754  0.66272  0.21173  1.0000
  H   H1380     1.0  0.84018  0.75089  0.00972  1.0000
  C   C781      1.0  0.65711  0.66266  0.22139  1.0000
  H   H1381     1.0  0.63433  0.65964  0.20460  1.0000
  C   C782      1.0  0.53912  0.86612  0.30275  1.0000
  H   H1382     1.0  0.78913  0.65902  0.48495  1.0000
  C   C783      1.0  0.53745  0.86754  0.41695  1.0000
  H   H1383     1.0  0.54797  0.86016  0.28160  1.0000
  C   C784      1.0  0.81216  0.74404  0.00313  1.0000
  H   H1384     1.0  0.94037  0.65410  0.05928  1.0000
  C   C785      1.0  0.60204  0.66088  0.04676  1.0000
  Fe  Fe85      1.0  0.50328  0.95524  0.39676  1.0000
  S   S172      1.0  0.50286  0.95570  0.28544  1.0000
  C   C786      1.0  0.58972  0.69084  0.00253  1.0000
  C   C787      1.0  0.51093  0.97635  0.26132  1.0000
  H   H1385     1.0  0.57186  0.65675  0.03882  1.0000
  H   H1386     1.0  0.62411  0.65670  0.03009  1.0000
  H   H1387     1.0  0.57442  0.67616  0.99995  1.0000
  H   H1388     1.0  0.65432  0.68281  0.00588  1.0000
  H   H1389     1.0  0.99343  0.77280  0.47084  1.0000
  H   H1390     1.0  0.53331  0.65392  0.14356  1.0000
  H   H1391     1.0  0.69238  0.65839  0.49771  1.0000
  Fe  Fe86      1.0  0.55408  0.91911  0.85740  1.0000
  S   S173      1.0  0.59836  0.89648  0.83709  1.0000
  H   H1392     1.0  0.62843  0.82084  0.86926  1.0000
  H   H1393     1.0  0.95630  0.75130  0.78507  1.0000
  S   S174      1.0  0.56029  0.95304  0.85968  1.0000
  H   H1394     1.0  0.90672  0.79217  0.93807  1.0000
  Fe  Fe87      1.0  0.72363  0.67675  0.62347  1.0000
  S   S175      1.0  0.75478  0.70524  0.61036  1.0000
  Fe  Fe88      1.0  0.64187  0.69901  0.63418  1.0000
  S   S176      1.0  0.66939  0.72888  0.62237  1.0000
  S   S177      1.0  0.57760  0.69778  0.65277  1.0000
  Fe  Fe89      1.0  0.69831  0.71232  0.58580  1.0000
  S   S178      1.0  0.69006  0.72157  0.53919  1.0000
  Fe  Fe90      1.0  0.72321  0.71916  0.64823  1.0000
  S   S179      1.0  0.76003  0.73945  0.67787  1.0000
  S   S180      1.0  0.66836  0.68275  0.59665  1.0000
  S   S181      1.0  0.69445  0.69040  0.66231  1.0000
  Fe  Fe91      1.0  0.77710  0.80819  0.87224  1.0000
  S   S182      1.0  0.75705  0.77666  0.88273  1.0000
  S   S183      1.0  0.73010  0.83295  0.88184  1.0000
  Fe  Fe92      1.0  0.86466  0.79334  0.85890  1.0000
  S   S184      1.0  0.84823  0.76115  0.86813  1.0000
  S   S185      1.0  0.92801  0.80030  0.84097  1.0000
  Fe  Fe93      1.0  0.79146  0.76741  0.84339  1.0000
  S   S186      1.0  0.76038  0.74488  0.81368  1.0000
  Fe  Fe94      1.0  0.81523  0.77331  0.90639  1.0000
  S   S187      1.0  0.82784  0.76169  0.95139  1.0000
  S   S188      1.0  0.80902  0.79900  0.83179  1.0000
  S   S189      1.0  0.83431  0.80536  0.89827  1.0000
  C   C788      1.0  0.97773  0.79987  0.85570  1.0000
  H   H1395     1.0  0.51134  0.72888  0.75464  1.0000
  H   H1396     1.0  0.60634  0.84343  0.75507  1.0000
  H   H1397     1.0  0.95966  0.79517  0.89889  1.0000
  C   C789      1.0  0.57629  0.93663  0.77864  1.0000
  C   C790      1.0  0.52895  0.69522  0.63672  1.0000
  H   H1398     1.0  0.76523  0.68714  0.75444  1.0000
  H   H1399     1.0  0.63000  0.77666  0.84231  1.0000
  H   H1400     1.0  0.62465  0.65997  0.96922  1.0000
  H   H1401     1.0  0.61304  0.68152  0.94711  1.0000
  C   C791      1.0  0.72181  0.73492  0.51523  1.0000
  C   C792      1.0  0.76084  0.74087  0.52251  1.0000
  H   H1402     1.0  0.52741  0.98278  0.67392  1.0000
  C   C793      1.0  0.79810  0.74713  0.97522  1.0000
  C   C794      1.0  0.76179  0.73820  0.96701  1.0000
  H   H1403     1.0  0.62878  0.85185  0.72220  1.0000
  H   H1404     1.0  0.77225  0.73776  0.54358  1.0000
  H   H1405     1.0  0.62550  0.95791  0.78522  1.0000
  H   H1406     1.0  0.75068  0.74036  0.94561  1.0000
  H   H1407     1.0  0.59659  0.80521  0.89088  1.0000
  C   C795      1.0  0.76031  0.74024  0.71566  1.0000
  C   C796      1.0  0.73337  0.72898  0.73208  1.0000
  C   C797      1.0  0.73398  0.73056  0.76201  1.0000
  C   C798      1.0  0.76154  0.74332  0.77592  1.0000
  C   C799      1.0  0.78877  0.75442  0.75952  1.0000
  C   C800      1.0  0.78805  0.75290  0.72958  1.0000
  H   H1408     1.0  0.71177  0.71923  0.72172  1.0000
  H   H1409     1.0  0.71284  0.72188  0.77449  1.0000
  H   H1410     1.0  0.81032  0.76419  0.76988  1.0000
  H   H1411     1.0  0.80902  0.76168  0.71709  1.0000
  C   C801      1.0  0.63461  0.87882  0.85019  1.0000
  C   C802      1.0  0.64184  0.87594  0.87924  1.0000
  C   C803      1.0  0.67100  0.86188  0.88840  1.0000
  C   C804      1.0  0.69351  0.85045  0.86880  1.0000
  C   C805      1.0  0.68599  0.85319  0.83975  1.0000
  C   C806      1.0  0.65675  0.86721  0.83057  1.0000
  H   H1412     1.0  0.62530  0.88469  0.89469  1.0000
  H   H1413     1.0  0.67646  0.85997  0.91092  1.0000
  H   H1414     1.0  0.70331  0.84478  0.82441  1.0000
  H   H1415     1.0  0.65168  0.86933  0.80807  1.0000
  C   C807      1.0  0.86808  0.69760  0.92465  1.0000
  H   H1416     1.0  0.51557  0.81961  0.86921  1.0000
  C   C808      1.0  0.52383  0.69097  0.60779  1.0000
  H   H1417     1.0  0.96752  0.77165  0.97786  1.0000
  H   H1418     1.0  0.93751  0.75898  0.89136  1.0000
  C   C809      1.0  0.52747  0.82878  0.88716  1.0000
  C   C810      1.0  0.54400  0.89660  0.73958  1.0000
  H   H1419     1.0  0.85448  0.67538  0.74715  1.0000
  H   H1420     1.0  0.83913  0.69354  0.79278  1.0000
  H   H1421     1.0  0.87004  0.72407  0.95032  1.0000
  H   H1422     1.0  0.73032  0.66234  0.56487  1.0000
  H   H1423     1.0  0.56487  0.97300  0.65008  1.0000
  C   C811      1.0  0.80739  0.67685  0.55152  1.0000
  C   C812      1.0  0.63285  0.68897  0.99007  1.0000
  H   H1424     1.0  0.64399  0.70406  0.98366  1.0000
  C   C813      1.0  0.49754  0.93494  0.75366  1.0000
  C   C814      1.0  0.73993  0.72630  0.98650  1.0000
  H   H1425     1.0  0.90825  0.75590  0.93299  1.0000
  N   N43       1.0  0.81578  0.66965  0.71111  1.0000
  H   H1426     1.0  0.78746  0.68835  0.51109  1.0000
  C   C815      1.0  0.95223  0.77268  0.95692  1.0000
  H   H1427     1.0  0.97040  0.67424  0.53089  1.0000
  H   H1428     1.0  0.55521  0.94570  0.79174  1.0000
  H   H1429     1.0  0.83034  0.71890  0.65550  1.0000
  C   C816      1.0  0.83146  0.68817  0.69618  1.0000
  H   H1430     1.0  0.93049  0.73253  0.88381  1.0000
  H   H1431     1.0  0.51311  0.87433  0.71333  1.0000
  H   H1432     1.0  0.75547  0.68178  0.70766  1.0000
  C   C817      1.0  0.52536  0.98446  0.96980  1.0000
  C   C818      1.0  0.98494  0.79666  0.88464  1.0000
  H   H1433     1.0  0.58081  0.96247  0.69839  1.0000
  H   H1434     1.0  0.88160  0.72810  0.91355  1.0000
  Fe  Fe95      1.0  0.50006  0.95473  0.83792  1.0000
  C   C819      1.0  0.88681  0.71798  0.93182  1.0000
  H   H1435     1.0  0.58505  0.80893  0.85352  1.0000
  H   H1436     1.0  0.79845  0.67591  0.79936  1.0000
  C   C820      1.0  0.61891  0.94170  0.78853  1.0000
  H   H1437     1.0  0.57300  0.95839  0.74583  1.0000
  H   H1438     1.0  0.57411  0.89790  0.74960  1.0000
  H   H1439     1.0  0.81502  0.75589  0.50849  1.0000
  C   C821      1.0  0.53979  0.96878  0.66452  1.0000
  H   H1440     1.0  0.86145  0.69260  0.70467  1.0000
  H   H1441     1.0  0.57396  0.84525  0.86249  1.0000
  H   H1442     1.0  0.52892  0.86996  0.86968  1.0000
  N   N44       1.0  0.53174  0.93483  0.73257  1.0000
  H   H1443     1.0  0.56676  0.94103  0.67724  1.0000
  H   H1444     1.0  0.64874  0.77857  0.69130  1.0000
  H   H1445     1.0  0.64131  0.93248  0.77688  1.0000
  C   C822      1.0  0.55524  0.95474  0.68780  1.0000
  H   H1446     1.0  0.57064  0.92059  0.78333  1.0000
  N   N45       1.0  0.95683  0.73512  0.94173  1.0000
  H   H1447     1.0  0.84933  0.69950  0.53570  1.0000
  C   C823      1.0  0.63363  0.67557  0.96368  1.0000
  H   H1448     1.0  0.89973  0.78729  0.97553  1.0000
  H   H1449     1.0  0.68962  0.66439  0.71728  1.0000
  C   C824      1.0  0.97881  0.74632  0.86134  1.0000
  H   H1450     1.0  0.62187  0.93834  0.81158  1.0000
  C   C825      1.0  0.64908  0.76571  0.70634  1.0000
  C   C826      1.0  0.79810  0.68934  0.75700  1.0000
  H   H1451     1.0  0.55000  0.68921  0.59436  1.0000
  S   S190      1.0  0.54477  0.97236  0.93834  1.0000
  H   H1452     1.0  0.52072  0.89576  0.75639  1.0000
  C   C827      1.0  0.59678  0.81620  0.87310  1.0000
  C   C828      1.0  0.95300  0.74441  0.88813  1.0000
  H   H1453     1.0  0.67540  0.75604  0.70147  1.0000
  H   H1454     1.0  0.51600  0.96126  0.65178  1.0000
  H   H1455     1.0  0.57278  0.70119  0.98826  1.0000
  C   C829      1.0  0.51394  0.85605  0.92071  1.0000
  H   H1456     1.0  0.94614  0.70520  0.92452  1.0000
  H   H1457     1.0  0.66637  0.78507  0.86820  1.0000
  C   C830      1.0  0.57178  0.83466  0.88063  1.0000
  H   H1458     1.0  0.65463  0.85605  0.75536  1.0000
  H   H1459     1.0  0.51087  0.91081  0.70520  1.0000
  H   H1460     1.0  0.50020  0.74019  0.52523  1.0000
  H   H1461     1.0  0.51342  0.71980  0.54861  1.0000
  C   C831      1.0  0.63518  0.84535  0.74346  1.0000
  C   C832      1.0  0.85080  0.70622  0.65054  1.0000
  H   H1462     1.0  0.80514  0.68347  0.65368  1.0000
  C   C833      1.0  0.83369  0.69549  0.55580  1.0000
  C   C834      1.0  0.97903  0.73895  0.91424  1.0000
  H   H1463     1.0  0.85599  0.67464  0.65700  1.0000
  H   H1464     1.0  0.56332  0.91454  0.70445  1.0000
  C   C835      1.0  0.92250  0.79012  0.95869  1.0000
  H   H1465     1.0  0.59700  0.93607  0.73468  1.0000
  H   H1466     1.0  0.67738  0.76352  0.84634  1.0000
  C   C836      1.0  0.80681  0.69029  0.78889  1.0000
  C   C837      1.0  0.57043  0.94173  0.74666  1.0000
  H   H1467     1.0  0.81161  0.70129  0.70061  1.0000
  H   H1468     1.0  0.99174  0.73154  0.85539  1.0000
  C   C838      1.0  0.71253  0.67075  0.50460  1.0000
  C   C839      1.0  0.77170  0.66737  0.70413  1.0000
  S   S191      1.0  0.49554  0.92102  0.83295  1.0000
  H   H1469     1.0  0.52118  0.87794  0.81744  1.0000
  H   H1470     1.0  0.50661  0.73626  0.79135  1.0000
  H   H1471     1.0  0.58602  0.84184  0.89943  1.0000
  H   H1472     1.0  0.88128  0.70970  0.65889  1.0000
  H   H1473     1.0  0.51149  0.96426  0.71899  1.0000
  H   H1474     1.0  0.97863  0.77345  0.80015  1.0000
  H   H1475     1.0  0.87123  0.68707  0.94283  1.0000
  H   H1476     1.0  0.49775  0.70004  0.67631  1.0000
  H   H1477     1.0  0.88252  0.69105  0.90549  1.0000
  H   H1478     1.0  0.76779  0.66411  0.68112  1.0000
  N   N46       1.0  0.69118  0.79707  0.77014  1.0000
  C   C840      1.0  0.69045  0.78478  0.74311  1.0000
  C   C841      1.0  0.73390  0.80363  0.77610  1.0000
  C   C842      1.0  0.67837  0.78347  0.79426  1.0000
  C   C843      1.0  0.66322  0.81496  0.76930  1.0000
  C   C844      1.0  0.65637  0.82513  0.74000  1.0000
  C   C845      1.0  0.65085  0.77316  0.73709  1.0000
  C   C846      1.0  0.68208  0.79238  0.82467  1.0000
  C   C847      1.0  0.75522  0.81621  0.75287  1.0000
  C   C848      1.0  0.79941  0.81976  0.76039  1.0000
  H   H1479     1.0  0.71207  0.71937  0.97982  1.0000
  H   H1480     1.0  0.56683  0.87612  0.70714  1.0000
  C   C849      1.0  0.66263  0.77850  0.84663  1.0000
  H   H1481     1.0  0.71487  0.77340  0.74357  1.0000
  H   H1482     1.0  0.69731  0.79411  0.72421  1.0000
  H   H1483     1.0  0.73533  0.81304  0.79564  1.0000
  H   H1484     1.0  0.75287  0.79018  0.78050  1.0000
  H   H1485     1.0  0.69597  0.76926  0.79383  1.0000
  H   H1486     1.0  0.64638  0.77888  0.79167  1.0000
  H   H1487     1.0  0.63267  0.81076  0.77708  1.0000
  H   H1488     1.0  0.67377  0.82670  0.78448  1.0000
  H   H1489     1.0  0.63707  0.81546  0.72640  1.0000
  H   H1490     1.0  0.68470  0.82781  0.72831  1.0000
  H   H1491     1.0  0.64906  0.75970  0.75106  1.0000
  H   H1492     1.0  0.62412  0.78266  0.74123  1.0000
  H   H1493     1.0  0.66747  0.80731  0.82612  1.0000
  H   H1494     1.0  0.71415  0.79403  0.83078  1.0000
  H   H1495     1.0  0.75466  0.80864  0.73188  1.0000
  H   H1496     1.0  0.74103  0.83123  0.75125  1.0000
  H   H1497     1.0  0.81408  0.82876  0.74341  1.0000
  H   H1498     1.0  0.80207  0.82817  0.78073  1.0000
  H   H1499     1.0  0.81562  0.80523  0.76230  1.0000
  H   H1500     1.0  0.62133  0.75668  0.70300  1.0000
  H   H1501     1.0  0.54608  0.97776  0.52394  1.0000
  H   H1502     1.0  0.50080  0.75481  0.76374  1.0000
  H   H1503     1.0  0.53171  0.88900  0.95537  1.0000
  H   H1504     1.0  0.93162  0.70792  0.96053  1.0000
  H   H1505     1.0  0.80641  0.70412  0.74779  1.0000
  S   S192      1.0  0.52397  0.91737  0.90021  1.0000
  C   C850      1.0  0.98768  0.73240  0.96501  1.0000
  C   C851      1.0  0.78503  0.75114  0.50254  1.0000
  C   C852      1.0  0.93045  0.75264  0.94994  1.0000
  H   H1506     1.0  0.51640  0.84220  0.83327  1.0000
  C   C853      1.0  0.82224  0.67217  0.74265  1.0000
  H   H1507     1.0  0.85668  0.69243  0.57237  1.0000
  H   H1508     1.0  0.75341  0.69251  0.53959  1.0000
  Fe  Fe96      1.0  0.52494  0.95145  0.90113  1.0000
  H   H1509     1.0  0.85264  0.70471  0.62706  1.0000
  H   H1510     1.0  0.54268  0.86424  0.91682  1.0000
  H   H1511     1.0  0.97560  0.77066  0.76198  1.0000
  C   C854      1.0  0.77324  0.68094  0.52978  1.0000
  H   H1512     1.0  0.91223  0.74873  0.96909  1.0000
  H   H1513     1.0  0.83550  0.69959  0.92019  1.0000
  C   C855      1.0  0.93207  0.71594  0.93970  1.0000
  N   N47       1.0  0.49969  0.84606  0.89366  1.0000
  H   H1514     1.0  0.81522  0.70847  0.56277  1.0000
  H   H1515     1.0  0.81566  0.65789  0.75410  1.0000
  H   H1516     1.0  0.97219  0.73106  0.98599  1.0000
  C   C856      1.0  0.83487  0.68667  0.66336  1.0000
  H   H1517     1.0  0.50653  0.71499  0.51122  1.0000
  H   H1518     1.0  0.52866  0.81827  0.90552  1.0000
  H   H1519     1.0  0.78882  0.70250  0.79870  1.0000
  H   H1520     1.0  0.83282  0.66259  0.61015  1.0000
  C   C857      1.0  0.52129  0.94970  0.70940  1.0000
  H   H1521     1.0  0.66463  0.67522  0.95487  1.0000
  H   H1522     1.0  0.97490  0.77641  0.94060  1.0000
  H   H1523     1.0  0.50908  0.86959  0.97722  1.0000
  H   H1524     1.0  0.69382  0.68014  0.51911  1.0000
  C   C858      1.0  0.98066  0.76259  0.78233  1.0000
  H   H1525     1.0  0.89761  0.66456  0.69415  1.0000
  C   C859      1.0  0.50316  0.88113  0.96070  1.0000
  C   C860      1.0  0.53704  0.91445  0.71905  1.0000
  H   H1526     1.0  0.93879  0.80426  0.96381  1.0000
  C   C861      1.0  0.54289  0.87660  0.72360  1.0000
  N   N48       1.0  0.74863  0.66291  0.52060  1.0000
  C   C862      1.0  0.50007  0.86139  0.86995  1.0000
  H   H1527     1.0  0.54783  0.86409  0.73881  1.0000
  H   H1528     1.0  0.95978  0.75175  0.84353  1.0000
  H   H1529     1.0  0.82734  0.66445  0.54472  1.0000
  H   H1530     1.0  0.52122  0.84464  0.93723  1.0000
  H   H1531     1.0  0.50370  0.92499  0.77195  1.0000
  H   H1532     1.0  0.98612  0.69390  0.55519  1.0000
  H   H1533     1.0  0.79428  0.67284  0.57242  1.0000
  H   H1534     1.0  0.49531  0.94421  0.69664  1.0000
  C   C863      1.0  0.49489  0.73889  0.76955  1.0000
  C   C864      1.0  0.49547  0.72394  0.52955  1.0000
  H   H1535     1.0  0.56002  0.98559  0.78207  1.0000
  H   H1536     1.0  0.49469  0.95017  0.76296  1.0000
