data_image0
_chemical_formula_structural       SCFeSFeCSNHC2H2CH2CH2CH3NCHC5H2C2H3CH12CH9CH2CH2C3HCH5CH2CFeC4H5CH3C3HCH2C2H3C5H2CH11C2HCH2CH2NH2CH3CH2C2H2CH3SH3C2HCH6SHCH2CHCHFeS2FeHFeCFeS3FeS2FeSCFeSFeS3HFeS2FeS2HC2H3C2H2C6H4CH6C10H7C6H4NC5H6CH10SHCH4CH7SH3C5H2CH5NCHNC4H10SH6CH5CH2CHNC12H25C2H4CHC4H2CH5CHCHC2H5S2CHCHCH2CSH2CHCH4C2FeS2FeSCFeHFeS3FeS2FeS2FeCFeS3CFeS2HFeS2CHC6H4C2H3C6H4SC2H4C2HC6H5CH8CH3C3H7C2HCH2CH6C2HCSH3NC12H31C2H4NHSHC2H2C3H2CHCH7CH2SCHC3H2NCHC2H6NH9CHCHCHCH3CH3NCHC3H2C3H3SH2C2H2C2H2SCH5CH2C3NH5CHC2H4SHFeSHSFeCFeH2SCH4CHCHCH2SH2CHSC3H2C2H6CFeCH2NHCHC3H2C4H3NH6C5H5C2H7CSC2H5C2HNH2CH9C2HCHCH8C2H2CHC3FeH5FeCH2SH4C3HFeS2FeHFeHFeHS2FeS2FeS2FeSFeCS2HC2H2CSH4C8H5CH2CSH3CHCH4C2H4CNC11H25NC12H28C2HC3H2CH3CSH2CH2CHCH3SC4HC2SH3CSH2C3H3FeSHCSH3CH2C4FeS2HFeS2CH3CHFeSH3C4HNH2C2HCFeH5CHCFeH3CHSH5SHC2H3CHC2H3SHCH6CSC2HNC2HC4HCH3CHC2H4CH11CHFeSC2H2FeH6SHSC3H2C2H2C2H5CH4C2NHC4HC2H3CH8FeC2SH2CH2C2H2CH2CH3CH2CH2CH4C3SCHNCH3CH2C2HCHC3HCSH2CHC2H2CFeHSFeHSH2CH2FeS4HCHSHFeS2H2C2HFeHSHSHS2C2HCH2C7HCH6C2FeHC2H6CHCHCFeCH2FeH2NHC4H2C3HCFeH17CHC5FeH2C2H2SFeH4CSCH2NH6CH8CH3SCHC3H2SCH6CH4CH3CHFeHC4HC4H2NH2CH3C2SH2CHCH2CH2SCHNHCHCHC4SFeS2FeS2FeHFeHS2FeS2FeSHFeSFeCSH3CH2CHCH2C2H3C6H6C6HC2H5CH2SHCH2CHNC4HCH2CH2CH5NC6H2C3H3CH9CH4SCH13N2H2CH4CH4CHCH6SH2CH2NC3HC4H9C2H2CHNCH3CH3CHCH2C3H3C2HC2H3CH7CH2CH2SHCSH4C3HCH3CH3C2HSH2CH2C6HFeH3SCSHSCHCFeSH3CHSCH2C2HC3H3C2H4FeH3C2HCH2CNCH2C2HCHFeH3C2H4CH4SHC2HCHCH2C3HC3H5CH2C2H7SH2C3SH2CHCH5CH2C3H3NH6NC7HSFeHCSH7CH4S2H3FeH2FeS2FeSFeCS2FeSCFeS2FeSFeS3FeS2FeS2H4CHC6H2FeH5CH3C4H5CH3CHC6H5CH2NCH2C4H4C4HSH3CH4C2HCH3C3H3CHC2HC2H2C2H4FeH2CH7NC12H28CHC4HSH3CNCHC3SHS2H5CHCH6CH3C3SCH4CHNCH3CHNH4SH3SH2C2HCHCHFeHCH2CFeSHFeS2FeSFeS3FeH2FeS2FeHFeS3H2S2FeSHC3HC2H2CH8C6H2CH2C2H3C7H8CHFeC2HCNH3CH2NC8H19CH5CH2CH2CHNC11H13CH9CH2CH2C2H4SC2SC2HC3HCH2C4HCH4CH2CSHCH3C2HSCHCH2CH8CH3NH15C2H6CNHCHCH2CH2C3H4CFeHSH2CSHFeCSHCHCHCHCHC2H2CH5CSH6CH2C2H3CH2CH5CH2C2H2CH4CH4CHC2H5C2H2C2H2C3H3CH5CH5CH3CH2SH2CH2CH2CHCNH2CH2SHC2H2CH3CNH6C2HCH3SC2HC2NCSH2C
_chemical_formula_sum              "S192 C864 Fe96 N48 H1536"
_cell_length_a       68.3566
_cell_length_b       37.5845
_cell_length_c       36.5897
_cell_angle_alpha    90.0655
_cell_angle_beta     89.7709
_cell_angle_gamma    88.187

_space_group_name_H-M_alt    "P 1"
_space_group_IT_number       1

loop_
  _space_group_symop_operation_xyz
  'x, y, z'

loop_
  _atom_site_type_symbol
  _atom_site_label
  _atom_site_symmetry_multiplicity
  _atom_site_fract_x
  _atom_site_fract_y
  _atom_site_fract_z
  _atom_site_occupancy
  S   S1        1.0  0.01755  0.10802  0.37526  1.0000
  C   C1        1.0  0.26225  0.47562  0.47778  1.0000
  Fe  Fe1       1.0  0.02106  0.06547  0.33200  1.0000
  S   S2        1.0  0.05168  0.06398  0.30606  1.0000
  Fe  Fe2       1.0  0.01903  0.45660  0.31467  1.0000
  C   C2        1.0  0.01038  0.02961  0.49873  1.0000
  S   S3        1.0  0.02703  0.43273  0.36902  1.0000
  N   N1        1.0  0.22320  0.04205  0.20693  1.0000
  H   H1        1.0  0.32075  0.49097  0.49463  1.0000
  C   C3        1.0  0.17933  0.48618  0.01064  1.0000
  C   C4        1.0  0.01422  0.25816  0.37245  1.0000
  H   H2        1.0  0.22328  0.07381  0.31857  1.0000
  H   H3        1.0  0.17822  0.05670  0.06817  1.0000
  C   C5        1.0  0.27267  0.08895  0.18691  1.0000
  H   H4        1.0  0.08300  0.46213  0.43916  1.0000
  H   H5        1.0  0.26374  0.45948  0.45248  1.0000
  C   C6        1.0  0.14625  0.46174  0.18340  1.0000
  H   H6        1.0  0.08247  0.12398  0.18330  1.0000
  H   H7        1.0  0.04334  0.06401  0.42289  1.0000
  C   C7        1.0  0.05843  0.06238  0.41154  1.0000
  H   H8        1.0  0.09746  0.15862  0.23346  1.0000
  H   H9        1.0  0.26930  0.10065  0.15969  1.0000
  H   H10       1.0  0.16869  0.11516  0.17027  1.0000
  N   N2        1.0  0.05597  0.17551  0.28343  1.0000
  C   C8        1.0  0.05070  0.16751  0.32261  1.0000
  H   H11       1.0  0.08144  0.41323  0.23766  1.0000
  C   C9        1.0  0.07406  0.15314  0.27388  1.0000
  C   C10       1.0  0.06011  0.21440  0.27720  1.0000
  C   C11       1.0  0.04880  0.24217  0.30160  1.0000
  C   C12       1.0  0.06736  0.17219  0.35079  1.0000
  C   C13       1.0  0.16953  0.03422  0.01659  1.0000
  H   H12       1.0  0.32974  0.47673  0.43910  1.0000
  H   H13       1.0  0.10675  0.48738  0.07920  1.0000
  C   C14       1.0  0.05160  0.28007  0.28792  1.0000
  C   C15       1.0  0.05941  0.17606  0.38974  1.0000
  H   H14       1.0  0.06195  0.11437  0.21234  1.0000
  H   H15       1.0  0.04606  0.13948  0.32511  1.0000
  H   H16       1.0  0.03773  0.18361  0.33167  1.0000
  C   C16       1.0  0.22452  0.49675  0.17274  1.0000
  H   H17       1.0  0.02714  0.25979  0.38927  1.0000
  H   H18       1.0  0.20759  0.02904  0.25640  1.0000
  H   H19       1.0  0.08667  0.16123  0.29076  1.0000
  H   H20       1.0  0.07592  0.21942  0.28142  1.0000
  H   H21       1.0  0.05726  0.22162  0.24815  1.0000
  H   H22       1.0  0.05417  0.24096  0.33014  1.0000
  H   H23       1.0  0.10602  0.41608  0.25540  1.0000
  H   H24       1.0  0.07742  0.14834  0.35014  1.0000
  H   H25       1.0  0.07610  0.19580  0.34452  1.0000
  H   H26       1.0  0.06880  0.07108  0.43282  1.0000
  H   H27       1.0  0.16547  0.06776  0.16916  1.0000
  H   H28       1.0  0.01253  0.20090  0.37805  1.0000
  C   C17       1.0  0.29825  0.49052  0.43264  1.0000
  H   H29       1.0  0.23313  0.49586  0.46254  1.0000
  H   H30       1.0  0.23468  0.07530  0.16379  1.0000
  H   H31       1.0  0.20312  0.10632  0.18912  1.0000
  H   H32       1.0  0.04380  0.29925  0.30645  1.0000
  H   H33       1.0  0.06736  0.28641  0.28759  1.0000
  H   H34       1.0  0.24448  0.01762  0.27026  1.0000
  H   H35       1.0  0.05106  0.15236  0.39752  1.0000
  H   H36       1.0  0.07175  0.17854  0.40913  1.0000
  H   H37       1.0  0.04976  0.20028  0.39222  1.0000
  C   C18       1.0  0.10157  0.44615  0.12111  1.0000
  H   H38       1.0  0.26327  0.03680  0.17348  1.0000
  H   H39       1.0  0.26410  0.04593  0.22118  1.0000
  C   C19       1.0  0.06360  0.02445  0.39897  1.0000
  H   H40       1.0  0.17370  0.46610  0.15333  1.0000
  H   H41       1.0  0.23558  0.09430  0.20788  1.0000
  C   C20       1.0  0.10453  0.41088  0.19612  1.0000
  C   C21       1.0  0.06399  0.49614  0.27513  1.0000
  C   C22       1.0  0.17627  0.08899  0.16553  1.0000
  H   H42       1.0  0.05936  0.08083  0.38796  1.0000
  C   C23       1.0  0.19311  0.08390  0.19261  1.0000
  H   H43       1.0  0.07199  0.12478  0.28146  1.0000
  H   H44       1.0  0.29419  0.46220  0.43493  1.0000
  H   H45       1.0  0.09150  0.06313  0.28093  1.0000
  H   H46       1.0  0.08545  0.45044  0.12401  1.0000
  H   H47       1.0  0.18180  0.08817  0.13693  1.0000
  C   C24       1.0  0.23667  0.04370  0.27339  1.0000
  H   H48       1.0  0.07982  0.45055  0.05599  1.0000
  H   H49       1.0  0.27385  0.01908  0.47043  1.0000
  C   C25       1.0  0.20407  0.04752  0.18675  1.0000
  Fe  Fe3       1.0  0.00670  0.38844  0.35353  1.0000
  C   C26       1.0  0.08697  0.03585  0.28118  1.0000
  C   C27       1.0  0.18707  0.50211  0.04220  1.0000
  C   C28       1.0  0.08137  0.15500  0.23352  1.0000
  C   C29       1.0  0.07768  0.12081  0.21213  1.0000
  H   H50       1.0  0.10397  0.41674  0.12170  1.0000
  H   H51       1.0  0.20646  0.04478  0.15675  1.0000
  H   H52       1.0  0.17644  0.45674  0.20138  1.0000
  H   H53       1.0  0.06089  0.41596  0.41900  1.0000
  H   H54       1.0  0.00877  0.16824  0.20947  1.0000
  C   C30       1.0  0.13351  0.45198  0.15012  1.0000
  H   H55       1.0  0.21297  0.07492  0.25233  1.0000
  H   H56       1.0  0.11985  0.40041  0.19458  1.0000
  H   H57       1.0  0.27045  0.10970  0.20832  1.0000
  C   C31       1.0  0.25974  0.05734  0.19449  1.0000
  C   C32       1.0  0.05634  0.49115  0.42095  1.0000
  C   C33       1.0  0.10027  0.00857  0.26962  1.0000
  H   H58       1.0  0.01371  0.44766  0.48589  1.0000
  C   C34       1.0  0.09684  0.40317  0.23451  1.0000
  H   H59       1.0  0.16930  0.42194  0.17084  1.0000
  H   H60       1.0  0.21933  0.02647  0.32003  1.0000
  C   C35       1.0  0.17321  0.03314  0.05454  1.0000
  C   C36       1.0  0.23764  0.06858  0.19296  1.0000
  H   H61       1.0  0.07503  0.17813  0.21844  1.0000
  H   H62       1.0  0.31307  0.48191  0.36132  1.0000
  H   H63       1.0  0.10790  0.46955  0.31173  1.0000
  C   C37       1.0  0.06793  0.02814  0.29293  1.0000
  C   C38       1.0  0.10797  0.45807  0.08236  1.0000
  C   C39       1.0  0.16771  0.45090  0.17667  1.0000
  C   C40       1.0  0.31979  0.48974  0.41895  1.0000
  C   C41       1.0  0.01976  0.18379  0.26292  1.0000
  H   H64       1.0  0.09557  0.39592  0.17648  1.0000
  H   H65       1.0  0.14144  0.44793  0.20851  1.0000
  C   C42       1.0  0.21903  0.04762  0.24715  1.0000
  H   H66       1.0  0.07229  0.45810  0.31657  1.0000
  H   H67       1.0  0.10949  0.46564  0.21128  1.0000
  H   H68       1.0  0.04543  0.28349  0.26006  1.0000
  H   H69       1.0  0.28831  0.07994  0.18717  1.0000
  H   H70       1.0  0.06657  0.41068  0.46672  1.0000
  H   H71       1.0  0.02112  0.21178  0.25395  1.0000
  H   H72       1.0  0.20277  0.50282  0.04551  1.0000
  H   H73       1.0  0.18653  0.08532  0.22039  1.0000
  H   H74       1.0  0.12337  0.44935  0.07689  1.0000
  H   H75       1.0  0.03716  0.13448  0.26376  1.0000
  H   H76       1.0  0.24291  0.04320  0.33150  1.0000
  C   C43       1.0  0.24034  0.48104  0.48533  1.0000
  C   C44       1.0  0.06738  0.46522  0.44743  1.0000
  H   H77       1.0  0.04367  0.16583  0.22984  1.0000
  C   C45       1.0  0.23007  0.04705  0.31326  1.0000
  H   H78       1.0  0.22162  0.49767  0.20264  1.0000
  H   H79       1.0  0.14548  0.49081  0.18853  1.0000
  C   C46       1.0  0.11043  0.50321  0.15080  1.0000
  H   H80       1.0  0.14044  0.46446  0.12589  1.0000
  H   H81       1.0  0.05346  0.01778  0.37658  1.0000
  N   N3        1.0  0.11212  0.46310  0.15244  1.0000
  H   H82       1.0  0.08719  0.45890  0.18874  1.0000
  H   H83       1.0  0.23771  0.01310  0.14282  1.0000
  C   C47       1.0  0.09538  0.44162  0.05278  1.0000
  H   H84       1.0  0.13531  0.42279  0.14540  1.0000
  H   H85       1.0  0.03290  0.23777  0.30253  1.0000
  H   H86       1.0  0.04031  0.48853  0.42552  1.0000
  C   C48       1.0  0.07741  0.47793  0.29770  1.0000
  H   H87       1.0  0.09734  0.37403  0.23952  1.0000
  H   H88       1.0  0.10060  0.45010  0.02541  1.0000
  C   C49       1.0  0.10305  0.45132  0.18788  1.0000
  C   C50       1.0  0.32199  0.46895  0.38318  1.0000
  H   H89       1.0  0.07879  0.02481  0.38845  1.0000
  H   H90       1.0  0.08618  0.09803  0.22411  1.0000
  C   C51       1.0  0.03966  0.16337  0.25912  1.0000
  H   H91       1.0  0.19375  0.02632  0.19420  1.0000
  H   H92       1.0  0.09651  0.41209  0.05405  1.0000
  H   H93       1.0  0.23631  0.47651  0.16690  1.0000
  S   S4        1.0  0.03852  0.48726  0.27520  1.0000
  H   H94       1.0  0.24702  0.06534  0.26848  1.0000
  H   H95       1.0  0.06684  0.47465  0.47602  1.0000
  H   H96       1.0  0.05947  0.47997  0.39320  1.0000
  C   C52       1.0  0.05889  0.42811  0.44651  1.0000
  C   C53       1.0  0.09761  0.48452  0.29490  1.0000
  H   H97       1.0  0.33757  0.46844  0.37440  1.0000
  C   C54       1.0  0.15908  0.48461  0.00613  1.0000
  H   H98       1.0  0.01431  0.18320  0.29139  1.0000
  H   H99       1.0  0.28911  0.50229  0.41020  1.0000
  H   H100      1.0  0.21097  0.48853  0.15880  1.0000
  H   H101      1.0  0.13105  0.49952  0.02950  1.0000
  H   H102      1.0  0.11481  0.01499  0.26050  1.0000
  H   H103      1.0  0.31743  0.44107  0.38679  1.0000
  S   S5        1.0  0.01715  0.33096  0.36597  1.0000
  H   H104      1.0  0.04307  0.42932  0.45353  1.0000
  C   C55       1.0  0.00990  0.47092  0.50211  1.0000
  H   H105      1.0  0.07182  0.00824  0.45271  1.0000
  H   H106      1.0  0.23348  0.45476  0.48790  1.0000
  C   C56       1.0  0.30463  0.49003  0.49838  1.0000
  H   H107      1.0  0.30145  0.46120  0.49686  1.0000
  C   C57       1.0  0.14671  0.49993  0.03315  1.0000
  H   H108      1.0  0.26862  0.46022  0.50093  1.0000
  Fe  Fe4       1.0  0.16087  0.38370  0.85606  1.0000
  S   S6        1.0  0.17625  0.41648  0.81416  1.0000
  S   S7        1.0  0.15138  0.33127  0.83134  1.0000
  Fe  Fe5       1.0  0.16195  0.44445  0.91331  1.0000
  H   H109      1.0  0.15674  0.30949  0.90752  1.0000
  Fe  Fe6       1.0  0.15602  0.46167  0.83226  1.0000
  C   C58       1.0  0.15253  0.40877  0.72598  1.0000
  Fe  Fe7       1.0  0.19610  0.43213  0.85951  1.0000
  S   S8        1.0  0.22952  0.42570  0.85673  1.0000
  S   S9        1.0  0.13960  0.42816  0.87144  1.0000
  S   S10       1.0  0.18180  0.39660  0.90115  1.0000
  Fe  Fe8       1.0  0.15504  0.12544  0.88355  1.0000
  S   S11       1.0  0.16583  0.11477  0.82648  1.0000
  S   S12       1.0  0.14930  0.17997  0.90943  1.0000
  Fe  Fe9       1.0  0.16127  0.04741  0.90762  1.0000
  S   S13       1.0  0.17314  0.03150  0.85202  1.0000
  C   C59       1.0  0.10057  0.01725  0.74257  1.0000
  Fe  Fe10      1.0  0.18998  0.08208  0.85272  1.0000
  S   S14       1.0  0.22272  0.09183  0.84563  1.0000
  Fe  Fe11      1.0  0.14791  0.06504  0.82978  1.0000
  S   S15       1.0  0.13188  0.04407  0.77961  1.0000
  S   S16       1.0  0.17998  0.09498  0.91004  1.0000
  S   S17       1.0  0.13518  0.07837  0.88520  1.0000
  H   H110      1.0  0.21285  0.19095  0.96055  1.0000
  Fe  Fe12      1.0  0.32298  0.45956  0.72017  1.0000
  S   S18       1.0  0.32439  0.44324  0.66114  1.0000
  S   S19       1.0  0.29105  0.47330  0.73531  1.0000
  Fe  Fe13      1.0  0.31318  0.08502  0.70530  1.0000
  S   S20       1.0  0.32260  0.12756  0.66612  1.0000
  S   S21       1.0  0.28056  0.07232  0.70848  1.0000
  H   H111      1.0  0.12123  0.36848  0.72118  1.0000
  C   C60       1.0  0.21891  0.07216  0.97902  1.0000
  C   C61       1.0  0.26888  0.42685  0.65282  1.0000
  H   H112      1.0  0.26544  0.44415  0.67680  1.0000
  H   H113      1.0  0.05939  0.46312  0.73957  1.0000
  H   H114      1.0  0.08992  0.27382  0.75213  1.0000
  C   C62       1.0  0.29103  0.27577  0.68893  1.0000
  C   C63       1.0  0.05782  0.43939  0.72186  1.0000
  H   H115      1.0  0.27787  0.25138  0.64120  1.0000
  H   H116      1.0  0.01619  0.06449  0.54386  1.0000
  C   C64       1.0  0.23819  0.08783  0.80649  1.0000
  C   C65       1.0  0.23149  0.07577  0.77273  1.0000
  C   C66       1.0  0.24462  0.07142  0.74302  1.0000
  C   C67       1.0  0.26454  0.07929  0.74656  1.0000
  C   C68       1.0  0.27115  0.09190  0.78018  1.0000
  C   C69       1.0  0.25805  0.09605  0.80993  1.0000
  H   H117      1.0  0.21628  0.06930  0.76963  1.0000
  H   H118      1.0  0.23933  0.06169  0.71717  1.0000
  H   H119      1.0  0.28640  0.09806  0.78338  1.0000
  H   H120      1.0  0.24252  0.05652  0.58978  1.0000
  C   C70       1.0  0.10728  0.03026  0.77624  1.0000
  H   H121      1.0  0.19792  0.03789  0.95527  1.0000
  H   H122      1.0  0.30898  0.06266  0.56443  1.0000
  H   H123      1.0  0.26306  0.30680  0.73820  1.0000
  H   H124      1.0  0.25781  0.43271  0.63136  1.0000
  H   H125      1.0  0.24133  0.00996  0.80958  1.0000
  H   H126      1.0  0.22173  0.04325  0.90886  1.0000
  C   C71       1.0  0.23077  0.35818  0.75111  1.0000
  C   C72       1.0  0.00791  0.05103  0.83468  1.0000
  C   C73       1.0  0.24628  0.43856  0.82218  1.0000
  C   C74       1.0  0.26643  0.43146  0.82738  1.0000
  C   C75       1.0  0.28035  0.44172  0.80112  1.0000
  C   C76       1.0  0.27425  0.45898  0.76912  1.0000
  C   C77       1.0  0.25409  0.46591  0.76381  1.0000
  C   C78       1.0  0.24017  0.45566  0.79007  1.0000
  C   C79       1.0  0.12187  0.37967  0.74938  1.0000
  C   C80       1.0  0.09240  0.34728  0.76239  1.0000
  H   H127      1.0  0.30067  0.32365  0.66288  1.0000
  H   H128      1.0  0.20832  0.08075  0.00065  1.0000
  H   H129      1.0  0.22492  0.36736  0.72433  1.0000
  H   H130      1.0  0.06042  0.40222  0.76605  1.0000
  H   H131      1.0  0.09179  0.33916  0.73311  1.0000
  H   H132      1.0  0.30512  0.27247  0.70376  1.0000
  H   H133      1.0  0.24124  0.01205  0.57102  1.0000
  C   C81       1.0  0.15126  0.28945  0.85355  1.0000
  C   C82       1.0  0.14789  0.25879  0.83271  1.0000
  C   C83       1.0  0.14749  0.22501  0.84929  1.0000
  C   C84       1.0  0.15020  0.22166  0.88701  1.0000
  C   C85       1.0  0.15342  0.25238  0.90786  1.0000
  C   C86       1.0  0.15421  0.28608  0.89117  1.0000
  H   H134      1.0  0.14551  0.26118  0.80360  1.0000
  H   H135      1.0  0.14475  0.20163  0.83305  1.0000
  H   H136      1.0  0.15538  0.25006  0.93710  1.0000
  H   H137      1.0  0.31119  0.01683  0.61485  1.0000
  N   N4        1.0  0.28274  0.34106  0.70912  1.0000
  C   C87       1.0  0.28362  0.37820  0.69360  1.0000
  C   C88       1.0  0.29842  0.33532  0.73768  1.0000
  C   C89       1.0  0.28733  0.31541  0.67806  1.0000
  C   C90       1.0  0.26837  0.38760  0.66352  1.0000
  C   C91       1.0  0.30106  0.36518  0.76623  1.0000
  H   H138      1.0  0.09918  0.26055  0.79630  1.0000
  H   H139      1.0  0.29579  0.43683  0.80594  1.0000
  H   H140      1.0  0.29849  0.38250  0.68204  1.0000
  H   H141      1.0  0.28188  0.39879  0.71511  1.0000
  H   H142      1.0  0.29603  0.31021  0.75296  1.0000
  H   H143      1.0  0.31297  0.33192  0.72405  1.0000
  C   C92       1.0  0.21341  0.03582  0.96418  1.0000
  H   H144      1.0  0.27531  0.31601  0.65765  1.0000
  H   H145      1.0  0.27141  0.37173  0.63843  1.0000
  H   H146      1.0  0.30640  0.38953  0.75293  1.0000
  H   H147      1.0  0.28732  0.37210  0.78063  1.0000
  H   H148      1.0  0.07389  0.40702  0.88248  1.0000
  H   H149      1.0  0.23380  0.07068  0.99102  1.0000
  H   H150      1.0  0.16169  0.38678  0.73790  1.0000
  H   H151      1.0  0.27922  0.26593  0.70671  1.0000
  H   H152      1.0  0.09244  0.43826  0.75431  1.0000
  H   H153      1.0  0.09508  0.43137  0.86969  1.0000
  S   S22       1.0  0.17737  0.48080  0.87449  1.0000
  H   H154      1.0  0.27134  0.41842  0.85220  1.0000
  C   C93       1.0  0.24263  0.02781  0.59648  1.0000
  H   H155      1.0  0.25232  0.32927  0.70094  1.0000
  H   H156      1.0  0.25330  0.38258  0.67306  1.0000
  H   H157      1.0  0.07696  0.34829  0.77178  1.0000
  H   H158      1.0  0.12514  0.43673  0.73524  1.0000
  C   C94       1.0  0.29224  0.25172  0.65522  1.0000
  H   H159      1.0  0.30584  0.48630  0.59395  1.0000
  H   H160      1.0  0.06481  0.38338  0.72157  1.0000
  H   H161      1.0  0.31590  0.12685  0.56956  1.0000
  H   H162      1.0  0.10404  0.32288  0.81328  1.0000
  H   H163      1.0  0.28349  0.43333  0.64187  1.0000
  H   H164      1.0  0.31235  0.07633  0.61074  1.0000
  H   H165      1.0  0.01874  0.03139  0.82273  1.0000
  S   S23       1.0  0.14837  0.46363  0.96772  1.0000
  H   H166      1.0  0.22475  0.46140  0.78569  1.0000
  H   H167      1.0  0.18906  0.47466  0.99010  1.0000
  H   H168      1.0  0.33984  0.27587  0.62785  1.0000
  C   C95       1.0  0.28199  0.06448  0.59811  1.0000
  C   C96       1.0  0.06767  0.40658  0.73942  1.0000
  C   C97       1.0  0.01082  0.05159  0.87673  1.0000
  C   C98       1.0  0.26269  0.33289  0.72395  1.0000
  C   C99       1.0  0.10196  0.49734  0.81401  1.0000
  H   H169      1.0  0.03425  0.05310  0.91660  1.0000
  H   H170      1.0  0.07445  0.41970  0.81646  1.0000
  C   C100      1.0  0.25309  0.35981  0.75147  1.0000
  H   H171      1.0  0.18694  0.19178  0.95027  1.0000
  H   H172      1.0  0.22607  0.33064  0.75641  1.0000
  H   H173      1.0  0.20023  0.15002  0.95469  1.0000
  H   H174      1.0  0.16097  0.43355  0.72688  1.0000
  H   H175      1.0  0.22151  0.34495  0.86833  1.0000
  N   N5        1.0  0.28073  0.02452  0.60019  1.0000
  C   C101      1.0  0.00906  0.50115  0.56175  1.0000
  H   H176      1.0  0.14927  0.40256  0.69700  1.0000
  N   N6        1.0  0.10149  0.38331  0.76541  1.0000
  C   C102      1.0  0.29653  0.01103  0.62597  1.0000
  C   C103      1.0  0.09444  0.03127  0.80613  1.0000
  C   C104      1.0  0.10324  0.39519  0.80461  1.0000
  C   C105      1.0  0.08396  0.39755  0.82690  1.0000
  H   H177      1.0  0.06553  0.01980  0.82581  1.0000
  H   H178      1.0  0.26041  0.02665  0.64552  1.0000
  H   H179      1.0  0.25785  0.35298  0.77966  1.0000
  H   H180      1.0  0.26343  0.10531  0.83590  1.0000
  H   H181      1.0  0.06433  0.44476  0.69462  1.0000
  H   H182      1.0  0.11406  0.37790  0.81949  1.0000
  H   H183      1.0  0.10939  0.42219  0.80589  1.0000
  H   H184      1.0  0.02170  0.01573  0.58892  1.0000
  H   H185      1.0  0.30347  0.26105  0.63575  1.0000
  H   H186      1.0  0.29794  0.45136  0.56414  1.0000
  S   S24       1.0  0.33547  0.04388  0.68463  1.0000
  H   H187      1.0  0.13769  0.42207  0.77593  1.0000
  H   H188      1.0  0.33049  0.34715  0.78212  1.0000
  H   H189      1.0  0.29544  0.02539  0.65259  1.0000
  H   H190      1.0  0.31813  0.37618  0.81457  1.0000
  H   H191      1.0  0.29440  0.13419  0.59762  1.0000
  H   H192      1.0  0.24921  0.47954  0.73931  1.0000
  C   C106      1.0  0.13359  0.41429  0.74785  1.0000
  H   H193      1.0  0.25663  0.38778  0.74606  1.0000
  H   H194      1.0  0.01049  0.06760  0.70043  1.0000
  H   H195      1.0  0.13116  0.36070  0.76551  1.0000
  H   H196      1.0  0.29641  0.22411  0.66361  1.0000
  H   H197      1.0  0.09937  0.04122  0.83217  1.0000
  C   C107      1.0  0.30723  0.47501  0.56594  1.0000
  H   H198      1.0  0.08575  0.47976  0.94760  1.0000
  H   H199      1.0  0.22449  0.37606  0.77270  1.0000
  C   C108      1.0  0.08792  0.40547  0.86707  1.0000
  H   H200      1.0  0.28527  0.05081  0.52422  1.0000
  N   N7        1.0  0.21179  0.22127  0.84959  1.0000
  C   C109      1.0  0.20798  0.26006  0.84029  1.0000
  C   C110      1.0  0.19861  0.19802  0.82724  1.0000
  C   C111      1.0  0.20678  0.21672  0.88957  1.0000
  C   C112      1.0  0.23300  0.20998  0.84443  1.0000
  C   C113      1.0  0.24142  0.21286  0.80529  1.0000
  C   C114      1.0  0.21898  0.28764  0.86341  1.0000
  C   C115      1.0  0.20593  0.17796  0.90394  1.0000
  C   C116      1.0  0.19342  0.21086  0.78793  1.0000
  C   C117      1.0  0.18272  0.18255  0.76655  1.0000
  C   C118      1.0  0.26347  0.20454  0.80479  1.0000
  C   C119      1.0  0.21394  0.32558  0.85079  1.0000
  C   C120      1.0  0.20123  0.17780  0.94486  1.0000
  H   H201      1.0  0.19202  0.26667  0.84332  1.0000
  H   H202      1.0  0.21147  0.26563  0.81130  1.0000
  H   H203      1.0  0.20488  0.17027  0.82563  1.0000
  H   H204      1.0  0.18418  0.19555  0.84105  1.0000
  H   H205      1.0  0.19230  0.22987  0.89572  1.0000
  H   H206      1.0  0.21761  0.23008  0.90710  1.0000
  H   H207      1.0  0.24246  0.22489  0.86335  1.0000
  H   H208      1.0  0.23532  0.18152  0.85207  1.0000
  H   H209      1.0  0.23901  0.23989  0.79380  1.0000
  H   H210      1.0  0.23465  0.19291  0.78732  1.0000
  H   H211      1.0  0.21470  0.28634  0.89264  1.0000
  H   H212      1.0  0.23506  0.28329  0.86097  1.0000
  H   H213      1.0  0.22004  0.16309  0.89999  1.0000
  H   H214      1.0  0.19436  0.16331  0.88980  1.0000
  H   H215      1.0  0.18353  0.23489  0.78925  1.0000
  H   H216      1.0  0.20649  0.21789  0.77196  1.0000
  H   H217      1.0  0.18003  0.19192  0.73819  1.0000
  H   H218      1.0  0.19158  0.15725  0.76534  1.0000
  H   H219      1.0  0.16833  0.17766  0.77948  1.0000
  H   H220      1.0  0.26668  0.17722  0.81525  1.0000
  H   H221      1.0  0.26908  0.20596  0.77630  1.0000
  H   H222      1.0  0.27131  0.22403  0.82171  1.0000
  H   H223      1.0  0.21874  0.32952  0.82217  1.0000
  H   H224      1.0  0.19792  0.33129  0.85281  1.0000
  H   H225      1.0  0.01646  0.05936  0.76529  1.0000
  C   C121      1.0  0.10274  0.31636  0.78383  1.0000
  C   C122      1.0  0.09130  0.28219  0.78111  1.0000
  H   H226      1.0  0.27111  0.07600  0.57877  1.0000
  H   H227      1.0  0.27816  0.07675  0.62511  1.0000
  H   H228      1.0  0.21851  0.09236  0.95686  1.0000
  H   H229      1.0  0.31108  0.33051  0.81064  1.0000
  C   C123      1.0  0.31612  0.35390  0.79510  1.0000
  H   H230      1.0  0.32274  0.46648  0.56151  1.0000
  C   C124      1.0  0.07523  0.01914  0.80240  1.0000
  C   C125      1.0  0.09009  0.41104  0.74327  1.0000
  C   C126      1.0  0.03255  0.05111  0.88650  1.0000
  C   C127      1.0  0.22651  0.02465  0.93108  1.0000
  H   H231      1.0  0.09746  0.38417  0.87929  1.0000
  H   H232      1.0  0.07648  0.28607  0.79334  1.0000
  C   C128      1.0  0.30096  0.11743  0.57545  1.0000
  H   H233      1.0  0.07600  0.37236  0.82592  1.0000
  H   H234      1.0  0.04194  0.43506  0.71827  1.0000
  H   H235      1.0  0.09564  0.41180  0.71458  1.0000
  H   H236      1.0  0.10755  0.48487  0.83857  1.0000
  H   H237      1.0  0.26713  0.01392  0.81760  1.0000
  C   C129      1.0  0.30229  0.07841  0.58710  1.0000
  H   H238      1.0  0.11758  0.31017  0.77273  1.0000
  C   C130      1.0  0.01401  0.47128  0.53991  1.0000
  H   H239      1.0  0.11035  0.01648  0.71925  1.0000
  C   C131      1.0  0.22435  0.02154  0.61955  1.0000
  C   C132      1.0  0.27649  0.02696  0.52902  1.0000
  H   H240      1.0  0.24189  0.03150  0.93726  1.0000
  H   H241      1.0  0.10666  0.46513  0.92087  1.0000
  H   H242      1.0  0.29205  0.12056  0.55029  1.0000
  H   H243      1.0  0.17160  0.05850  0.00140  1.0000
  H   H244      1.0  0.03986  0.02586  0.87716  1.0000
  S   S25       1.0  0.01521  0.50020  0.60908  1.0000
  S   S26       1.0  0.14053  0.49622  0.78906  1.0000
  C   C133      1.0  0.28371  0.00643  0.56352  1.0000
  H   H245      1.0  0.22466  0.03744  0.64518  1.0000
  C   C134      1.0  0.26134  0.01552  0.61719  1.0000
  H   H246      1.0  0.07205  0.50083  0.83334  1.0000
  C   C135      1.0  0.09625  0.48786  0.92616  1.0000
  H   H247      1.0  0.24957  0.03235  0.87267  1.0000
  H   H248      1.0  0.21107  0.02985  0.60395  1.0000
  C   C136      1.0  0.01509  0.03708  0.53525  1.0000
  S   S27       1.0  0.33279  0.10333  0.74993  1.0000
  H   H249      1.0  0.21415  0.01660  0.98697  1.0000
  H   H250      1.0  0.08795  0.49440  0.90088  1.0000
  C   C137      1.0  0.01819  0.00950  0.56087  1.0000
  H   H251      1.0  0.26101  0.03607  0.53135  1.0000
  C   C138      1.0  0.30075  0.50316  0.53798  1.0000
  H   H252      1.0  0.02109  0.44821  0.55238  1.0000
  H   H253      1.0  0.03991  0.07391  0.87362  1.0000
  H   H254      1.0  0.23785  0.49597  0.51126  1.0000
  H   H255      1.0  0.01275  0.07762  0.82535  1.0000
  C   C139      1.0  0.06856  0.00598  0.76881  1.0000
  C   C140      1.0  0.08131  0.00528  0.73879  1.0000
  Fe  Fe14      1.0  0.15332  0.62723  0.19786  1.0000
  S   S28       1.0  0.15823  0.60517  0.25419  1.0000
  S   S29       1.0  0.13774  0.68141  0.19252  1.0000
  Fe  Fe15      1.0  0.17254  0.56162  0.16099  1.0000
  S   S30       1.0  0.17949  0.53606  0.21548  1.0000
  C   C141      1.0  0.17017  0.00208  0.07505  1.0000
  Fe  Fe16      1.0  0.14846  0.55321  0.23112  1.0000
  H   H256      1.0  0.08361  0.58754  0.45118  1.0000
  Fe  Fe17      1.0  0.18861  0.59011  0.23421  1.0000
  S   S31       1.0  0.21452  0.61130  0.26651  1.0000
  S   S32       1.0  0.14125  0.57613  0.17563  1.0000
  S   S33       1.0  0.18389  0.61461  0.17869  1.0000
  Fe  Fe18      1.0  0.14119  0.93841  0.22832  1.0000
  S   S34       1.0  0.14675  0.91812  0.17060  1.0000
  S   S35       1.0  0.11104  0.93740  0.25643  1.0000
  Fe  Fe19      1.0  0.18558  0.94420  0.24380  1.0000
  S   S36       1.0  0.19390  0.92541  0.18770  1.0000
  S   S37       1.0  0.20647  0.95622  0.29054  1.0000
  Fe  Fe20      1.0  0.16915  0.96099  0.16726  1.0000
  C   C142      1.0  0.09474  0.97305  0.26992  1.0000
  Fe  Fe21      1.0  0.17107  0.88401  0.19538  1.0000
  S   S38       1.0  0.18274  0.82744  0.18422  1.0000
  S   S39       1.0  0.16220  0.98309  0.22373  1.0000
  S   S40       1.0  0.16410  0.90130  0.25269  1.0000
  C   C143      1.0  0.23894  0.60872  0.17366  1.0000
  Fe  Fe22      1.0  0.32383  0.94435  0.33175  1.0000
  S   S41       1.0  0.29958  0.93684  0.28947  1.0000
  S   S42       1.0  0.32972  0.90861  0.37994  1.0000
  H   H257      1.0  0.12424  0.93273  0.38149  1.0000
  Fe  Fe23      1.0  0.32483  0.57287  0.33431  1.0000
  S   S43       1.0  0.29766  0.54450  0.31438  1.0000
  S   S44       1.0  0.32727  0.59533  0.39091  1.0000
  C   C144      1.0  0.06203  0.99809  0.43114  1.0000
  H   H258      1.0  0.28395  0.62359  0.12971  1.0000
  C   C145      1.0  0.23220  0.94785  0.29102  1.0000
  C   C146      1.0  0.24227  0.93462  0.26035  1.0000
  C   C147      1.0  0.26285  0.93150  0.26053  1.0000
  C   C148      1.0  0.27364  0.94065  0.29165  1.0000
  C   C149      1.0  0.26355  0.95270  0.32284  1.0000
  C   C150      1.0  0.24293  0.95634  0.32245  1.0000
  H   H259      1.0  0.23419  0.92736  0.23629  1.0000
  H   H260      1.0  0.27051  0.92241  0.23622  1.0000
  H   H261      1.0  0.27163  0.95988  0.34697  1.0000
  H   H262      1.0  0.08264  0.51000  0.12018  1.0000
  C   C151      1.0  0.03256  0.56217  0.33538  1.0000
  C   C152      1.0  0.27828  0.84778  0.35033  1.0000
  H   H263      1.0  0.14404  0.59592  0.02475  1.0000
  H   H264      1.0  0.27302  0.83227  0.17533  1.0000
  H   H265      1.0  0.26744  0.86119  0.33208  1.0000
  C   C153      1.0  0.23736  0.59193  0.28025  1.0000
  C   C154      1.0  0.24128  0.55522  0.27908  1.0000
  C   C155      1.0  0.25981  0.54122  0.28961  1.0000
  C   C156      1.0  0.27456  0.56367  0.30177  1.0000
  C   C157      1.0  0.27058  0.60038  0.30326  1.0000
  C   C158      1.0  0.25206  0.61437  0.29266  1.0000
  H   H266      1.0  0.23004  0.53761  0.27010  1.0000
  H   H267      1.0  0.29590  0.55906  0.16487  1.0000
  H   H268      1.0  0.28176  0.61795  0.31262  1.0000
  H   H269      1.0  0.21766  0.55203  0.16407  1.0000
  S   S45       1.0  0.33536  0.69474  0.38253  1.0000
  C   C159      1.0  0.09115  0.52866  0.24827  1.0000
  C   C160      1.0  0.24912  0.54565  0.17790  1.0000
  H   H270      1.0  0.21692  0.98608  0.14962  1.0000
  H   H271      1.0  0.14480  0.52787  0.08501  1.0000
  H   H272      1.0  0.06473  0.90926  0.45130  1.0000
  H   H273      1.0  0.09628  0.54835  0.22933  1.0000
  C   C161      1.0  0.22582  0.67235  0.18369  1.0000
  C   C162      1.0  0.16016  0.97286  0.01895  1.0000
  H   H274      1.0  0.24914  0.64280  0.29392  1.0000
  C   C163      1.0  0.15043  0.72181  0.18978  1.0000
  C   C164      1.0  0.17075  0.72212  0.18513  1.0000
  C   C165      1.0  0.18033  0.75472  0.18296  1.0000
  C   C166      1.0  0.16975  0.78734  0.18574  1.0000
  C   C167      1.0  0.14944  0.78708  0.19062  1.0000
  C   C168      1.0  0.13984  0.75445  0.19246  1.0000
  H   H275      1.0  0.17907  0.69726  0.18300  1.0000
  H   H276      1.0  0.19603  0.75464  0.17922  1.0000
  H   H277      1.0  0.14113  0.81198  0.19273  1.0000
  H   H278      1.0  0.12412  0.75447  0.19596  1.0000
  H   H279      1.0  0.31167  0.75131  0.32779  1.0000
  C   C169      1.0  0.30184  0.54735  0.46422  1.0000
  H   H280      1.0  0.11817  0.59889  0.43712  1.0000
  H   H281      1.0  0.09112  0.94490  0.48564  1.0000
  H   H282      1.0  0.07475  0.57127  0.13926  1.0000
  H   H283      1.0  0.21476  0.66383  0.20392  1.0000
  H   H284      1.0  0.04779  0.98626  0.30212  1.0000
  H   H285      1.0  0.02457  0.54580  0.38928  1.0000
  H   H286      1.0  0.29057  0.58807  0.07349  1.0000
  H   H287      1.0  0.27170  0.78795  0.30913  1.0000
  C   C170      1.0  0.00936  0.99405  0.48774  1.0000
  H   H288      1.0  0.28832  0.76630  0.27866  1.0000
  H   H289      1.0  0.21967  0.98563  0.21445  1.0000
  H   H290      1.0  0.25814  0.84868  0.21286  1.0000
  C   C171      1.0  0.30736  0.57862  0.21520  1.0000
  C   C172      1.0  0.07101  0.52167  0.25061  1.0000
  C   C173      1.0  0.28476  0.72686  0.34086  1.0000
  H   H291      1.0  0.16121  0.94781  0.07229  1.0000
  H   H292      1.0  0.22997  0.69981  0.19083  1.0000
  H   H293      1.0  0.26015  0.63723  0.11194  1.0000
  H   H294      1.0  0.12267  0.98101  0.38046  1.0000
  H   H295      1.0  0.26962  0.97977  0.49718  1.0000
  H   H296      1.0  0.03156  0.59086  0.34269  1.0000
  H   H297      1.0  0.30258  0.58497  0.24358  1.0000
  C   C174      1.0  0.27341  0.84526  0.20258  1.0000
  C   C175      1.0  0.30357  0.61149  0.48630  1.0000
  H   H298      1.0  0.08836  0.97857  0.35831  1.0000
  C   C176      1.0  0.08873  0.95445  0.41400  1.0000
  H   H299      1.0  0.03361  0.54660  0.44574  1.0000
  H   H300      1.0  0.29669  0.77505  0.36096  1.0000
  C   C177      1.0  0.29219  0.57720  0.48828  1.0000
  H   H301      1.0  0.30441  0.62122  0.45770  1.0000
  H   H302      1.0  0.01855  0.55471  0.32268  1.0000
  H   H303      1.0  0.29159  0.71078  0.36318  1.0000
  H   H304      1.0  0.31793  0.54706  0.46895  1.0000
  H   H305      1.0  0.29158  0.86017  0.40282  1.0000
  H   H306      1.0  0.26987  0.84070  0.27615  1.0000
  C   C178      1.0  0.28078  0.87207  0.38338  1.0000
  C   C179      1.0  0.28760  0.78340  0.30347  1.0000
  H   H307      1.0  0.05972  0.91705  0.38632  1.0000
  C   C180      1.0  0.09099  0.57157  0.42931  1.0000
  S   S46       1.0  0.18546  0.53628  0.10881  1.0000
  H   H308      1.0  0.26522  0.52615  0.44996  1.0000
  H   H309      1.0  0.26712  0.59203  0.22194  1.0000
  H   H310      1.0  0.04701  0.00112  0.44290  1.0000
  N   N8        1.0  0.17585  0.78766  0.30033  1.0000
  C   C181      1.0  0.16109  0.81533  0.28696  1.0000
  C   C182      1.0  0.19551  0.79482  0.28326  1.0000
  C   C183      1.0  0.16960  0.75188  0.28651  1.0000
  C   C184      1.0  0.17723  0.78617  0.34156  1.0000
  C   C185      1.0  0.17357  0.82161  0.36279  1.0000
  C   C186      1.0  0.13929  0.80765  0.29468  1.0000
  C   C187      1.0  0.18418  0.72007  0.29290  1.0000
  C   C188      1.0  0.20467  0.83089  0.29252  1.0000
  C   C189      1.0  0.22272  0.83709  0.26880  1.0000
  C   C190      1.0  0.17884  0.81738  0.40314  1.0000
  C   C191      1.0  0.12611  0.84057  0.28775  1.0000
  C   C192      1.0  0.17450  0.68477  0.28557  1.0000
  H   H311      1.0  0.16253  0.81882  0.25686  1.0000
  H   H312      1.0  0.16400  0.84179  0.29853  1.0000
  H   H313      1.0  0.20667  0.77435  0.29169  1.0000
  H   H314      1.0  0.19448  0.79266  0.25292  1.0000
  H   H315      1.0  0.16662  0.75312  0.25669  1.0000
  H   H316      1.0  0.15553  0.74456  0.29948  1.0000
  H   H317      1.0  0.16649  0.76738  0.35296  1.0000
  H   H318      1.0  0.19183  0.77489  0.34977  1.0000
  H   H319      1.0  0.15787  0.82998  0.36143  1.0000
  H   H320      1.0  0.18213  0.84361  0.35163  1.0000
  H   H321      1.0  0.13434  0.78637  0.27605  1.0000
  H   H322      1.0  0.13713  0.79878  0.32327  1.0000
  H   H323      1.0  0.18966  0.71962  0.32139  1.0000
  H   H324      1.0  0.19684  0.72150  0.27386  1.0000
  H   H325      1.0  0.19437  0.85372  0.28795  1.0000
  H   H326      1.0  0.20955  0.83089  0.32141  1.0000
  H   H327      1.0  0.22941  0.86242  0.27701  1.0000
  H   H328      1.0  0.23376  0.81504  0.27212  1.0000
  H   H329      1.0  0.21850  0.83923  0.23954  1.0000
  H   H330      1.0  0.19469  0.81056  0.40618  1.0000
  H   H331      1.0  0.17561  0.84281  0.41779  1.0000
  H   H332      1.0  0.17014  0.79622  0.41595  1.0000
  H   H333      1.0  0.12755  0.84953  0.25893  1.0000
  H   H334      1.0  0.11058  0.83413  0.29271  1.0000
  H   H335      1.0  0.12995  0.86275  0.30623  1.0000
  H   H336      1.0  0.16161  0.68147  0.30366  1.0000
  H   H337      1.0  0.16980  0.68326  0.25659  1.0000
  H   H338      1.0  0.18510  0.66248  0.29096  1.0000
  H   H339      1.0  0.28577  0.89856  0.37448  1.0000
  H   H340      1.0  0.22945  0.60997  0.14896  1.0000
  H   H341      1.0  0.27215  0.82261  0.36033  1.0000
  C   C193      1.0  0.07578  0.96527  0.28222  1.0000
  C   C194      1.0  0.08329  0.53319  0.42841  1.0000
  H   H342      1.0  0.02675  0.97138  0.40758  1.0000
  H   H343      1.0  0.32154  0.86075  0.25237  1.0000
  H   H344      1.0  0.06078  0.53610  0.23317  1.0000
  H   H345      1.0  0.29976  0.55690  0.43562  1.0000
  N   N9        1.0  0.06712  0.95951  0.42304  1.0000
  H   H346      1.0  0.04442  0.55776  0.31485  1.0000
  S   S47       1.0  0.33581  0.99313  0.35877  1.0000
  H   H347      1.0  0.22925  0.59956  0.19602  1.0000
  C   C195      1.0  0.02165  0.93353  0.36486  1.0000
  C   C196      1.0  0.27259  0.59073  0.19323  1.0000
  H   H348      1.0  0.24938  0.57632  0.11057  1.0000
  H   H349      1.0  0.33334  0.85920  0.29617  1.0000
  C   C197      1.0  0.24391  0.64738  0.18473  1.0000
  C   C198      1.0  0.23023  0.53333  0.15879  1.0000
  C   C199      1.0  0.03248  0.94471  0.39931  1.0000
  H   H350      1.0  0.32662  0.76632  0.40543  1.0000
  H   H351      1.0  0.31301  0.60302  0.20234  1.0000
  C   C200      1.0  0.29043  0.56418  0.19299  1.0000
  H   H352      1.0  0.24849  0.92517  0.02397  1.0000
  C   C201      1.0  0.17472  0.51686  0.06954  1.0000
  H   H353      1.0  0.09438  0.92801  0.42382  1.0000
  H   H354      1.0  0.21920  0.67279  0.15600  1.0000
  H   H355      1.0  0.28502  0.63420  0.06339  1.0000
  H   H356      1.0  0.02885  0.92534  0.42098  1.0000
  H   H357      1.0  0.24954  0.64765  0.21320  1.0000
  H   H358      1.0  0.23837  0.93594  0.17148  1.0000
  H   H359      1.0  0.05710  0.96002  0.36678  1.0000
  C   C202      1.0  0.29650  0.76030  0.33474  1.0000
  H   H360      1.0  0.27826  0.61749  0.18773  1.0000
  H   H361      1.0  0.26654  0.87602  0.39776  1.0000
  S   S48       1.0  0.17524  0.00235  0.12283  1.0000
  C   C203      1.0  0.08948  0.51962  0.14560  1.0000
  H   H362      1.0  0.24531  0.95058  0.12662  1.0000
  C   C204      1.0  0.06284  0.93832  0.45710  1.0000
  C   C205      1.0  0.08987  0.56018  0.14291  1.0000
  C   C206      1.0  0.33872  0.76725  0.38635  1.0000
  H   H363      1.0  0.07133  0.93791  0.28255  1.0000
  H   H364      1.0  0.02440  0.95219  0.34203  1.0000
  N   N10       1.0  0.29732  0.81821  0.29623  1.0000
  C   C207      1.0  0.29809  0.84073  0.33032  1.0000
  H   H365      1.0  0.11993  0.51370  0.12882  1.0000
  C   C208      1.0  0.28551  0.83845  0.26780  1.0000
  C   C209      1.0  0.28582  0.82235  0.22873  1.0000
  H   H366      1.0  0.31822  0.79070  0.26053  1.0000
  H   H367      1.0  0.09742  0.97442  0.42887  1.0000
  H   H368      1.0  0.16682  0.57310  0.01225  1.0000
  H   H369      1.0  0.30388  0.86729  0.32368  1.0000
  H   H370      1.0  0.30875  0.82904  0.35024  1.0000
  H   H371      1.0  0.09889  0.56830  0.11919  1.0000
  N   N11       1.0  0.06158  0.52997  0.42220  1.0000
  H   H372      1.0  0.29017  0.86645  0.26588  1.0000
  H   H373      1.0  0.05140  0.57929  0.44761  1.0000
  H   H374      1.0  0.30089  0.82071  0.21740  1.0000
  H   H375      1.0  0.25967  0.96288  0.16566  1.0000
  H   H376      1.0  0.12113  0.55607  0.41525  1.0000
  H   H377      1.0  0.07151  0.97426  0.50145  1.0000
  H   H378      1.0  0.24423  0.99808  0.21436  1.0000
  H   H379      1.0  0.26945  0.73401  0.34890  1.0000
  H   H380      1.0  0.08986  0.93102  0.35876  1.0000
  C   C210      1.0  0.04948  0.55014  0.45050  1.0000
  H   H381      1.0  0.02640  0.90619  0.35644  1.0000
  C   C211      1.0  0.26217  0.58130  0.12838  1.0000
  H   H382      1.0  0.24654  0.54407  0.20785  1.0000
  C   C212      1.0  0.03642  0.53946  0.36940  1.0000
  H   H383      1.0  0.28475  0.71019  0.31576  1.0000
  C   C213      1.0  0.27136  0.61530  0.11310  1.0000
  H   H384      1.0  0.23528  0.96643  0.34643  1.0000
  H   H385      1.0  0.09594  0.57178  0.16821  1.0000
  H   H386      1.0  0.27979  0.79531  0.22873  1.0000
  C   C214      1.0  0.06242  0.99261  0.29351  1.0000
  H   H387      1.0  0.05842  0.57569  0.38626  1.0000
  H   H388      1.0  0.27251  0.55836  0.12319  1.0000
  H   H389      1.0  0.25517  0.65867  0.16677  1.0000
  N   N12       1.0  0.25592  0.58230  0.16796  1.0000
  C   C215      1.0  0.11297  0.57118  0.43689  1.0000
  H   H390      1.0  0.27986  0.87182  0.19924  1.0000
  C   C216      1.0  0.05487  0.94503  0.39249  1.0000
  C   C217      1.0  0.16361  0.97190  0.05698  1.0000
  C   C218      1.0  0.32974  0.84325  0.27167  1.0000
  H   H391      1.0  0.08867  0.58516  0.40272  1.0000
  H   H392      1.0  0.26272  0.51278  0.28848  1.0000
  C   C219      1.0  0.24458  0.95829  0.15591  1.0000
  C   C220      1.0  0.05703  0.54629  0.38527  1.0000
  C   C221      1.0  0.31799  0.81040  0.28328  1.0000
  H   H393      1.0  0.26673  0.60150  0.05585  1.0000
  H   H394      1.0  0.06785  0.53639  0.36436  1.0000
  H   H395      1.0  0.28645  0.53854  0.20565  1.0000
  S   S49       1.0  0.33636  0.96326  0.46710  1.0000
  H   H396      1.0  0.12080  0.95586  0.33879  1.0000
  H   H397      1.0  0.32677  0.79729  0.30531  1.0000
  C   C222      1.0  0.15445  0.51595  0.06467  1.0000
  C   C223      1.0  0.11700  0.95627  0.36837  1.0000
  H   H398      1.0  0.03535  0.51116  0.36122  1.0000
  H   H399      1.0  0.31950  0.55830  0.21658  1.0000
  C   C224      1.0  0.27885  0.60925  0.07408  1.0000
  C   C225      1.0  0.09479  0.95533  0.37291  1.0000
  H   H400      1.0  0.26796  0.52793  0.49777  1.0000
  H   H401      1.0  0.04735  0.94276  0.46589  1.0000
  S   S50       1.0  0.13041  0.51431  0.26494  1.0000
  C   C226      1.0  0.07518  0.94697  0.49139  1.0000
  H   H402      1.0  0.08795  0.52050  0.45439  1.0000
  H   H403      1.0  0.26066  0.52498  0.17158  1.0000
  H   H404      1.0  0.11622  0.55895  0.46391  1.0000
  H   H405      1.0  0.23237  0.53108  0.12880  1.0000
  H   H406      1.0  0.11606  0.51485  0.17653  1.0000
  C   C227      1.0  0.23167  0.99198  0.16029  1.0000
  H   H407      1.0  0.16551  0.62093  0.01512  1.0000
  H   H408      1.0  0.27715  0.58359  0.47832  1.0000
  C   C228      1.0  0.27225  0.51188  0.47346  1.0000
  C   C229      1.0  0.10464  0.50970  0.26997  1.0000
  C   C230      1.0  0.15730  0.59710  0.00719  1.0000
  N   N13       1.0  0.29418  0.51018  0.46814  1.0000
  H   H409      1.0  0.31861  0.60709  0.49707  1.0000
  H   H410      1.0  0.32481  0.51701  0.41366  1.0000
  H   H411      1.0  0.09157  0.51819  0.40667  1.0000
  H   H412      1.0  0.07989  0.51299  0.16897  1.0000
  H   H413      1.0  0.29426  0.99510  0.49070  1.0000
  C   C231      1.0  0.22999  0.00389  0.20091  1.0000
  H   H414      1.0  0.15508  0.94933  0.00534  1.0000
  C   C232      1.0  0.05280  0.53980  0.49101  1.0000
  C   C233      1.0  0.27868  0.00369  0.49485  1.0000
  H   H415      1.0  0.29608  0.63246  0.50313  1.0000
  H   H416      1.0  0.06847  0.53642  0.49802  1.0000
  H   H417      1.0  0.04530  0.51466  0.49692  1.0000
  H   H418      1.0  0.08154  0.54252  0.72582  1.0000
  S   S51       1.0  0.03370  0.57628  0.67539  1.0000
  H   H419      1.0  0.07497  0.83208  0.75173  1.0000
  Fe  Fe24      1.0  0.02815  0.55390  0.73170  1.0000
  S   S52       1.0  0.04889  0.53511  0.77778  1.0000
  H   H420      1.0  0.04460  0.55838  0.54536  1.0000
  S   S53       1.0  0.03566  0.91434  0.68438  1.0000
  Fe  Fe25      1.0  0.00864  0.88914  0.70675  1.0000
  C   C234      1.0  0.09912  0.59466  0.88776  1.0000
  Fe  Fe26      1.0  0.02813  0.96143  0.72073  1.0000
  H   H421      1.0  0.09637  0.95097  0.78623  1.0000
  H   H422      1.0  0.09751  0.85616  0.81971  1.0000
  S   S54       1.0  0.02077  0.93837  0.58140  1.0000
  C   C235      1.0  0.09297  0.79390  0.78018  1.0000
  H   H423      1.0  0.27675  0.98004  0.56357  1.0000
  H   H424      1.0  0.08157  0.63915  0.91006  1.0000
  H   H425      1.0  0.05254  0.59296  0.51505  1.0000
  H   H426      1.0  0.15903  0.55144  0.89344  1.0000
  C   C236      1.0  0.33991  0.98903  0.53728  1.0000
  H   H427      1.0  0.17722  0.92550  0.94547  1.0000
  C   C237      1.0  0.06725  0.90413  0.80878  1.0000
  H   H428      1.0  0.13317  0.55300  0.84069  1.0000
  C   C238      1.0  0.15176  0.59937  0.96678  1.0000
  H   H429      1.0  0.06933  0.89099  0.83582  1.0000
  H   H430      1.0  0.10726  0.90110  0.85083  1.0000
  S   S55       1.0  0.01142  0.83345  0.73294  1.0000
  H   H431      1.0  0.26648  0.93566  0.98979  1.0000
  H   H432      1.0  0.08231  0.93488  0.67622  1.0000
  C   C239      1.0  0.08012  0.90472  0.74549  1.0000
  H   H433      1.0  0.29641  0.95455  0.60883  1.0000
  S   S56       1.0  0.00990  0.98924  0.67765  1.0000
  C   C240      1.0  0.04409  0.56826  0.51673  1.0000
  C   C241      1.0  0.08711  0.52985  0.75037  1.0000
  C   C242      1.0  0.25103  0.92827  0.99415  1.0000
  H   H434      1.0  0.06904  0.88621  0.73542  1.0000
  H   H435      1.0  0.09182  0.94067  0.85176  1.0000
  C   C243      1.0  0.12240  0.94976  0.84487  1.0000
  C   C244      1.0  0.01285  0.96640  0.51323  1.0000
  H   H436      1.0  0.16571  0.60071  0.95126  1.0000
  H   H437      1.0  0.31535  0.92982  0.66020  1.0000
  H   H438      1.0  0.21166  0.91529  0.92377  1.0000
  H   H439      1.0  0.15587  0.57751  0.79592  1.0000
  H   H440      1.0  0.08332  0.77168  0.77313  1.0000
  H   H441      1.0  0.15025  0.54269  0.95741  1.0000
  C   C245      1.0  0.10729  0.52120  0.75368  1.0000
  Fe  Fe27      1.0  0.01508  0.94042  0.64317  1.0000
  C   C246      1.0  0.08762  0.62990  0.88334  1.0000
  H   H442      1.0  0.08015  0.88724  0.67082  1.0000
  H   H443      1.0  0.10816  0.85759  0.77594  1.0000
  N   N14       1.0  0.22568  0.98647  0.91807  1.0000
  H   H444      1.0  0.29957  0.00036  0.55851  1.0000
  C   C247      1.0  0.14208  0.57550  0.84934  1.0000
  H   H445      1.0  0.09915  0.78884  0.80780  1.0000
  C   C248      1.0  0.07428  0.52294  0.77922  1.0000
  C   C249      1.0  0.01421  0.72473  0.72289  1.0000
  C   C250      1.0  0.29689  0.97048  0.63434  1.0000
  H   H446      1.0  0.10279  0.90806  0.65964  1.0000
  H   H447      1.0  0.33520  0.96301  0.54549  1.0000
  C   C251      1.0  0.07082  0.92142  0.52265  1.0000
  C   C252      1.0  0.08110  0.82906  0.77956  1.0000
  C   C253      1.0  0.25013  0.00342  0.86653  1.0000
  C   C254      1.0  0.09740  0.90298  0.71790  1.0000
  H   H448      1.0  0.10911  0.60252  0.94265  1.0000
  H   H449      1.0  0.20463  0.93173  0.87918  1.0000
  H   H450      1.0  0.29116  0.56948  0.51731  1.0000
  N   N15       1.0  0.08518  0.89763  0.78500  1.0000
  H   H451      1.0  0.04742  0.86601  0.78177  1.0000
  H   H452      1.0  0.10791  0.92421  0.72361  1.0000
  H   H453      1.0  0.31598  0.97284  0.68180  1.0000
  H   H454      1.0  0.12863  0.56330  0.97606  1.0000
  H   H455      1.0  0.00751  0.66790  0.80076  1.0000
  H   H456      1.0  0.24197  0.93652  0.92418  1.0000
  C   C255      1.0  0.11622  0.59824  0.91546  1.0000
  C   C256      1.0  0.20517  0.97314  0.92204  1.0000
  C   C257      1.0  0.20193  0.93448  0.90896  1.0000
  C   C258      1.0  0.16033  0.57532  0.82502  1.0000
  C   C259      1.0  0.08185  0.50644  0.81094  1.0000
  H   H457      1.0  0.03471  0.87826  0.84560  1.0000
  H   H458      1.0  0.10523  0.87672  0.71889  1.0000
  H   H459      1.0  0.28511  0.50951  0.54346  1.0000
  H   H460      1.0  0.15507  0.59839  0.89574  1.0000
  H   H461      1.0  0.19999  0.97454  0.95077  1.0000
  C   C260      1.0  0.10050  0.92379  0.79609  1.0000
  C   C261      1.0  0.24052  0.96299  0.93776  1.0000
  H   H462      1.0  0.11521  0.53130  0.88319  1.0000
  H   H463      1.0  0.13387  0.60090  0.84399  1.0000
  H   H464      1.0  0.10414  0.58599  0.86032  1.0000
  H   H465      1.0  0.07524  0.62620  0.86424  1.0000
  H   H466      1.0  0.08867  0.57469  0.89736  1.0000
  H   H467      1.0  0.28430  0.96369  0.65196  1.0000
  H   H468      1.0  0.07298  0.93164  0.74297  1.0000
  C   C262      1.0  0.03109  0.89591  0.82209  1.0000
  S   S57       1.0  0.04448  0.98958  0.76647  1.0000
  C   C263      1.0  0.23698  0.95707  0.97909  1.0000
  C   C264      1.0  0.14016  0.56647  0.95489  1.0000
  H   H469      1.0  0.23982  0.98189  0.99435  1.0000
  H   H470      1.0  0.11499  0.51181  0.96483  1.0000
  H   H471      1.0  0.23190  0.95795  0.86747  1.0000
  H   H472      1.0  0.09714  0.65055  0.87181  1.0000
  H   H473      1.0  0.22192  0.94858  0.98501  1.0000
  C   C265      1.0  0.14765  0.57311  0.89020  1.0000
  C   C266      1.0  0.00750  0.71846  0.68741  1.0000
  H   H474      1.0  0.12364  0.62357  0.90950  1.0000
  N   N16       1.0  0.13120  0.56781  0.91714  1.0000
  H   H475      1.0  0.02909  0.92384  0.83175  1.0000
  H   H476      1.0  0.12453  0.95298  0.87477  1.0000
  C   C267      1.0  0.10450  0.92732  0.83776  1.0000
  H   H477      1.0  0.25531  0.97426  0.93571  1.0000
  H   H478      1.0  0.17047  0.94146  0.90048  1.0000
  H   H479      1.0  0.16896  0.54998  0.82829  1.0000
  H   H480      1.0  0.04281  0.91145  0.77045  1.0000
  H   H481      1.0  0.16968  0.59803  0.83176  1.0000
  H   H482      1.0  0.24853  0.90229  0.98069  1.0000
  H   H483      1.0  0.12042  0.97665  0.83267  1.0000
  H   H484      1.0  0.06902  0.82643  0.79963  1.0000
  H   H485      1.0  0.13420  0.51090  0.90855  1.0000
  C   C268      1.0  0.11486  0.50505  0.78553  1.0000
  C   C269      1.0  0.09388  0.86060  0.79049  1.0000
  H   H486      1.0  0.10506  0.79428  0.75980  1.0000
  C   C270      1.0  0.09015  0.90864  0.67880  1.0000
  H   H487      1.0  0.11480  0.91690  0.78278  1.0000
  C   C271      1.0  0.04718  0.89326  0.79303  1.0000
  H   H488      1.0  0.02859  0.57466  0.50975  1.0000
  H   H489      1.0  0.06521  0.93318  0.81461  1.0000
  H   H490      1.0  0.05501  0.92300  0.52992  1.0000
  H   H491      1.0  0.25648  0.97063  0.81837  1.0000
  H   H492      1.0  0.09669  0.54163  0.94649  1.0000
  H   H493      1.0  0.13582  0.93671  0.83314  1.0000
  H   H494      1.0  0.14305  0.62441  0.96250  1.0000
  H   H495      1.0  0.07930  0.92873  0.54723  1.0000
  C   C272      1.0  0.18085  0.92378  0.91587  1.0000
  C   C273      1.0  0.12242  0.53207  0.91020  1.0000
  H   H496      1.0  0.30936  0.52719  0.54323  1.0000
  H   H497      1.0  0.17893  0.89596  0.90666  1.0000
  C   C274      1.0  0.16303  0.00400  0.99850  1.0000
  H   H498      1.0  0.07638  0.99546  0.71272  1.0000
  C   C275      1.0  0.01686  0.97398  0.55010  1.0000
  C   C276      1.0  0.10739  0.51998  0.93932  1.0000
  C   C277      1.0  0.31540  0.95893  0.65504  1.0000
  Fe  Fe28      1.0  0.00882  0.61611  0.68763  1.0000
  H   H499      1.0  0.11712  0.52733  0.73147  1.0000
  H   H500      1.0  0.22333  0.99289  0.62657  1.0000
  H   H501      1.0  0.21876  0.99930  0.86175  1.0000
  H   H502      1.0  0.32871  0.96479  0.63887  1.0000
  H   H503      1.0  0.01847  0.70243  0.74007  1.0000
  Fe  Fe29      1.0  0.01012  0.53951  0.65673  1.0000
  C   C278      1.0  0.23073  0.98578  0.87776  1.0000
  H   H504      1.0  0.26013  0.98625  0.62000  1.0000
  H   H505      1.0  0.26289  0.99117  0.88088  1.0000
  S   S58       1.0  0.15862  0.00335  0.95050  1.0000
  H   H506      1.0  0.07496  0.89359  0.51494  1.0000
  H   H507      1.0  0.01709  0.88731  0.81015  1.0000
  H   H508      1.0  0.19477  0.99102  0.90687  1.0000
  H   H509      1.0  0.01206  0.93898  0.50450  1.0000
  C   C279      1.0  0.25395  0.99912  0.82553  1.0000
  C   C280      1.0  0.01016  0.78955  0.71418  1.0000
  C   C281      1.0  0.01546  0.75999  0.73615  1.0000
  H   H510      1.0  0.02057  0.76439  0.76366  1.0000
  Fe  Fe30      1.0  0.50923  0.40891  0.16651  1.0000
  S   S59       1.0  0.48516  0.45024  0.15563  1.0000
  S   S60       1.0  0.50814  0.35192  0.14395  1.0000
  Fe  Fe31      1.0  0.53465  0.46293  0.20680  1.0000
  H   H511      1.0  0.67238  0.47439  0.39976  1.0000
  Fe  Fe32      1.0  0.48968  0.46806  0.21359  1.0000
  H   H512      1.0  0.65135  0.45263  0.13452  1.0000
  Fe  Fe33      1.0  0.50949  0.48694  0.14110  1.0000
  H   H513      1.0  0.45342  0.24856  0.23237  1.0000
  S   S61       1.0  0.51214  0.42424  0.22530  1.0000
  S   S62       1.0  0.53333  0.44474  0.14803  1.0000
  Fe  Fe34      1.0  0.53305  0.08857  0.21555  1.0000
  S   S63       1.0  0.50660  0.10844  0.24684  1.0000
  S   S64       1.0  0.56129  0.09054  0.24916  1.0000
  Fe  Fe35      1.0  0.50868  0.08286  0.14510  1.0000
  S   S65       1.0  0.48056  0.10223  0.17296  1.0000
  S   S66       1.0  0.51250  0.07786  0.08278  1.0000
  Fe  Fe36      1.0  0.49936  0.14378  0.19895  1.0000
  S   S67       1.0  0.49089  0.20099  0.21654  1.0000
  Fe  Fe37      1.0  0.48996  0.06560  0.21921  1.0000
  C   C282      1.0  0.55940  0.07764  0.01367  1.0000
  S   S68       1.0  0.52682  0.12649  0.16923  1.0000
  S   S69       1.0  0.51700  0.04363  0.18970  1.0000
  H   H514      1.0  0.57435  0.07602  0.02544  1.0000
  C   C283      1.0  0.57882  0.05626  0.25995  1.0000
  C   C284      1.0  0.43798  0.25803  0.22872  1.0000
  H   H515      1.0  0.52032  0.09051  0.37234  1.0000
  H   H516      1.0  0.40286  0.05083  0.24204  1.0000
  C   C285      1.0  0.43404  0.04239  0.24932  1.0000
  S   S70       1.0  0.46612  0.47457  0.25798  1.0000
  H   H517      1.0  0.54653  0.06079  0.33493  1.0000
  H   H518      1.0  0.63634  0.48730  0.25955  1.0000
  H   H519      1.0  0.64217  0.47857  0.19413  1.0000
  H   H520      1.0  0.45359  0.47600  0.02520  1.0000
  C   C286      1.0  0.44884  0.02633  0.27052  1.0000
  C   C287      1.0  0.58259  0.02731  0.23667  1.0000
  C   C288      1.0  0.50391  0.31003  0.16487  1.0000
  C   C289      1.0  0.50128  0.30644  0.20259  1.0000
  C   C290      1.0  0.49702  0.27305  0.21776  1.0000
  C   C291      1.0  0.49613  0.24244  0.19568  1.0000
  C   C292      1.0  0.49927  0.24580  0.15806  1.0000
  C   C293      1.0  0.50299  0.27943  0.14278  1.0000
  H   H521      1.0  0.50263  0.32940  0.21996  1.0000
  H   H522      1.0  0.49472  0.27080  0.24690  1.0000
  H   H523      1.0  0.49856  0.22259  0.14064  1.0000
  H   H524      1.0  0.50510  0.28177  0.11356  1.0000
  H   H525      1.0  0.50511  0.09542  0.33208  1.0000
  C   C294      1.0  0.59016  0.05948  0.29174  1.0000
  H   H526      1.0  0.43630  0.48310  0.31290  1.0000
  H   H527      1.0  0.62881  0.11829  0.22217  1.0000
  C   C295      1.0  0.53133  0.06148  0.32444  1.0000
  S   S71       1.0  0.38332  0.01337  0.29937  1.0000
  H   H528      1.0  0.62230  0.07295  0.21347  1.0000
  H   H529      1.0  0.39818  0.45490  0.23736  1.0000
  H   H530      1.0  0.58736  0.08172  0.31002  1.0000
  C   C296      1.0  0.52044  0.09325  0.34212  1.0000
  H   H531      1.0  0.66177  0.09753  0.24336  1.0000
  C   C297      1.0  0.50802  0.04390  0.05003  1.0000
  H   H532      1.0  0.42968  0.25336  0.25434  1.0000
  H   H533      1.0  0.59813  0.46336  0.28252  1.0000
  H   H534      1.0  0.36841  0.47020  0.49430  1.0000
  H   H535      1.0  0.62736  0.08731  0.25956  1.0000
  C   C298      1.0  0.41415  0.03847  0.25884  1.0000
  C   C299      1.0  0.60528  0.03435  0.29998  1.0000
  H   H536      1.0  0.43150  0.24205  0.20653  1.0000
  H   H537      1.0  0.64963  0.49544  0.32208  1.0000
  H   H538      1.0  0.65715  0.08593  0.19641  1.0000
  H   H539      1.0  0.66073  0.47524  0.24329  1.0000
  C   C300      1.0  0.57501  0.49806  0.26191  1.0000
  N   N17       1.0  0.44542  0.36025  0.24314  1.0000
  C   C301      1.0  0.42429  0.37324  0.24503  1.0000
  C   C302      1.0  0.44651  0.32036  0.24826  1.0000
  C   C303      1.0  0.45576  0.37654  0.27527  1.0000
  C   C304      1.0  0.45549  0.37075  0.20804  1.0000
  C   C305      1.0  0.44283  0.37157  0.17270  1.0000
  C   C306      1.0  0.42103  0.41440  0.24524  1.0000
  C   C307      1.0  0.47769  0.36580  0.28020  1.0000
  C   C308      1.0  0.43700  0.29748  0.21843  1.0000
  C   C309      1.0  0.45530  0.36585  0.13833  1.0000
  C   C310      1.0  0.40000  0.42545  0.23551  1.0000
  C   C311      1.0  0.48700  0.38780  0.31031  1.0000
  H   H540      1.0  0.41723  0.36303  0.27029  1.0000
  H   H541      1.0  0.41555  0.36227  0.22254  1.0000
  H   H542      1.0  0.46199  0.31052  0.24888  1.0000
  H   H543      1.0  0.44001  0.31322  0.27518  1.0000
  H   H544      1.0  0.44804  0.37043  0.30131  1.0000
  H   H545      1.0  0.45530  0.40595  0.27299  1.0000
  H   H546      1.0  0.46162  0.39781  0.21052  1.0000
  H   H547      1.0  0.46852  0.35289  0.20312  1.0000
  H   H548      1.0  0.43498  0.39780  0.17035  1.0000
  H   H549      1.0  0.43163  0.35107  0.17222  1.0000
  H   H550      1.0  0.42390  0.42501  0.27302  1.0000
  H   H551      1.0  0.43100  0.42761  0.22590  1.0000
  H   H552      1.0  0.48590  0.37042  0.25465  1.0000
  H   H553      1.0  0.47959  0.33745  0.28818  1.0000
  H   H554      1.0  0.42138  0.30518  0.21433  1.0000
  H   H555      1.0  0.44514  0.29992  0.19227  1.0000
  H   H556      1.0  0.46246  0.33888  0.13848  1.0000
  H   H557      1.0  0.44595  0.36824  0.11366  1.0000
  H   H558      1.0  0.46677  0.38593  0.13647  1.0000
  H   H559      1.0  0.38954  0.41337  0.25483  1.0000
  H   H560      1.0  0.49708  0.49756  0.34185  1.0000
  H   H561      1.0  0.39658  0.41719  0.20714  1.0000
  H   H562      1.0  0.47959  0.38340  0.33692  1.0000
  H   H563      1.0  0.50272  0.37986  0.31297  1.0000
  H   H564      1.0  0.48599  0.41660  0.30353  1.0000
  N   N18       1.0  0.55845  0.21544  0.25212  1.0000
  C   C312      1.0  0.53766  0.20651  0.26162  1.0000
  C   C313      1.0  0.56213  0.20976  0.21164  1.0000
  C   C314      1.0  0.57178  0.18975  0.27278  1.0000
  C   C315      1.0  0.56333  0.25273  0.26360  1.0000
  C   C316      1.0  0.55021  0.28357  0.24832  1.0000
  C   C317      1.0  0.53202  0.20838  0.30272  1.0000
  C   C318      1.0  0.59392  0.19044  0.26308  1.0000
  C   C319      1.0  0.54508  0.21917  0.18513  1.0000
  C   C320      1.0  0.55178  0.21708  0.14528  1.0000
  C   C321      1.0  0.55461  0.31889  0.26685  1.0000
  C   C322      1.0  0.51024  0.20196  0.30834  1.0000
  C   C323      1.0  0.60545  0.16179  0.28430  1.0000
  H   H565      1.0  0.53458  0.17910  0.25182  1.0000
  H   H566      1.0  0.52706  0.22410  0.24702  1.0000
  H   H567      1.0  0.57512  0.22467  0.20262  1.0000
  H   H568      1.0  0.56574  0.18106  0.20602  1.0000
  H   H569      1.0  0.56699  0.16199  0.26859  1.0000
  H   H570      1.0  0.57078  0.19471  0.30271  1.0000
  H   H571      1.0  0.56341  0.25493  0.29393  1.0000
  H   H572      1.0  0.57848  0.25879  0.25501  1.0000
  H   H573      1.0  0.53447  0.27903  0.25265  1.0000
  H   H574      1.0  0.55320  0.28716  0.21877  1.0000
  H   H575      1.0  0.54015  0.18752  0.31846  1.0000
  H   H576      1.0  0.53505  0.23485  0.31442  1.0000
  H   H577      1.0  0.60004  0.21652  0.27021  1.0000
  H   H578      1.0  0.59659  0.18526  0.23359  1.0000
  H   H579      1.0  0.53323  0.19996  0.18860  1.0000
  H   H580      1.0  0.53863  0.24603  0.18993  1.0000
  H   H581      1.0  0.56312  0.23693  0.13977  1.0000
  H   H582      1.0  0.55771  0.18994  0.13871  1.0000
  H   H583      1.0  0.53911  0.22296  0.12708  1.0000
  H   H584      1.0  0.55127  0.31773  0.29655  1.0000
  H   H585      1.0  0.57021  0.32547  0.26289  1.0000
  H   H586      1.0  0.54537  0.34059  0.25457  1.0000
  H   H587      1.0  0.50119  0.22314  0.29482  1.0000
  H   H588      1.0  0.50635  0.17573  0.29689  1.0000
  H   H589      1.0  0.50669  0.20218  0.33798  1.0000
  H   H590      1.0  0.60040  0.13496  0.27674  1.0000
  H   H591      1.0  0.62126  0.16309  0.27758  1.0000
  H   H592      1.0  0.60357  0.16571  0.31422  1.0000
  C   C324      1.0  0.51212  0.49313  0.03028  1.0000
  C   C325      1.0  0.66040  0.03006  0.50188  1.0000
  H   H593      1.0  0.43788  0.05751  0.22534  1.0000
  C   C326      1.0  0.52066  0.02636  0.33178  1.0000
  C   C327      1.0  0.43276  0.50181  0.29130  1.0000
  C   C328      1.0  0.63161  0.09018  0.23041  1.0000
  H   H594      1.0  0.52787  0.11814  0.33486  1.0000
  H   H595      1.0  0.51468  0.45756  0.29763  1.0000
  C   C329      1.0  0.65213  0.49224  0.26271  1.0000
  H   H596      1.0  0.61399  0.03734  0.32436  1.0000
  H   H597      1.0  0.51346  0.46899  0.04628  1.0000
  H   H598      1.0  0.53180  0.06650  0.29474  1.0000
  C   C330      1.0  0.52275  0.47213  0.31886  1.0000
  S   S72       1.0  0.56348  0.46287  0.23862  1.0000
  H   H599      1.0  0.50625  0.02981  0.31793  1.0000
  H   H600      1.0  0.52485  0.45440  0.34286  1.0000
  C   C331      1.0  0.65811  0.48019  0.30107  1.0000
  H   H601      1.0  0.65515  0.45152  0.30454  1.0000
  H   H602      1.0  0.53739  0.47879  0.30797  1.0000
  C   C332      1.0  0.64764  0.49652  0.17276  1.0000
  H   H603      1.0  0.54157  0.01595  0.26904  1.0000
  C   C333      1.0  0.40872  0.01859  0.28968  1.0000
  H   H604      1.0  0.55196  0.10263  0.02339  1.0000
  H   H605      1.0  0.51748  0.02499  0.36166  1.0000
  H   H606      1.0  0.35066  0.03625  0.46107  1.0000
  S   S73       1.0  0.47415  0.02793  0.25840  1.0000
  C   C334      1.0  0.65729  0.04008  0.23379  1.0000
  C   C335      1.0  0.65329  0.08010  0.22525  1.0000
  C   C336      1.0  0.59232  0.49045  0.28156  1.0000
  C   C337      1.0  0.66020  0.47413  0.14621  1.0000
  H   H607      1.0  0.57425  0.02484  0.21181  1.0000
  C   C338      1.0  0.34873  0.03005  0.48969  1.0000
  C   C339      1.0  0.50302  0.00943  0.06007  1.0000
  S   S74       1.0  0.65101  0.03100  0.45662  1.0000
  H   H608      1.0  0.66551  0.49084  0.12342  1.0000
  H   H609      1.0  0.67295  0.46164  0.16060  1.0000
  H   H610      1.0  0.64895  0.02529  0.21305  1.0000
  C   C340      1.0  0.51008  0.05178  0.01258  1.0000
  S   S75       1.0  0.67015  0.00787  0.35575  1.0000
  H   H611      1.0  0.65024  0.03438  0.26059  1.0000
  H   H612      1.0  0.55098  0.05488  0.02399  1.0000
  C   C341      1.0  0.44489  0.50315  0.26019  1.0000
  C   C342      1.0  0.44340  0.00679  0.30159  1.0000
  C   C343      1.0  0.60937  0.00589  0.27619  1.0000
  H   H613      1.0  0.51375  0.07843  0.00450  1.0000
  H   H614      1.0  0.55125  0.00548  0.36299  1.0000
  H   H615      1.0  0.56189  0.00591  0.31870  1.0000
  Fe  Fe38      1.0  0.66114  0.47481  0.72220  1.0000
  S   S76       1.0  0.64769  0.43764  0.68233  1.0000
  H   H616      1.0  0.60327  0.45724  0.80930  1.0000
  C   C344      1.0  0.34601  0.30588  0.67645  1.0000
  S   S77       1.0  0.66556  0.04074  0.72541  1.0000
  H   H617      1.0  0.58128  0.03277  0.97417  1.0000
  H   H618      1.0  0.34252  0.00828  0.59285  1.0000
  H   H619      1.0  0.62890  0.44284  0.60452  1.0000
  C   C345      1.0  0.61320  0.45027  0.60845  1.0000
  H   H620      1.0  0.41586  0.18455  0.82789  1.0000
  H   H621      1.0  0.65805  0.46189  0.50958  1.0000
  C   C346      1.0  0.61053  0.09249  0.85974  1.0000
  C   C347      1.0  0.58967  0.06380  0.90901  1.0000
  C   C348      1.0  0.38983  0.13400  0.78755  1.0000
  C   C349      1.0  0.53067  0.08831  0.86460  1.0000
  Fe  Fe39      1.0  0.64397  0.08731  0.72566  1.0000
  S   S78       1.0  0.61191  0.08921  0.74471  1.0000
  S   S79       1.0  0.65091  0.10434  0.66777  1.0000
  H   H622      1.0  0.56167  0.09345  0.86219  1.0000
  Fe  Fe40      1.0  0.36820  0.45599  0.72567  1.0000
  S   S80       1.0  0.37192  0.43860  0.66685  1.0000
  S   S81       1.0  0.39570  0.45858  0.76144  1.0000
  C   C350      1.0  0.35146  0.27017  0.73110  1.0000
  H   H623      1.0  0.58694  0.43964  0.93930  1.0000
  H   H624      1.0  0.40687  0.05267  0.72092  1.0000
  H   H625      1.0  0.58804  0.48704  0.94326  1.0000
  C   C351      1.0  0.48161  0.45281  0.85853  1.0000
  H   H626      1.0  0.35290  0.32764  0.72906  1.0000
  Fe  Fe41      1.0  0.35609  0.06592  0.72660  1.0000
  S   S82       1.0  0.36811  0.10656  0.68855  1.0000
  H   H627      1.0  0.60058  0.11633  0.85761  1.0000
  H   H628      1.0  0.64944  0.06378  0.58693  1.0000
  H   H629      1.0  0.57223  0.47040  0.81079  1.0000
  C   C352      1.0  0.42264  0.48202  0.87696  1.0000
  C   C353      1.0  0.56584  0.46175  0.83722  1.0000
  C   C354      1.0  0.55551  0.04526  0.89388  1.0000
  C   C355      1.0  0.64866  0.20793  0.59459  1.0000
  H   H630      1.0  0.43793  0.46454  0.65414  1.0000
  N   N19       1.0  0.57344  0.03859  0.91729  1.0000
  H   H631      1.0  0.54164  0.50115  0.83118  1.0000
  H   H632      1.0  0.66016  0.27723  0.60571  1.0000
  C   C356      1.0  0.65067  0.04999  0.52942  1.0000
  C   C357      1.0  0.39993  0.02913  0.77271  1.0000
  H   H633      1.0  0.54235  0.03472  0.90775  1.0000
  C   C358      1.0  0.66342  0.23556  0.71741  1.0000
  Fe  Fe42      1.0  0.34385  0.14316  0.70951  1.0000
  H   H634      1.0  0.59253  0.24450  0.50980  1.0000
  H   H635      1.0  0.66185  0.21080  0.61194  1.0000
  H   H636      1.0  0.41987  0.44315  0.68189  1.0000
  H   H637      1.0  0.60977  0.26707  0.56335  1.0000
  H   H638      1.0  0.49423  0.46983  0.85291  1.0000
  C   C359      1.0  0.36033  0.12442  0.82889  1.0000
  H   H639      1.0  0.55676  0.03000  0.86782  1.0000
  C   C360      1.0  0.41274  0.04096  0.74572  1.0000
  Fe  Fe43      1.0  0.34883  0.48085  0.65435  1.0000
  H   H640      1.0  0.60461  0.43532  0.58820  1.0000
  H   H641      1.0  0.53560  0.46428  0.85986  1.0000
  H   H642      1.0  0.38856  0.10781  0.77356  1.0000
  C   C361      1.0  0.59322  0.22838  0.53522  1.0000
  H   H643      1.0  0.54155  0.46143  0.77644  1.0000
  S   S83       1.0  0.34943  0.19740  0.73479  1.0000
  H   H644      1.0  0.35658  0.09925  0.81505  1.0000
  H   H645      1.0  0.51859  0.46220  0.80057  1.0000
  H   H646      1.0  0.43566  0.45985  0.78553  1.0000
  H   H647      1.0  0.60856  0.44230  0.63632  1.0000
  H   H648      1.0  0.37922  0.15180  0.77303  1.0000
  S   S84       1.0  0.34458  0.41645  0.73819  1.0000
  H   H649      1.0  0.64555  0.27188  0.75006  1.0000
  C   C362      1.0  0.59811  0.05465  0.76454  1.0000
  C   C363      1.0  0.57785  0.06035  0.77030  1.0000
  H   H650      1.0  0.42308  0.50385  0.85684  1.0000
  H   H651      1.0  0.57095  0.08533  0.76199  1.0000
  H   H652      1.0  0.63895  0.45492  0.81296  1.0000
  C   C364      1.0  0.44108  0.02152  0.78248  1.0000
  H   H653      1.0  0.38935  0.10460  0.83941  1.0000
  C   C365      1.0  0.56037  0.07745  0.97188  1.0000
  C   C366      1.0  0.59711  0.45954  0.86879  1.0000
  H   H654      1.0  0.60944  0.03644  0.86978  1.0000
  H   H655      1.0  0.45397  0.12089  0.85957  1.0000
  H   H656      1.0  0.61070  0.47623  0.72407  1.0000
  S   S85       1.0  0.66531  0.12514  0.75033  1.0000
  H   H657      1.0  0.65131  0.22502  0.57056  1.0000
  C   C367      1.0  0.66433  0.30047  0.71372  1.0000
  H   H658      1.0  0.63808  0.45878  0.86200  1.0000
  H   H659      1.0  0.43251  0.46026  0.86657  1.0000
  H   H660      1.0  0.56961  0.09974  0.96365  1.0000
  H   H661      1.0  0.60173  0.06012  0.92919  1.0000
  H   H662      1.0  0.42543  0.19678  0.78497  1.0000
  H   H663      1.0  0.64534  0.32566  0.64583  1.0000
  C   C368      1.0  0.38241  0.12903  0.82737  1.0000
  S   S86       1.0  0.46697  0.01764  0.78720  1.0000
  C   C369      1.0  0.65677  0.26953  0.72918  1.0000
  C   C370      1.0  0.41692  0.14375  0.74470  1.0000
  H   H664      1.0  0.47318  0.10868  0.82755  1.0000
  N   N20       1.0  0.41046  0.14692  0.78414  1.0000
  C   C371      1.0  0.39462  0.21070  0.79345  1.0000
  C   C372      1.0  0.34307  0.27438  0.65674  1.0000
  H   H665      1.0  0.38251  0.20342  0.81200  1.0000
  C   C373      1.0  0.40596  0.16795  0.71682  1.0000
  C   C374      1.0  0.41219  0.15875  0.67766  1.0000
  C   C375      1.0  0.39992  0.24888  0.80259  1.0000
  C   C376      1.0  0.50737  0.02561  0.98551  1.0000
  H   H666      1.0  0.43424  0.47768  0.70133  1.0000
  C   C377      1.0  0.60456  0.49936  0.73811  1.0000
  H   H667      1.0  0.62422  0.23276  0.53989  1.0000
  H   H668      1.0  0.43252  0.15055  0.74155  1.0000
  H   H669      1.0  0.41590  0.11562  0.73542  1.0000
  C   C378      1.0  0.46253  0.50369  0.89008  1.0000
  H   H670      1.0  0.61756  0.08793  0.83261  1.0000
  C   C379      1.0  0.64115  0.32260  0.61673  1.0000
  C   C380      1.0  0.41255  0.18454  0.79810  1.0000
  H   H671      1.0  0.62235  0.01744  0.77142  1.0000
  H   H672      1.0  0.38872  0.21073  0.76541  1.0000
  H   H673      1.0  0.44974  0.15486  0.80218  1.0000
  H   H674      1.0  0.52791  0.11638  0.85617  1.0000
  C   C381      1.0  0.34379  0.01477  0.56423  1.0000
  H   H675      1.0  0.55423  0.44205  0.97112  1.0000
  H   H676      1.0  0.38992  0.16541  0.71866  1.0000
  H   H677      1.0  0.40961  0.19617  0.72143  1.0000
  H   H678      1.0  0.42805  0.16314  0.67367  1.0000
  H   H679      1.0  0.40915  0.13057  0.67120  1.0000
  H   H680      1.0  0.40382  0.17603  0.65825  1.0000
  H   H681      1.0  0.41129  0.25826  0.78340  1.0000
  H   H682      1.0  0.54523  0.08246  0.96175  1.0000
  H   H683      1.0  0.40535  0.25068  0.83108  1.0000
  H   H684      1.0  0.45975  0.47845  0.95966  1.0000
  H   H685      1.0  0.45973  0.44594  0.90014  1.0000
  C   C382      1.0  0.66221  0.48767  0.51957  1.0000
  H   H686      1.0  0.45102  0.11402  0.77603  1.0000
  Fe  Fe44      1.0  0.34701  0.40221  0.67872  1.0000
  S   S87       1.0  0.66921  0.45289  0.58459  1.0000
  C   C383      1.0  0.55078  0.08443  0.88247  1.0000
  C   C384      1.0  0.42351  0.12207  0.80648  1.0000
  H   H687      1.0  0.57959  0.23387  0.55120  1.0000
  H   H688      1.0  0.62889  0.41957  0.83964  1.0000
  Fe  Fe45      1.0  0.34595  0.08727  0.64781  1.0000
  H   H689      1.0  0.66785  0.13134  0.55097  1.0000
  H   H690      1.0  0.65736  0.21195  0.72926  1.0000
  H   H691      1.0  0.53526  0.42442  0.80547  1.0000
  H   H692      1.0  0.47141  0.45383  0.83496  1.0000
  H   H693      1.0  0.55084  0.03866  0.79052  1.0000
  H   H694      1.0  0.42018  0.12527  0.83613  1.0000
  S   S88       1.0  0.34318  0.34733  0.65365  1.0000
  H   H695      1.0  0.48724  0.42497  0.86185  1.0000
  S   S89       1.0  0.37405  0.03298  0.76800  1.0000
  C   C385      1.0  0.35232  0.05598  0.51667  1.0000
  C   C386      1.0  0.56831  0.04103  0.95745  1.0000
  C   C387      1.0  0.34972  0.04866  0.55410  1.0000
  H   H696      1.0  0.55659  0.02231  0.96446  1.0000
  H   H697      1.0  0.55370  0.48788  0.90855  1.0000
  C   C388      1.0  0.51341  0.49160  0.99176  1.0000
  C   C389      1.0  0.57799  0.46487  0.93964  1.0000
  H   H698      1.0  0.38674  0.26672  0.79985  1.0000
  H   H699      1.0  0.39117  0.48951  0.88531  1.0000
  C   C390      1.0  0.61119  0.23815  0.55737  1.0000
  C   C391      1.0  0.47121  0.46511  0.89355  1.0000
  H   H700      1.0  0.42049  0.09380  0.80002  1.0000
  H   H701      1.0  0.48220  0.46383  0.91587  1.0000
  H   H702      1.0  0.51575  0.46611  0.97845  1.0000
  H   H703      1.0  0.40075  0.44514  0.89589  1.0000
  H   H704      1.0  0.44293  0.04667  0.72969  1.0000
  C   C392      1.0  0.56596  0.46807  0.90384  1.0000
  H   H705      1.0  0.57344  0.46038  0.99827  1.0000
  H   H706      1.0  0.58782  0.05567  0.84930  1.0000
  H   H707      1.0  0.59595  0.43012  0.87124  1.0000
  H   H708      1.0  0.55885  0.44189  0.90109  1.0000
  C   C393      1.0  0.60964  0.49024  0.60289  1.0000
  C   C394      1.0  0.34827  0.23870  0.71145  1.0000
  N   N21       1.0  0.63065  0.22029  0.61572  1.0000
  H   H709      1.0  0.39807  0.45922  0.84903  1.0000
  C   C395      1.0  0.63286  0.25811  0.62912  1.0000
  C   C396      1.0  0.62890  0.19628  0.64871  1.0000
  C   C397      1.0  0.61225  0.21696  0.59354  1.0000
  C   C398      1.0  0.40784  0.01354  0.80457  1.0000
  H   H710      1.0  0.64694  0.14969  0.60234  1.0000
  C   C399      1.0  0.61410  0.20866  0.67886  1.0000
  C   C400      1.0  0.64421  0.28396  0.60426  1.0000
  H   H711      1.0  0.59405  0.19977  0.52746  1.0000
  H   H712      1.0  0.62560  0.33142  0.61345  1.0000
  H   H713      1.0  0.63776  0.06594  0.52260  1.0000
  C   C401      1.0  0.61259  0.18044  0.70872  1.0000
  H   H714      1.0  0.35470  0.26869  0.75997  1.0000
  H   H715      1.0  0.51900  0.08091  0.88414  1.0000
  H   H716      1.0  0.61824  0.27052  0.63571  1.0000
  H   H717      1.0  0.64114  0.25819  0.65524  1.0000
  H   H718      1.0  0.64336  0.19250  0.66226  1.0000
  H   H719      1.0  0.62454  0.16920  0.64032  1.0000
  H   H720      1.0  0.60966  0.18849  0.58735  1.0000
  H   H721      1.0  0.59925  0.22611  0.60971  1.0000
  Fe  Fe46      1.0  0.66678  0.39493  0.70844  1.0000
  C   C402      1.0  0.41184  0.49439  0.76749  1.0000
  C   C403      1.0  0.60997  0.46720  0.83472  1.0000
  S   S90       1.0  0.35393  0.08277  0.58690  1.0000
  H   H722      1.0  0.59923  0.21347  0.66762  1.0000
  H   H723      1.0  0.61875  0.23351  0.69224  1.0000
  C   C404      1.0  0.64877  0.16911  0.57999  1.0000
  H   H724      1.0  0.35545  0.12285  0.85780  1.0000
  H   H725      1.0  0.65039  0.34020  0.60003  1.0000
  C   C405      1.0  0.35042  0.30361  0.71368  1.0000
  C   C406      1.0  0.63018  0.44890  0.83773  1.0000
  H   H726      1.0  0.36211  0.46923  0.56130  1.0000
  H   H727      1.0  0.55098  0.10297  0.90590  1.0000
  C   C407      1.0  0.56639  0.03394  0.78653  1.0000
  H   H728      1.0  0.63691  0.16577  0.55978  1.0000
  H   H729      1.0  0.62215  0.09748  0.88007  1.0000
  C   C408      1.0  0.65730  0.04892  0.56591  1.0000
  H   H730      1.0  0.62712  0.17458  0.72125  1.0000
  H   H731      1.0  0.60238  0.19005  0.73052  1.0000
  H   H732      1.0  0.60692  0.15540  0.69727  1.0000
  C   C409      1.0  0.59907  0.05982  0.87041  1.0000
  H   H733      1.0  0.67078  0.17705  0.53757  1.0000
  H   H734      1.0  0.38608  0.15196  0.84487  1.0000
  C   C410      1.0  0.43318  0.03733  0.75070  1.0000
  H   H735      1.0  0.57457  0.48594  0.72775  1.0000
  H   H736      1.0  0.58463  0.09193  0.91230  1.0000
  C   C411      1.0  0.53427  0.45381  0.80236  1.0000
  H   H737      1.0  0.60575  0.46744  0.89284  1.0000
  H   H738      1.0  0.45325  0.07928  0.83479  1.0000
  H   H739      1.0  0.53000  0.07122  0.83987  1.0000
  H   H740      1.0  0.56717  0.43209  0.83744  1.0000
  C   C412      1.0  0.54370  0.47207  0.83494  1.0000
  C   C413      1.0  0.45720  0.10767  0.83297  1.0000
  C   C414      1.0  0.44591  0.12640  0.80213  1.0000
  S   S91       1.0  0.65450  0.34249  0.72746  1.0000
  C   C415      1.0  0.66818  0.15920  0.56115  1.0000
  H   H741      1.0  0.61397  0.49639  0.57434  1.0000
  N   N22       1.0  0.57687  0.47698  0.86909  1.0000
  C   C416      1.0  0.42684  0.46887  0.67608  1.0000
  H   H742      1.0  0.61226  0.49615  0.83176  1.0000
  H   H743      1.0  0.50896  0.03219  0.95691  1.0000
  H   H744      1.0  0.39959  0.49708  0.68546  1.0000
  C   C417      1.0  0.42895  0.49375  0.91591  1.0000
  H   H745      1.0  0.35243  0.14725  0.81566  1.0000
  H   H746      1.0  0.63986  0.28250  0.57526  1.0000
  C   C418      1.0  0.35961  0.49356  0.54600  1.0000
  C   C419      1.0  0.56457  0.46419  0.97313  1.0000
  H   H747      1.0  0.55606  0.48979  0.97567  1.0000
  C   C420      1.0  0.36317  0.49420  0.50801  1.0000
  H   H748      1.0  0.43013  0.46878  0.93226  1.0000
  C   C421      1.0  0.60681  0.02223  0.77551  1.0000
  C   C422      1.0  0.43098  0.48712  0.78021  1.0000
  C   C423      1.0  0.40188  0.46813  0.87703  1.0000
  H   H749      1.0  0.40497  0.48691  0.63818  1.0000
  C   C424      1.0  0.41121  0.49641  0.66418  1.0000
  S   S92       1.0  0.34635  0.50019  0.71266  1.0000
  H   H750      1.0  0.62096  0.49994  0.65741  1.0000
  H   H751      1.0  0.35705  0.08198  0.50844  1.0000
  C   C425      1.0  0.66824  0.49117  0.55611  1.0000
  H   H752      1.0  0.59373  0.49548  0.60633  1.0000
  C   C426      1.0  0.34416  0.24093  0.67411  1.0000
  C   C427      1.0  0.42827  0.00994  0.80957  1.0000
  H   H753      1.0  0.34177  0.21691  0.65863  1.0000
  H   H754      1.0  0.35749  0.85590  0.24691  1.0000
  C   C428      1.0  0.53973  0.96134  0.21811  1.0000
  Fe  Fe47      1.0  0.35928  0.89703  0.35540  1.0000
  H   H755      1.0  0.64192  0.95626  0.47396  1.0000
  S   S93       1.0  0.37318  0.84267  0.34168  1.0000
  Fe  Fe48      1.0  0.36553  0.97596  0.33566  1.0000
  H   H756      1.0  0.46362  0.83886  0.05458  1.0000
  S   S94       1.0  0.37404  0.94201  0.38430  1.0000
  H   H757      1.0  0.49782  0.95927  0.28779  1.0000
  H   H758      1.0  0.54052  0.56045  0.32273  1.0000
  C   C429      1.0  0.57750  0.56024  0.27950  1.0000
  H   H759      1.0  0.39904  0.79042  0.25048  1.0000
  H   H760      1.0  0.56060  0.60959  0.34259  1.0000
  Fe  Fe49      1.0  0.36858  0.58508  0.31774  1.0000
  S   S95       1.0  0.39140  0.58065  0.27169  1.0000
  S   S96       1.0  0.37383  0.60929  0.37324  1.0000
  S   S97       1.0  0.35285  0.93004  0.30587  1.0000
  S   S98       1.0  0.35242  0.53891  0.34011  1.0000
  H   H761      1.0  0.64933  0.60222  0.24109  1.0000
  C   C430      1.0  0.34639  0.73538  0.37103  1.0000
  H   H762      1.0  0.59115  0.96710  0.33329  1.0000
  S   S99       1.0  0.62909  0.97483  0.28372  1.0000
  H   H763      1.0  0.48323  0.62592  0.20959  1.0000
  Fe  Fe50      1.0  0.63661  0.59347  0.34878  1.0000
  S   S100      1.0  0.60667  0.58813  0.32128  1.0000
  S   S101      1.0  0.63969  0.63425  0.39385  1.0000
  H   H764      1.0  0.59622  0.53273  0.17599  1.0000
  H   H765      1.0  0.46274  0.97511  0.20235  1.0000
  C   C431      1.0  0.56760  0.53316  0.26109  1.0000
  C   C432      1.0  0.66143  0.51725  0.49585  1.0000
  H   H766      1.0  0.49820  0.58856  0.19300  1.0000
  Fe  Fe51      1.0  0.64877  0.96857  0.33404  1.0000
  H   H767      1.0  0.36015  0.92513  0.22646  1.0000
  S   S102      1.0  0.63705  0.95538  0.38951  1.0000
  H   H768      1.0  0.40054  0.81369  0.20759  1.0000
  S   S103      1.0  0.66582  0.58911  0.48013  1.0000
  H   H769      1.0  0.57191  0.58744  0.27801  1.0000
  S   S104      1.0  0.65701  0.55293  0.37543  1.0000
  S   S105      1.0  0.65313  0.85996  0.41808  1.0000
  C   C433      1.0  0.44012  0.52753  0.23256  1.0000
  C   C434      1.0  0.61902  0.57081  0.18704  1.0000
  H   H770      1.0  0.46830  0.61855  0.30868  1.0000
  C   C435      1.0  0.54479  0.60995  0.34987  1.0000
  H   H771      1.0  0.46852  0.88576  0.05474  1.0000
  H   H772      1.0  0.44494  0.57271  0.36204  1.0000
  C   C436      1.0  0.65869  0.81845  0.39688  1.0000
  C   C437      1.0  0.59477  0.55263  0.29920  1.0000
  C   C438      1.0  0.65301  0.78688  0.41398  1.0000
  C   C439      1.0  0.60210  0.51751  0.30022  1.0000
  C   C440      1.0  0.49811  0.58823  0.26996  1.0000
  C   C441      1.0  0.41152  0.54963  0.26764  1.0000
  C   C442      1.0  0.44637  0.59287  0.34008  1.0000
  H   H773      1.0  0.48271  0.94280  0.20397  1.0000
  C   C443      1.0  0.65712  0.75345  0.39767  1.0000
  H   H774      1.0  0.67033  0.93894  0.49805  1.0000
  H   H775      1.0  0.46121  0.93311  0.25567  1.0000
  H   H776      1.0  0.59173  0.57652  0.15712  1.0000
  H   H777      1.0  0.65410  0.96895  0.21216  1.0000
  H   H778      1.0  0.53519  0.93514  0.26892  1.0000
  H   H779      1.0  0.67285  0.53277  0.25956  1.0000
  C   C444      1.0  0.36253  0.80176  0.35332  1.0000
  C   C445      1.0  0.51938  0.96173  0.33263  1.0000
  Fe  Fe52      1.0  0.34371  0.95645  0.40598  1.0000
  H   H780      1.0  0.36881  0.97013  0.22941  1.0000
  C   C446      1.0  0.36216  0.73688  0.34666  1.0000
  C   C447      1.0  0.37024  0.76993  0.33800  1.0000
  H   H781      1.0  0.36819  0.71257  0.33467  1.0000
  H   H782      1.0  0.38254  0.77079  0.31939  1.0000
  H   H783      1.0  0.44922  0.52879  0.20837  1.0000
  H   H784      1.0  0.47989  0.54834  0.34773  1.0000
  H   H785      1.0  0.53593  0.59925  0.29483  1.0000
  H   H786      1.0  0.58359  0.97481  0.38016  1.0000
  C   C448      1.0  0.59783  0.00239  0.24470  1.0000
  H   H787      1.0  0.60979  0.93357  0.45238  1.0000
  C   C449      1.0  0.36007  0.52561  0.48767  1.0000
  H   H788      1.0  0.58837  0.93013  0.36371  1.0000
  C   C450      1.0  0.65706  0.58595  0.21966  1.0000
  Fe  Fe53      1.0  0.65997  0.99121  0.41182  1.0000
  C   C451      1.0  0.54199  0.95990  0.25960  1.0000
  H   H789      1.0  0.48841  0.85371  0.06055  1.0000
  H   H790      1.0  0.52400  0.96226  0.21049  1.0000
  Fe  Fe54      1.0  0.34480  0.63849  0.36451  1.0000
  H   H791      1.0  0.46969  0.54729  0.30368  1.0000
  H   H792      1.0  0.36369  0.95068  0.18557  1.0000
  N   N23       1.0  0.42048  0.90945  0.24966  1.0000
  H   H793      1.0  0.51968  0.51886  0.35193  1.0000
  C   C452      1.0  0.42854  0.91015  0.28813  1.0000
  C   C453      1.0  0.48175  0.57795  0.24291  1.0000
  C   C454      1.0  0.42100  0.87196  0.23476  1.0000
  C   C455      1.0  0.40851  0.84469  0.25542  1.0000
  H   H794      1.0  0.42268  0.79780  0.23034  1.0000
  H   H795      1.0  0.43052  0.96073  0.23168  1.0000
  C   C456      1.0  0.41380  0.90631  0.32013  1.0000
  C   C457      1.0  0.42437  0.90155  0.35659  1.0000
  C   C458      1.0  0.40772  0.80956  0.23450  1.0000
  H   H796      1.0  0.56045  0.93581  0.32104  1.0000
  C   C459      1.0  0.65672  0.53184  0.25651  1.0000
  Fe  Fe55      1.0  0.66182  0.59504  0.41820  1.0000
  H   H797      1.0  0.38973  0.91095  0.26569  1.0000
  H   H798      1.0  0.44049  0.88954  0.29131  1.0000
  H   H799      1.0  0.43545  0.93593  0.29359  1.0000
  H   H800      1.0  0.49637  0.81112  0.01075  1.0000
  H   H801      1.0  0.65655  0.51421  0.46796  1.0000
  H   H802      1.0  0.41680  0.87186  0.20546  1.0000
  H   H803      1.0  0.43618  0.86058  0.23508  1.0000
  H   H804      1.0  0.39322  0.85443  0.25953  1.0000
  H   H805      1.0  0.41516  0.83858  0.28242  1.0000
  H   H806      1.0  0.61939  0.59985  0.19279  1.0000
  H   H807      1.0  0.66885  0.89558  0.48066  1.0000
  H   H808      1.0  0.45985  0.89640  0.22436  1.0000
  H   H809      1.0  0.66292  0.92071  0.25438  1.0000
  H   H810      1.0  0.40416  0.93061  0.32225  1.0000
  H   H811      1.0  0.40431  0.88348  0.31635  1.0000
  H   H812      1.0  0.43383  0.87697  0.35624  1.0000
  H   H813      1.0  0.43339  0.92493  0.36249  1.0000
  C   C460      1.0  0.40004  0.92599  0.24870  1.0000
  H   H814      1.0  0.65028  0.54762  0.27970  1.0000
  C   C461      1.0  0.63049  0.94949  0.49414  1.0000
  C   C462      1.0  0.46667  0.94629  0.19987  1.0000
  C   C463      1.0  0.50903  0.52588  0.04797  1.0000
  C   C464      1.0  0.45575  0.92486  0.22853  1.0000
  C   C465      1.0  0.36955  0.94501  0.21329  1.0000
  Fe  Fe56      1.0  0.66056  0.91217  0.39081  1.0000
  H   H815      1.0  0.54689  0.98506  0.20683  1.0000
  H   H816      1.0  0.47274  0.92703  0.32206  1.0000
  C   C466      1.0  0.42360  0.55076  0.23641  1.0000
  C   C467      1.0  0.50718  0.55693  0.02656  1.0000
  H   H817      1.0  0.35145  0.58099  0.49052  1.0000
  H   H818      1.0  0.60893  0.98038  0.46340  1.0000
  S   S106      1.0  0.67102  0.92246  0.33361  1.0000
  Fe  Fe57      1.0  0.35588  0.56461  0.39534  1.0000
  H   H819      1.0  0.58874  0.56950  0.20539  1.0000
  H   H820      1.0  0.52160  0.53256  0.28129  1.0000
  H   H821      1.0  0.65262  0.72931  0.41092  1.0000
  H   H822      1.0  0.40013  0.95290  0.26130  1.0000
  C   C468      1.0  0.43326  0.93186  0.22557  1.0000
  S   S107      1.0  0.50694  0.52959  0.09641  1.0000
  C   C469      1.0  0.48403  0.59656  0.20609  1.0000
  H   H823      1.0  0.48194  0.54893  0.23785  1.0000
  H   H824      1.0  0.62207  0.52270  0.21992  1.0000
  N   N24       1.0  0.65027  0.54803  0.22056  1.0000
  H   H825      1.0  0.62718  0.56571  0.16123  1.0000
  H   H826      1.0  0.52661  0.93576  0.32584  1.0000
  H   H827      1.0  0.50472  0.58239  0.03991  1.0000
  H   H828      1.0  0.50632  0.61504  0.33465  1.0000
  H   H829      1.0  0.55296  0.94162  0.36779  1.0000
  H   H830      1.0  0.49625  0.61730  0.27533  1.0000
  C   C470      1.0  0.58226  0.95687  0.35620  1.0000
  H   H831      1.0  0.59860  0.94899  0.49476  1.0000
  H   H832      1.0  0.65304  0.59876  0.19323  1.0000
  H   H833      1.0  0.54334  0.59887  0.37785  1.0000
  H   H834      1.0  0.43906  0.61815  0.34928  1.0000
  H   H835      1.0  0.42944  0.92824  0.19628  1.0000
  H   H836      1.0  0.49633  0.95674  0.04109  1.0000
  H   H837      1.0  0.63469  0.89378  0.48370  1.0000
  H   H838      1.0  0.55446  0.53952  0.24575  1.0000
  C   C471      1.0  0.47430  0.85902  0.04626  1.0000
  H   H839      1.0  0.39879  0.94996  0.19379  1.0000
  H   H840      1.0  0.62231  0.56263  0.24492  1.0000
  H   H841      1.0  0.43873  0.58370  0.31526  1.0000
  S   S108      1.0  0.66052  0.61676  0.31500  1.0000
  C   C472      1.0  0.49810  0.96009  0.31809  1.0000
  H   H842      1.0  0.40699  0.52358  0.31914  1.0000
  C   C473      1.0  0.62818  0.54969  0.21956  1.0000
  C   C474      1.0  0.46787  0.59905  0.33132  1.0000
  C   C475      1.0  0.41610  0.52473  0.29495  1.0000
  H   H843      1.0  0.49581  0.90241  0.32181  1.0000
  H   H844      1.0  0.46307  0.93719  0.17187  1.0000
  S   S109      1.0  0.36508  0.52494  0.44005  1.0000
  C   C476      1.0  0.59764  0.56169  0.18110  1.0000
  H   H845      1.0  0.54680  0.93723  0.20563  1.0000
  H   H846      1.0  0.39036  0.90489  0.19551  1.0000
  H   H847      1.0  0.55792  0.95842  0.26541  1.0000
  H   H848      1.0  0.46709  0.58583  0.25388  1.0000
  H   H849      1.0  0.41343  0.89900  0.37889  1.0000
  H   H850      1.0  0.51017  0.57558  0.35999  1.0000
  C   C477      1.0  0.47898  0.56357  0.32174  1.0000
  H   H851      1.0  0.48775  0.92657  0.36237  1.0000
  H   H852      1.0  0.64531  0.78828  0.43983  1.0000
  H   H853      1.0  0.50139  0.00293  0.08868  1.0000
  H   H854      1.0  0.46894  0.51424  0.02793  1.0000
  C   C478      1.0  0.50764  0.53074  0.29686  1.0000
  H   H855      1.0  0.51855  0.96234  0.36307  1.0000
  H   H856      1.0  0.47205  0.58877  0.18757  1.0000
  H   H857      1.0  0.42018  0.56987  0.21511  1.0000
  C   C479      1.0  0.61070  0.95317  0.47502  1.0000
  H   H858      1.0  0.51228  0.58533  0.25493  1.0000
  Fe  Fe58      1.0  0.66488  0.65487  0.36131  1.0000
  H   H859      1.0  0.60088  0.98049  0.22610  1.0000
  C   C480      1.0  0.34666  0.80029  0.37743  1.0000
  C   C481      1.0  0.48807  0.92691  0.33201  1.0000
  C   C482      1.0  0.56088  0.95406  0.34474  1.0000
  C   C483      1.0  0.39065  0.93057  0.21037  1.0000
  H   H860      1.0  0.47452  0.61130  0.35576  1.0000
  C   C484      1.0  0.51161  0.58682  0.33201  1.0000
  C   C485      1.0  0.50021  0.98327  0.03298  1.0000
  C   C486      1.0  0.66864  0.81635  0.36346  1.0000
  C   C487      1.0  0.53371  0.58764  0.32234  1.0000
  H   H861      1.0  0.35789  0.81415  0.27108  1.0000
  H   H862      1.0  0.67146  0.98486  0.27126  1.0000
  N   N25       1.0  0.49906  0.56735  0.30524  1.0000
  H   H863      1.0  0.53921  0.63802  0.34964  1.0000
  H   H864      1.0  0.44505  0.51570  0.04879  1.0000
  C   C488      1.0  0.66701  0.75139  0.36414  1.0000
  H   H865      1.0  0.66185  0.54601  0.16515  1.0000
  H   H866      1.0  0.66608  0.90642  0.20782  1.0000
  H   H867      1.0  0.41965  0.98845  0.33549  1.0000
  C   C489      1.0  0.66991  0.96295  0.21629  1.0000
  C   C490      1.0  0.34898  0.83192  0.25300  1.0000
  S   S110      1.0  0.34060  0.61755  0.30744  1.0000
  H   H868      1.0  0.45461  0.99446  0.31847  1.0000
  H   H869      1.0  0.48912  0.98337  0.32762  1.0000
  C   C491      1.0  0.65934  0.52783  0.18864  1.0000
  H   H870      1.0  0.64194  0.83803  0.49777  1.0000
  C   C492      1.0  0.42352  0.00312  0.31126  1.0000
  H   H871      1.0  0.67313  0.84040  0.35009  1.0000
  H   H872      1.0  0.34612  0.81783  0.22697  1.0000
  C   C493      1.0  0.53260  0.99337  0.27808  1.0000
  H   H873      1.0  0.66817  0.83923  0.50024  1.0000
  H   H874      1.0  0.63469  0.50678  0.15744  1.0000
  S   S111      1.0  0.51250  0.50764  0.19903  1.0000
  C   C494      1.0  0.34235  0.99643  0.49981  1.0000
  H   H875      1.0  0.61520  0.51120  0.31560  1.0000
  N   N26       1.0  0.53120  0.99248  0.31925  1.0000
  H   H876      1.0  0.49788  0.51628  0.27827  1.0000
  C   C495      1.0  0.55144  0.99128  0.33619  1.0000
  H   H877      1.0  0.51795  0.99905  0.26582  1.0000
  C   C496      1.0  0.67175  0.92433  0.22921  1.0000
  H   H878      1.0  0.34074  0.82452  0.38973  1.0000
  C   C497      1.0  0.51124  0.50588  0.33017  1.0000
  C   C498      1.0  0.67279  0.78298  0.34723  1.0000
  C   C499      1.0  0.45365  0.50555  0.02493  1.0000
  C   C500      1.0  0.47738  0.85839  0.00488  1.0000
  S   S112      1.0  0.67257  0.71028  0.34213  1.0000
  Fe  Fe59      1.0  0.48466  0.58596  0.81252  1.0000
  S   S113      1.0  0.50424  0.53819  0.82203  1.0000
  S   S114      1.0  0.45419  0.58623  0.78620  1.0000
  Fe  Fe60      1.0  0.51450  0.63651  0.84421  1.0000
  S   S115      1.0  0.53643  0.59147  0.85630  1.0000
  S   S116      1.0  0.52372  0.69279  0.86010  1.0000
  Fe  Fe61      1.0  0.52912  0.57039  0.80074  1.0000
  H   H879      1.0  0.56246  0.52888  0.86529  1.0000
  Fe  Fe62      1.0  0.51070  0.56163  0.87728  1.0000
  H   H880      1.0  0.34501  0.58006  0.55752  1.0000
  S   S117      1.0  0.50892  0.61721  0.78690  1.0000
  S   S118      1.0  0.48921  0.60778  0.86946  1.0000
  Fe  Fe63      1.0  0.52947  0.96235  0.83479  1.0000
  S   S119      1.0  0.50671  0.94368  0.79563  1.0000
  S   S120      1.0  0.56180  0.96777  0.81978  1.0000
  Fe  Fe64      1.0  0.50141  0.95908  0.90032  1.0000
  S   S121      1.0  0.47643  0.94108  0.86522  1.0000
  H   H881      1.0  0.43409  0.99803  0.83431  1.0000
  Fe  Fe65      1.0  0.49867  0.90370  0.83850  1.0000
  S   S122      1.0  0.48809  0.84834  0.82302  1.0000
  Fe  Fe66      1.0  0.48594  0.98208  0.82480  1.0000
  C   C501      1.0  0.57514  0.00157  0.79758  1.0000
  S   S123      1.0  0.52294  0.91917  0.87570  1.0000
  H   H882      1.0  0.58199  0.93411  0.87974  1.0000
  H   H883      1.0  0.63316  0.55670  0.58176  1.0000
  H   H884      1.0  0.39808  0.00429  0.82562  1.0000
  C   C502      1.0  0.60312  0.57192  0.56870  1.0000
  H   H885      1.0  0.58272  0.52297  0.83611  1.0000
  H   H886      1.0  0.50097  0.75300  0.98673  1.0000
  C   C503      1.0  0.44931  0.86822  0.90220  1.0000
  H   H887      1.0  0.50637  0.82778  0.70127  1.0000
  C   C504      1.0  0.47500  0.95123  0.68984  1.0000
  H   H888      1.0  0.62736  0.59643  0.66313  1.0000
  H   H889      1.0  0.58153  0.53954  0.91826  1.0000
  C   C505      1.0  0.43833  0.55016  0.77899  1.0000
  C   C506      1.0  0.41916  0.55743  0.76648  1.0000
  H   H890      1.0  0.45598  0.87383  0.87521  1.0000
  H   H891      1.0  0.41440  0.58471  0.76150  1.0000
  H   H892      1.0  0.47816  0.71119  0.95828  1.0000
  C   C507      1.0  0.51391  0.73564  0.84774  1.0000
  C   C508      1.0  0.52442  0.76606  0.85682  1.0000
  C   C509      1.0  0.51697  0.80065  0.84876  1.0000
  C   C510      1.0  0.49870  0.80533  0.83208  1.0000
  C   C511      1.0  0.48822  0.77496  0.82284  1.0000
  C   C512      1.0  0.49577  0.74034  0.83051  1.0000
  H   H893      1.0  0.53850  0.76278  0.87002  1.0000
  H   H894      1.0  0.52536  0.82366  0.85552  1.0000
  H   H895      1.0  0.47410  0.77818  0.80980  1.0000
  H   H896      1.0  0.48747  0.71730  0.82341  1.0000
  H   H897      1.0  0.62084  0.56449  0.51929  1.0000
  H   H898      1.0  0.63881  0.86289  0.56086  1.0000
  C   C513      1.0  0.56774  0.97032  0.91937  1.0000
  C   C514      1.0  0.66442  0.58396  0.68026  1.0000
  C   C515      1.0  0.40036  0.55278  0.60521  1.0000
  C   C516      1.0  0.63715  0.96035  0.61778  1.0000
  C   C517      1.0  0.50106  0.75040  0.95651  1.0000
  C   C518      1.0  0.57571  0.53451  0.75897  1.0000
  H   H899      1.0  0.43142  0.83912  0.65017  1.0000
  C   C519      1.0  0.60868  0.55346  0.77247  1.0000
  C   C520      1.0  0.58817  0.55899  0.77472  1.0000
  H   H900      1.0  0.47269  0.94855  0.74870  1.0000
  H   H901      1.0  0.61816  0.57252  0.78489  1.0000
  H   H902      1.0  0.58201  0.58215  0.78870  1.0000
  H   H903      1.0  0.54608  0.86175  0.92648  1.0000
  H   H904      1.0  0.49724  0.79206  0.72881  1.0000
  C   C521      1.0  0.61702  0.52358  0.75432  1.0000
  H   H905      1.0  0.34807  0.57381  0.68145  1.0000
  H   H906      1.0  0.44654  0.62019  0.88180  1.0000
  S   S124      1.0  0.34853  0.52557  0.61187  1.0000
  H   H907      1.0  0.50281  0.69260  0.95778  1.0000
  C   C522      1.0  0.57735  0.93442  0.90885  1.0000
  H   H908      1.0  0.63261  0.90650  0.60112  1.0000
  H   H909      1.0  0.62471  0.59785  0.60032  1.0000
  C   C523      1.0  0.62195  0.51219  0.62973  1.0000
  H   H910      1.0  0.50675  0.83071  0.75063  1.0000
  N   N27       1.0  0.61694  0.55159  0.63225  1.0000
  C   C524      1.0  0.44473  0.52028  0.98958  1.0000
  C   C525      1.0  0.59291  0.57554  0.87885  1.0000
  C   C526      1.0  0.47777  0.83878  0.72644  1.0000
  C   C527      1.0  0.61003  0.58411  0.53105  1.0000
  H   H911      1.0  0.42464  0.54220  0.68771  1.0000
  C   C528      1.0  0.44323  0.55402  0.91610  1.0000
  H   H912      1.0  0.44267  0.55927  0.85621  1.0000
  H   H913      1.0  0.45657  0.50700  0.86217  1.0000
  C   C529      1.0  0.65459  0.83725  0.51669  1.0000
  H   H914      1.0  0.59738  0.58655  0.51216  1.0000
  H   H915      1.0  0.55136  0.84414  0.97157  1.0000
  C   C530      1.0  0.44420  0.51476  0.78565  1.0000
  H   H916      1.0  0.36802  0.59472  0.63011  1.0000
  H   H917      1.0  0.60424  0.52499  0.89653  1.0000
  H   H918      1.0  0.57875  0.58995  0.87394  1.0000
  H   H919      1.0  0.60101  0.59026  0.90000  1.0000
  H   H920      1.0  0.60170  0.57524  0.85324  1.0000
  N   N28       1.0  0.45955  0.90078  0.72803  1.0000
  C   C531      1.0  0.45132  0.89490  0.76582  1.0000
  C   C532      1.0  0.43924  0.59724  0.63895  1.0000
  C   C533      1.0  0.46395  0.93987  0.72487  1.0000
  C   C534      1.0  0.44552  0.89127  0.69793  1.0000
  C   C535      1.0  0.43144  0.86044  0.70567  1.0000
  C   C536      1.0  0.43356  0.91949  0.77642  1.0000
  H   H921      1.0  0.48913  0.88865  0.74573  1.0000
  H   H922      1.0  0.37989  0.54106  0.66530  1.0000
  C   C537      1.0  0.41663  0.59775  0.64391  1.0000
  C   C538      1.0  0.42080  0.84954  0.67094  1.0000
  C   C539      1.0  0.42282  0.90581  0.80999  1.0000
  H   H923      1.0  0.47504  0.52196  0.89082  1.0000
  H   H924      1.0  0.46279  0.89944  0.78675  1.0000
  H   H925      1.0  0.44723  0.86689  0.76993  1.0000
  C   C540      1.0  0.41995  0.53372  0.65994  1.0000
  H   H926      1.0  0.49242  0.71080  0.91648  1.0000
  H   H927      1.0  0.40998  0.61594  0.62302  1.0000
  H   H928      1.0  0.45016  0.95647  0.72593  1.0000
  H   H929      1.0  0.43586  0.91466  0.69067  1.0000
  H   H930      1.0  0.45381  0.88476  0.67239  1.0000
  H   H931      1.0  0.42010  0.86888  0.72594  1.0000
  H   H932      1.0  0.43909  0.83650  0.71677  1.0000
  H   H933      1.0  0.43891  0.94611  0.78339  1.0000
  H   H934      1.0  0.42297  0.92276  0.75370  1.0000
  C   C541      1.0  0.58961  0.53757  0.89191  1.0000
  H   H935      1.0  0.62413  0.96079  0.63603  1.0000
  H   H936      1.0  0.52215  0.80481  0.96845  1.0000
  H   H937      1.0  0.47025  0.82853  0.70196  1.0000
  H   H938      1.0  0.41649  0.50930  0.92843  1.0000
  S   S125      1.0  0.54974  0.53987  0.76094  1.0000
  C   C542      1.0  0.65260  0.86750  0.54562  1.0000
  H   H939      1.0  0.41043  0.82825  0.67742  1.0000
  H   H940      1.0  0.42788  0.52616  0.58609  1.0000
  H   H941      1.0  0.60235  0.97109  0.80052  1.0000
  H   H942      1.0  0.41688  0.87916  0.80455  1.0000
  H   H943      1.0  0.43288  0.90420  0.83370  1.0000
  H   H944      1.0  0.41046  0.92454  0.81697  1.0000
  H   H945      1.0  0.59392  0.53883  0.67038  1.0000
  H   H946      1.0  0.49064  0.94237  0.69133  1.0000
  H   H947      1.0  0.39274  0.56841  0.69621  1.0000
  H   H948      1.0  0.41412  0.61129  0.67078  1.0000
  H   H949      1.0  0.55371  0.97350  0.90435  1.0000
  H   H950      1.0  0.39119  0.53575  0.75192  1.0000
  H   H951      1.0  0.56287  0.57867  0.68496  1.0000
  N   N29       1.0  0.44753  0.51442  0.91877  1.0000
  N   N30       1.0  0.65248  0.90495  0.53084  1.0000
  H   H952      1.0  0.40191  0.50586  0.54509  1.0000
  H   H953      1.0  0.54727  0.89138  0.96521  1.0000
  C   C543      1.0  0.40845  0.53222  0.54079  1.0000
  H   H954      1.0  0.65585  0.95799  0.55271  1.0000
  H   H955      1.0  0.47013  0.82987  0.75139  1.0000
  H   H956      1.0  0.62740  0.55573  0.68789  1.0000
  H   H957      1.0  0.44642  0.58597  0.66379  1.0000
  C   C544      1.0  0.56769  0.59804  0.66406  1.0000
  H   H958      1.0  0.42244  0.61820  0.90232  1.0000
  H   H959      1.0  0.51854  0.86454  0.99295  1.0000
  H   H960      1.0  0.48578  0.88511  0.69766  1.0000
  H   H961      1.0  0.59672  0.60099  0.68491  1.0000
  C   C545      1.0  0.52088  0.86109  0.96313  1.0000
  H   H962      1.0  0.65737  0.53467  0.65532  1.0000
  C   C546      1.0  0.41678  0.54612  0.57661  1.0000
  H   H963      1.0  0.65628  0.57251  0.62508  1.0000
  H   H964      1.0  0.42031  0.52905  0.52011  1.0000
  H   H965      1.0  0.42533  0.61705  0.85328  1.0000
  H   H966      1.0  0.43370  0.53002  0.64408  1.0000
  H   H967      1.0  0.51645  0.75053  0.94655  1.0000
  H   H968      1.0  0.42938  0.51168  0.98800  1.0000
  S   S126      1.0  0.49866  0.95700  0.96270  1.0000
  H   H969      1.0  0.62144  0.94014  0.57223  1.0000
  H   H970      1.0  0.46288  0.63373  0.63125  1.0000
  C   C547      1.0  0.43195  0.60827  0.87959  1.0000
  H   H971      1.0  0.56368  0.62528  0.67393  1.0000
  H   H972      1.0  0.59174  0.59146  0.57846  1.0000
  N   N31       1.0  0.49227  0.81825  0.95256  1.0000
  C   C548      1.0  0.48187  0.84410  0.92710  1.0000
  C   C549      1.0  0.51400  0.82418  0.95081  1.0000
  C   C550      1.0  0.48891  0.78109  0.93834  1.0000
  H   H973      1.0  0.45227  0.82980  0.94555  1.0000
  C   C551      1.0  0.59618  0.55634  0.64623  1.0000
  C   C552      1.0  0.46002  0.83650  0.91990  1.0000
  C   C553      1.0  0.49305  0.71411  0.94664  1.0000
  C   C554      1.0  0.35669  0.59819  0.68451  1.0000
  H   H974      1.0  0.66580  0.92386  0.58056  1.0000
  H   H975      1.0  0.44046  0.64705  0.60855  1.0000
  H   H976      1.0  0.66805  0.79790  0.55332  1.0000
  H   H977      1.0  0.56676  0.91303  0.91267  1.0000
  H   H978      1.0  0.48938  0.84409  0.90009  1.0000
  H   H979      1.0  0.48281  0.87200  0.93670  1.0000
  H   H980      1.0  0.45694  0.56876  0.92057  1.0000
  H   H981      1.0  0.51946  0.81929  0.92247  1.0000
  H   H982      1.0  0.49199  0.77960  0.90843  1.0000
  C   C555      1.0  0.47870  0.87985  0.72440  1.0000
  C   C556      1.0  0.54277  0.86465  0.95611  1.0000
  H   H983      1.0  0.44421  0.58099  0.61528  1.0000
  H   H984      1.0  0.45931  0.00228  0.68294  1.0000
  C   C557      1.0  0.63484  0.93251  0.58770  1.0000
  H   H985      1.0  0.45895  0.81362  0.90078  1.0000
  N   N32       1.0  0.40670  0.56228  0.64339  1.0000
  C   C558      1.0  0.37405  0.59718  0.65805  1.0000
  H   H986      1.0  0.59035  0.92857  0.92622  1.0000
  H   H987      1.0  0.51319  0.88296  0.94826  1.0000
  H   H988      1.0  0.42390  0.57150  0.57022  1.0000
  C   C559      1.0  0.43382  0.56764  0.88019  1.0000
  H   H989      1.0  0.47128  0.52012  0.95723  1.0000
  H   H990      1.0  0.48144  0.00430  0.70980  1.0000
  H   H991      1.0  0.47325  0.77440  0.94147  1.0000
  C   C560      1.0  0.65315  0.93062  0.56254  1.0000
  H   H992      1.0  0.55985  0.59334  0.63806  1.0000
  C   C561      1.0  0.49831  0.82142  0.72674  1.0000
  H   H993      1.0  0.63733  0.50741  0.62051  1.0000
  H   H994      1.0  0.44475  0.54975  0.99177  1.0000
  C   C562      1.0  0.38853  0.56563  0.66701  1.0000
  C   C563      1.0  0.50237  0.99115  0.99557  1.0000
  C   C564      1.0  0.58984  0.59457  0.65831  1.0000
  H   H995      1.0  0.38120  0.62317  0.66018  1.0000
  H   H996      1.0  0.59428  0.61456  0.63784  1.0000
  H   H997      1.0  0.50719  0.57958  0.97210  1.0000
  C   C565      1.0  0.63030  0.56728  0.66046  1.0000
  C   C566      1.0  0.62040  0.56978  0.59604  1.0000
  H   H998      1.0  0.46842  0.93976  0.66498  1.0000
  C   C567      1.0  0.44667  0.63484  0.63378  1.0000
  C   C568      1.0  0.65256  0.56292  0.65281  1.0000
  H   H999      1.0  0.39078  0.57431  0.59361  1.0000
  H   H1000     1.0  0.41236  0.87260  0.65935  1.0000
  H   H1001     1.0  0.44997  0.89222  0.91987  1.0000
  C   C569      1.0  0.51178  0.52272  0.97044  1.0000
  H   H1002     1.0  0.61694  0.61043  0.53291  1.0000
  H   H1003     1.0  0.44261  0.65182  0.65769  1.0000
  H   H1004     1.0  0.56452  0.96890  0.94904  1.0000
  H   H1005     1.0  0.63851  0.98728  0.60571  1.0000
  H   H1006     1.0  0.59606  0.54612  0.56513  1.0000
  H   H1007     1.0  0.43371  0.86201  0.89789  1.0000
  H   H1008     1.0  0.39708  0.55108  0.52982  1.0000
  C   C570      1.0  0.59540  0.99598  0.79205  1.0000
  H   H1009     1.0  0.39100  0.52913  0.60572  1.0000
  H   H1010     1.0  0.48752  0.87973  0.99797  1.0000
  C   C571      1.0  0.40600  0.52975  0.76078  1.0000
  H   H1011     1.0  0.64158  0.79656  0.55074  1.0000
  H   H1012     1.0  0.62104  0.90278  0.52389  1.0000
  S   S127      1.0  0.64299  0.51795  0.75254  1.0000
  H   H1013     1.0  0.58544  0.54756  0.62580  1.0000
  C   C572      1.0  0.35298  0.52447  0.56406  1.0000
  S   S128      1.0  0.51355  0.51902  0.92200  1.0000
  H   H1014     1.0  0.41877  0.55774  0.87757  1.0000
  H   H1015     1.0  0.43282  0.56300  0.93786  1.0000
  H   H1016     1.0  0.34690  0.62152  0.67832  1.0000
  H   H1017     1.0  0.65036  0.95413  0.63451  1.0000
  C   C573      1.0  0.48483  0.82099  0.99151  1.0000
  C   C574      1.0  0.35000  0.55594  0.54376  1.0000
  C   C575      1.0  0.35351  0.55653  0.50577  1.0000
  H   H1018     1.0  0.36174  0.60033  0.71323  1.0000
  C   C576      1.0  0.50855  0.55542  0.98806  1.0000
  H   H1019     1.0  0.66089  0.61291  0.67794  1.0000
  H   H1020     1.0  0.47238  0.80304  0.99596  1.0000
  H   H1021     1.0  0.59540  0.99643  0.92545  1.0000
  C   C577      1.0  0.57746  0.51673  0.86398  1.0000
  H   H1022     1.0  0.48293  0.99913  0.66090  1.0000
  H   H1023     1.0  0.66446  0.86348  0.56612  1.0000
  H   H1024     1.0  0.46312  0.86561  0.99204  1.0000
  C   C578      1.0  0.65522  0.80067  0.53488  1.0000
  C   C579      1.0  0.45677  0.50746  0.95571  1.0000
  H   H1025     1.0  0.58523  0.99776  0.88075  1.0000
  S   S129      1.0  0.50942  0.00326  0.86189  1.0000
  H   H1026     1.0  0.45895  0.50868  0.79479  1.0000
  H   H1027     1.0  0.65655  0.77966  0.51353  1.0000
  C   C580      1.0  0.66674  0.55071  0.50843  1.0000
  H   H1028     1.0  0.66135  0.57510  0.70861  1.0000
  H   H1029     1.0  0.63050  0.96950  0.51640  1.0000
  C   C581      1.0  0.47459  0.99172  0.68571  1.0000
  C   C582      1.0  0.63420  0.91103  0.50844  1.0000
  C   C583      1.0  0.58147  0.00123  0.91020  1.0000
  C   C584      1.0  0.67001  0.91069  0.50666  1.0000
  C   C585      1.0  0.67285  0.55417  0.54492  1.0000
  C   C586      1.0  0.58406  0.50491  0.74031  1.0000
  H   H1030     1.0  0.90593  0.06150  0.35917  1.0000
  Fe  Fe67      1.0  0.97770  0.04583  0.33875  1.0000
  H   H1031     1.0  0.90751  0.44350  0.05016  1.0000
  H   H1032     1.0  0.99026  0.18314  0.24174  1.0000
  H   H1033     1.0  0.68748  0.06291  0.19131  1.0000
  S   S130      1.0  0.97854  0.18057  0.33455  1.0000
  C   C587      1.0  0.85023  0.50049  0.01608  1.0000
  S   S131      1.0  0.97182  0.08703  0.38259  1.0000
  H   H1034     1.0  0.86213  0.46982  0.13921  1.0000
  S   S132      1.0  0.98050  0.41574  0.38011  1.0000
  C   C588      1.0  0.93845  0.43581  0.43138  1.0000
  H   H1035     1.0  0.93736  0.19472  0.33157  1.0000
  C   C589      1.0  0.92991  0.03379  0.27016  1.0000
  Fe  Fe68      1.0  0.97513  0.44123  0.32510  1.0000
  S   S133      1.0  0.94332  0.44421  0.30534  1.0000
  H   H1036     1.0  0.96785  0.25206  0.31287  1.0000
  H   H1037     1.0  0.91640  0.43961  0.21661  1.0000
  H   H1038     1.0  0.88538  0.10553  0.33595  1.0000
  C   C590      1.0  0.95165  0.13599  0.25252  1.0000
  H   H1039     1.0  0.90119  0.08813  0.30135  1.0000
  S   S134      1.0  0.00024  0.41094  0.29756  1.0000
  C   C591      1.0  0.91861  0.07487  0.37129  1.0000
  H   H1040     1.0  0.95835  0.47445  0.41191  1.0000
  H   H1041     1.0  0.86050  0.15365  0.05480  1.0000
  C   C592      1.0  0.92045  0.06215  0.41081  1.0000
  C   C593      1.0  0.89761  0.01082  0.25558  1.0000
  H   H1042     1.0  0.69598  0.45248  0.39302  1.0000
  C   C594      1.0  0.98932  0.22216  0.34430  1.0000
  C   C595      1.0  0.92831  0.49460  0.40201  1.0000
  C   C596      1.0  0.93163  0.12540  0.30978  1.0000
  H   H1043     1.0  0.93512  0.09653  0.30759  1.0000
  H   H1044     1.0  0.90207  0.45444  0.29415  1.0000
  H   H1045     1.0  0.83637  0.16808  0.04211  1.0000
  C   C597      1.0  0.90052  0.43643  0.10803  1.0000
  C   C598      1.0  0.92925  0.48168  0.28964  1.0000
  H   H1046     1.0  0.87559  0.20304  0.02432  1.0000
  H   H1047     1.0  0.69438  0.48696  0.45081  1.0000
  H   H1048     1.0  0.95700  0.10780  0.25229  1.0000
  H   H1049     1.0  0.95014  0.42173  0.44727  1.0000
  Fe  Fe69      1.0  0.98950  0.12383  0.34788  1.0000
  H   H1050     1.0  0.81889  0.06595  0.03741  1.0000
  H   H1051     1.0  0.85220  0.46255  0.22099  1.0000
  H   H1052     1.0  0.93331  0.07395  0.42408  1.0000
  C   C599      1.0  0.71466  0.02173  0.15134  1.0000
  C   C600      1.0  0.73013  0.47879  0.49157  1.0000
  H   H1053     1.0  0.71762  0.02051  0.26374  1.0000
  C   C601      1.0  0.92523  0.19397  0.35173  1.0000
  H   H1054     1.0  0.86432  0.20930  0.09111  1.0000
  H   H1055     1.0  0.93107  0.18355  0.37794  1.0000
  C   C602      1.0  0.91640  0.11619  0.36935  1.0000
  N   N33       1.0  0.91315  0.13194  0.33173  1.0000
  C   C603      1.0  0.82727  0.04245  0.02895  1.0000
  H   H1056     1.0  0.75535  0.50125  0.43796  1.0000
  H   H1057     1.0  0.85976  0.12694  0.24803  1.0000
  C   C604      1.0  0.94388  0.47454  0.42557  1.0000
  C   C605      1.0  0.92492  0.44054  0.19069  1.0000
  H   H1058     1.0  0.95161  0.45494  0.21899  1.0000
  C   C606      1.0  0.86452  0.47721  0.16817  1.0000
  H   H1059     1.0  0.72627  0.48290  0.41400  1.0000
  Fe  Fe70      1.0  0.00050  0.06789  0.40685  1.0000
  H   H1060     1.0  0.95098  0.14569  0.22389  1.0000
  H   H1061     1.0  0.92449  0.43436  0.44689  1.0000
  H   H1062     1.0  0.91053  0.05537  0.22864  1.0000
  C   C607      1.0  0.92175  0.47744  0.17217  1.0000
  C   C608      1.0  0.98894  0.28710  0.33621  1.0000
  H   H1063     1.0  0.92789  0.48111  0.37484  1.0000
  H   H1064     1.0  0.88923  0.42226  0.12360  1.0000
  H   H1065     1.0  0.90642  0.23375  0.37923  1.0000
  H   H1066     1.0  0.90411  0.12446  0.38794  1.0000
  C   C609      1.0  0.00603  0.22468  0.36598  1.0000
  H   H1067     1.0  0.95570  0.43257  0.17558  1.0000
  H   H1068     1.0  0.89546  0.17509  0.35478  1.0000
  H   H1069     1.0  0.93693  0.42202  0.40469  1.0000
  H   H1070     1.0  0.92138  0.12364  0.25331  1.0000
  S   S135      1.0  0.00564  0.02450  0.36539  1.0000
  H   H1071     1.0  0.92255  0.03271  0.41120  1.0000
  C   C610      1.0  0.82472  0.48925  0.06081  1.0000
  C   C611      1.0  0.90849  0.17127  0.33660  1.0000
  H   H1072     1.0  0.90432  0.18408  0.31040  1.0000
  C   C612      1.0  0.70656  0.03142  0.28313  1.0000
  H   H1073     1.0  0.88162  0.44136  0.06013  1.0000
  C   C613      1.0  0.70872  0.02005  0.19159  1.0000
  H   H1074     1.0  0.70630  0.06811  0.32939  1.0000
  H   H1075     1.0  0.88810  0.44022  0.18034  1.0000
  C   C614      1.0  0.91825  0.23249  0.35832  1.0000
  C   C615      1.0  0.69645  0.50157  0.42485  1.0000
  C   C616      1.0  0.88338  0.13490  0.28649  1.0000
  H   H1076     1.0  0.82589  0.01759  0.08228  1.0000
  C   C617      1.0  0.00576  0.28963  0.35765  1.0000
  C   C618      1.0  0.90882  0.47906  0.28668  1.0000
  C   C619      1.0  0.93138  0.13956  0.27013  1.0000
  H   H1077     1.0  0.91284  0.24482  0.33253  1.0000
  H   H1078     1.0  0.89327  0.07414  0.00985  1.0000
  H   H1079     1.0  0.98226  0.31097  0.32459  1.0000
  H   H1080     1.0  0.87815  0.09166  0.24851  1.0000
  H   H1081     1.0  0.94445  0.13615  0.32426  1.0000
  C   C620      1.0  0.86015  0.19859  0.01621  1.0000
  H   H1082     1.0  0.92029  0.41852  0.17297  1.0000
  H   H1083     1.0  0.86047  0.09557  0.28532  1.0000
  C   C621      1.0  0.93258  0.00831  0.29768  1.0000
  C   C622      1.0  0.89604  0.11350  0.31454  1.0000
  H   H1084     1.0  0.89229  0.14862  0.26589  1.0000
  H   H1085     1.0  0.93196  0.06533  0.35670  1.0000
  H   H1086     1.0  0.85329  0.42684  0.18760  1.0000
  H   H1087     1.0  0.96222  0.15218  0.26769  1.0000
  H   H1088     1.0  0.67828  0.05661  0.28610  1.0000
  H   H1089     1.0  0.84367  0.18414  0.10569  1.0000
  H   H1090     1.0  0.91517  0.42432  0.11390  1.0000
  S   S136      1.0  0.99325  0.48802  0.33778  1.0000
  H   H1091     1.0  0.93068  0.24813  0.36836  1.0000
  H   H1092     1.0  0.93314  0.47986  0.15053  1.0000
  C   C623      1.0  0.94642  0.43370  0.20057  1.0000
  C   C624      1.0  0.86960  0.11072  0.26598  1.0000
  C   C625      1.0  0.91246  0.03532  0.24962  1.0000
  S   S137      1.0  0.99363  0.08372  0.30220  1.0000
  H   H1093     1.0  0.68948  0.49237  0.36758  1.0000
  H   H1094     1.0  0.87422  0.15541  0.30109  1.0000
  C   C626      1.0  0.98081  0.25359  0.32958  1.0000
  H   H1095     1.0  0.69346  0.07493  0.25197  1.0000
  C   C627      1.0  0.84965  0.20018  0.08299  1.0000
  H   H1096     1.0  0.92674  0.16805  0.26904  1.0000
  H   H1097     1.0  0.88736  0.47823  0.20870  1.0000
  H   H1098     1.0  0.92991  0.12645  0.38187  1.0000
  H   H1099     1.0  0.72245  0.08010  0.29216  1.0000
  H   H1100     1.0  0.88687  0.48912  0.10466  1.0000
  C   C628      1.0  0.85052  0.45586  0.19161  1.0000
  H   H1101     1.0  0.89696  0.40151  0.06129  1.0000
  H   H1102     1.0  0.72909  0.04377  0.32221  1.0000
  C   C629      1.0  0.85115  0.17748  0.04835  1.0000
  C   C630      1.0  0.88602  0.46957  0.17974  1.0000
  C   C631      1.0  0.68868  0.04921  0.26354  1.0000
  H   H1103     1.0  0.94553  0.09436  0.48729  1.0000
  H   H1104     1.0  0.94812  0.40790  0.21519  1.0000
  H   H1105     1.0  0.90700  0.06949  0.42659  1.0000
  N   N34       1.0  0.90160  0.48661  0.15690  1.0000
  H   H1106     1.0  0.94145  0.05190  0.26427  1.0000
  H   H1107     1.0  0.83968  0.22370  0.07860  1.0000
  H   H1108     1.0  0.71321  0.04946  0.14098  1.0000
  H   H1109     1.0  0.83517  0.46239  0.18360  1.0000
  H   H1110     1.0  0.88640  0.13894  0.01613  1.0000
  H   H1111     1.0  0.70165  0.00921  0.30049  1.0000
  N   N35       1.0  0.67854  0.02765  0.23454  1.0000
  C   C632      1.0  0.90027  0.47663  0.11706  1.0000
  C   C633      1.0  0.68735  0.03393  0.19734  1.0000
  C   C634      1.0  0.68813  0.47877  0.39436  1.0000
  C   C635      1.0  0.71665  0.05766  0.30817  1.0000
  C   C636      1.0  0.83122  0.01509  0.05448  1.0000
  C   C637      1.0  0.83287  0.48408  0.02564  1.0000
  C   C638      1.0  0.89641  0.43047  0.06744  1.0000
  H   H1112     1.0  0.72374  0.46066  0.47128  1.0000
  S   S138      1.0  0.87534  0.01545  0.23056  1.0000
  Fe  Fe71      1.0  0.00011  0.46147  0.39157  1.0000
  H   H1113     1.0  0.86830  0.08213  0.02440  1.0000
  C   C639      1.0  0.00425  0.16755  0.23865  1.0000
  S   S139      1.0  0.00535  0.06580  0.46864  1.0000
  H   H1114     1.0  0.81122  0.47657  0.06788  1.0000
  H   H1115     1.0  0.92530  0.06609  0.49694  1.0000
  H   H1116     1.0  0.82568  0.46756  0.00589  1.0000
  H   H1117     1.0  0.67800  0.02257  0.17568  1.0000
  H   H1118     1.0  0.00174  0.13962  0.24675  1.0000
  H   H1119     1.0  0.94529  0.48686  0.45294  1.0000
  H   H1120     1.0  0.91397  0.48942  0.41480  1.0000
  C   C640      1.0  0.00096  0.50067  0.48553  1.0000
  H   H1121     1.0  0.85298  0.22564  0.01568  1.0000
  H   H1122     1.0  0.74629  0.47484  0.49076  1.0000
  H   H1123     1.0  0.71885  0.03708  0.20683  1.0000
  H   H1124     1.0  0.91263  0.48779  0.10141  1.0000
  S   S140      1.0  0.95414  0.00553  0.32504  1.0000
  S   S141      1.0  0.99660  0.50285  0.43758  1.0000
  H   H1125     1.0  0.67399  0.48405  0.30544  1.0000
  H   H1126     1.0  0.92563  0.49690  0.19388  1.0000
  H   H1127     1.0  0.73020  0.01248  0.14828  1.0000
  Fe  Fe72      1.0  0.85083  0.46488  0.92170  1.0000
  H   H1128     1.0  0.71185  0.20509  0.73041  1.0000
  H   H1129     1.0  0.74830  0.30933  0.69981  1.0000
  Fe  Fe73      1.0  0.83904  0.39513  0.88458  1.0000
  S   S142      1.0  0.83899  0.41944  0.82856  1.0000
  S   S143      1.0  0.82611  0.34033  0.89307  1.0000
  Fe  Fe74      1.0  0.86699  0.44568  0.84548  1.0000
  S   S144      1.0  0.89256  0.44612  0.80460  1.0000
  Fe  Fe75      1.0  0.82342  0.46619  0.85484  1.0000
  C   C641      1.0  0.88058  0.12491  0.99200  1.0000
  S   S145      1.0  0.86825  0.41721  0.89986  1.0000
  S   S146      1.0  0.82174  0.44093  0.91043  1.0000
  Fe  Fe76      1.0  0.86696  0.05823  0.84000  1.0000
  S   S147      1.0  0.86964  0.09515  0.88815  1.0000
  C   C642      1.0  0.90894  0.01063  0.79535  1.0000
  Fe  Fe77      1.0  0.82496  0.08635  0.82353  1.0000
  S   S148      1.0  0.82468  0.12502  0.87042  1.0000
  S   S149      1.0  0.80115  0.08144  0.78023  1.0000
  Fe  Fe78      1.0  0.85517  0.13714  0.85257  1.0000
  S   S150      1.0  0.86804  0.19222  0.85015  1.0000
  Fe  Fe79      1.0  0.83903  0.08019  0.90283  1.0000
  S   S151      1.0  0.82805  0.07439  0.96145  1.0000
  S   S152      1.0  0.85485  0.10132  0.80313  1.0000
  S   S153      1.0  0.83700  0.04054  0.85723  1.0000
  Fe  Fe80      1.0  0.70270  0.44158  0.71094  1.0000
  S   S154      1.0  0.69155  0.40267  0.66944  1.0000
  S   S155      1.0  0.73544  0.43121  0.72148  1.0000
  Fe  Fe81      1.0  0.68753  0.07980  0.74598  1.0000
  S   S156      1.0  0.70834  0.07431  0.79448  1.0000
  S   S157      1.0  0.69730  0.09455  0.68983  1.0000
  H   H1130     1.0  0.72788  0.43937  0.53468  1.0000
  H   H1131     1.0  0.76846  0.27852  0.69042  1.0000
  H   H1132     1.0  0.85759  0.13084  0.95211  1.0000
  H   H1133     1.0  0.73969  0.21392  0.67649  1.0000
  C   C643      1.0  0.94007  0.03838  0.56292  1.0000
  H   H1134     1.0  0.89063  0.18661  0.96960  1.0000
  C   C644      1.0  0.77535  0.08023  0.78484  1.0000
  C   C645      1.0  0.76422  0.06961  0.75474  1.0000
  C   C646      1.0  0.74369  0.06812  0.75716  1.0000
  C   C647      1.0  0.73405  0.07730  0.78975  1.0000
  C   C648      1.0  0.74515  0.08839  0.81973  1.0000
  C   C649      1.0  0.76567  0.09023  0.81714  1.0000
  H   H1135     1.0  0.77154  0.06207  0.72949  1.0000
  H   H1136     1.0  0.73534  0.05923  0.73399  1.0000
  Fe  Fe82      1.0  0.67362  0.05988  0.66872  1.0000
  H   H1137     1.0  0.77398  0.09996  0.83982  1.0000
  H   H1138     1.0  0.74846  0.25975  0.74386  1.0000
  H   H1139     1.0  0.76347  0.21354  0.69598  1.0000
  H   H1140     1.0  0.82093  0.15332  0.98010  1.0000
  H   H1141     1.0  0.72697  0.26040  0.71580  1.0000
  C   C650      1.0  0.91156  0.03697  0.76895  1.0000
  H   H1142     1.0  0.72601  0.22068  0.76692  1.0000
  H   H1143     1.0  0.96511  0.05475  0.64738  1.0000
  H   H1144     1.0  0.75818  0.10167  0.63542  1.0000
  C   C651      1.0  0.77997  0.47805  0.80113  1.0000
  C   C652      1.0  0.78476  0.44794  0.78007  1.0000
  C   C653      1.0  0.77097  0.43436  0.75561  1.0000
  C   C654      1.0  0.75209  0.45008  0.75256  1.0000
  H   H1145     1.0  0.75756  0.02053  0.85385  1.0000
  H   H1146     1.0  0.86534  0.24512  0.93246  1.0000
  H   H1147     1.0  0.79919  0.43548  0.78214  1.0000
  H   H1148     1.0  0.77493  0.41142  0.73896  1.0000
  H   H1149     1.0  0.75581  0.06983  0.90267  1.0000
  C   C655      1.0  0.67886  0.29718  0.68680  1.0000
  H   H1150     1.0  0.73358  0.12033  0.63777  1.0000
  H   H1151     1.0  0.79337  0.17606  0.79183  1.0000
  H   H1152     1.0  0.84994  0.00627  0.95419  1.0000
  C   C656      1.0  0.84103  0.19349  0.95857  1.0000
  H   H1153     1.0  0.94732  0.06837  0.80737  1.0000
  C   C657      1.0  0.83757  0.29970  0.87854  1.0000
  C   C658      1.0  0.82723  0.26801  0.88131  1.0000
  C   C659      1.0  0.83607  0.23501  0.87135  1.0000
  C   C660      1.0  0.85547  0.23333  0.85903  1.0000
  C   C661      1.0  0.86565  0.26510  0.85551  1.0000
  C   C662      1.0  0.85675  0.29814  0.86513  1.0000
  H   H1154     1.0  0.81236  0.26895  0.89132  1.0000
  H   H1155     1.0  0.82798  0.21086  0.87365  1.0000
  H   H1156     1.0  0.88064  0.26410  0.84585  1.0000
  H   H1157     1.0  0.86486  0.32231  0.86276  1.0000
  H   H1158     1.0  0.78596  0.20858  0.82582  1.0000
  C   C663      1.0  0.97131  0.02616  0.59602  1.0000
  H   H1159     1.0  0.81382  0.49521  0.75380  1.0000
  H   H1160     1.0  0.69625  0.26094  0.65330  1.0000
  N   N36       1.0  0.85944  0.18193  0.97862  1.0000
  C   C664      1.0  0.98542  0.06184  0.78364  1.0000
  H   H1161     1.0  0.98055  0.03080  0.57165  1.0000
  H   H1162     1.0  0.76634  0.12965  0.69401  1.0000
  C   C665      1.0  0.95103  0.05669  0.53111  1.0000
  C   C666      1.0  0.93637  0.07261  0.86196  1.0000
  C   C667      1.0  0.86068  0.14178  0.97963  1.0000
  C   C668      1.0  0.83397  0.03954  0.99264  1.0000
  H   H1163     1.0  0.70951  0.14597  0.75901  1.0000
  H   H1164     1.0  0.77206  0.22585  0.76688  1.0000
  H   H1165     1.0  0.89639  0.27389  0.92530  1.0000
  H   H1166     1.0  0.74674  0.27871  0.66211  1.0000
  C   C669      1.0  0.92377  0.47039  0.76472  1.0000
  C   C670      1.0  0.87656  0.19448  0.95628  1.0000
  C   C671      1.0  0.90982  0.47877  0.79210  1.0000
  C   C672      1.0  0.93758  0.49539  0.75339  1.0000
  H   H1167     1.0  0.73778  0.09595  0.84491  1.0000
  S   S158      1.0  0.68501  0.19051  0.67170  1.0000
  H   H1168     1.0  0.78977  0.09987  0.94622  1.0000
  H   H1169     1.0  0.93073  0.10249  0.52748  1.0000
  H   H1170     1.0  0.87685  0.18130  0.92890  1.0000
  C   C673      1.0  0.69811  0.18365  0.79782  1.0000
  H   H1171     1.0  0.70305  0.20507  0.81622  1.0000
  H   H1172     1.0  0.97349  0.05073  0.87377  1.0000
  H   H1173     1.0  0.98920  0.10090  0.64056  1.0000
  H   H1174     1.0  0.69190  0.16222  0.81480  1.0000
  C   C674      1.0  0.67748  0.23236  0.68969  1.0000
  C   C675      1.0  0.80427  0.19238  0.95001  1.0000
  H   H1175     1.0  0.68049  0.16098  0.58079  1.0000
  C   C676      1.0  0.75357  0.14070  0.67866  1.0000
  H   H1176     1.0  0.92715  0.02563  0.55070  1.0000
  H   H1177     1.0  0.72160  0.03109  0.85876  1.0000
  H   H1178     1.0  0.86713  0.48470  0.75567  1.0000
  C   C677      1.0  0.93720  0.08138  0.50947  1.0000
  C   C678      1.0  0.86379  0.42027  0.73026  1.0000
  C   C679      1.0  0.87747  0.23530  0.95007  1.0000
  H   H1179     1.0  0.73867  0.02283  0.91796  1.0000
  H   H1180     1.0  0.81940  0.49216  0.70641  1.0000
  H   H1181     1.0  0.76488  0.05470  0.94664  1.0000
  C   C680      1.0  0.82132  0.18239  0.97535  1.0000
  H   H1182     1.0  0.92400  0.44425  0.75229  1.0000
  C   C681      1.0  0.84863  0.45033  0.72395  1.0000
  C   C682      1.0  0.78372  0.03998  0.89943  1.0000
  H   H1183     1.0  0.84174  0.18326  0.92992  1.0000
  C   C683      1.0  0.97217  0.06085  0.84545  1.0000
  C   C684      1.0  0.99017  0.07744  0.62209  1.0000
  H   H1184     1.0  0.79831  0.04147  0.91257  1.0000
  H   H1185     1.0  0.99514  0.08647  0.59480  1.0000
  C   C685      1.0  0.87879  0.08555  0.00149  1.0000
  C   C686      1.0  0.99833  0.07368  0.71988  1.0000
  H   H1186     1.0  0.78596  0.05181  0.87210  1.0000
  H   H1187     1.0  0.75803  0.47040  0.87195  1.0000
  H   H1188     1.0  0.90935  0.23775  0.94807  1.0000
  H   H1189     1.0  0.00115  0.05799  0.63326  1.0000
  Fe  Fe83      1.0  0.67370  0.44886  0.64650  1.0000
  H   H1190     1.0  0.74197  0.08779  0.67116  1.0000
  H   H1191     1.0  0.77426  0.16632  0.82429  1.0000
  C   C687      1.0  0.75872  0.17542  0.75327  1.0000
  H   H1192     1.0  0.73376  0.13122  0.72270  1.0000
  H   H1193     1.0  0.98435  0.06613  0.70707  1.0000
  H   H1194     1.0  0.93814  0.05967  0.88907  1.0000
  H   H1195     1.0  0.79893  0.01933  0.82884  1.0000
  H   H1196     1.0  0.78313  0.11355  0.90048  1.0000
  H   H1197     1.0  0.84975  0.45891  0.69505  1.0000
  H   H1198     1.0  0.79027  0.18486  0.96295  1.0000
  N   N37       1.0  0.76459  0.35993  0.84918  1.0000
  C   C688      1.0  0.74800  0.34371  0.82839  1.0000
  C   C689      1.0  0.76783  0.34089  0.88532  1.0000
  C   C690      1.0  0.75864  0.39819  0.85751  1.0000
  C   C691      1.0  0.78325  0.35996  0.82708  1.0000
  C   C692      1.0  0.79151  0.32331  0.81413  1.0000
  C   C693      1.0  0.74251  0.36113  0.79119  1.0000
  C   C694      1.0  0.77321  0.41921  0.88112  1.0000
  C   C695      1.0  0.76345  0.30060  0.88705  1.0000
  C   C696      1.0  0.76964  0.28462  0.92380  1.0000
  C   C697      1.0  0.80953  0.32751  0.78983  1.0000
  C   C698      1.0  0.72577  0.34186  0.77289  1.0000
  C   C699      1.0  0.76382  0.45413  0.89502  1.0000
  H   H1199     1.0  0.73452  0.34447  0.84569  1.0000
  H   H1200     1.0  0.75117  0.31517  0.82248  1.0000
  H   H1201     1.0  0.78317  0.34408  0.89475  1.0000
  H   H1202     1.0  0.75846  0.35333  0.90717  1.0000
  H   H1203     1.0  0.74405  0.39941  0.87130  1.0000
  H   H1204     1.0  0.75691  0.41398  0.83200  1.0000
  H   H1205     1.0  0.78145  0.37739  0.80282  1.0000
  H   H1206     1.0  0.79518  0.37192  0.84316  1.0000
  H   H1207     1.0  0.78059  0.30868  0.79820  1.0000
  H   H1208     1.0  0.79632  0.30720  0.83796  1.0000
  H   H1209     1.0  0.73738  0.38918  0.79473  1.0000
  H   H1210     1.0  0.75516  0.36016  0.77208  1.0000
  H   H1211     1.0  0.78615  0.42588  0.86437  1.0000
  H   H1212     1.0  0.77845  0.40403  0.90531  1.0000
  H   H1213     1.0  0.74748  0.29675  0.88418  1.0000
  H   H1214     1.0  0.77106  0.28519  0.86518  1.0000
  H   H1215     1.0  0.76693  0.25563  0.92397  1.0000
  H   H1216     1.0  0.78547  0.28839  0.92869  1.0000
  H   H1217     1.0  0.76111  0.29742  0.94643  1.0000
  H   H1218     1.0  0.80571  0.34300  0.76488  1.0000
  H   H1219     1.0  0.82119  0.34123  0.80499  1.0000
  H   H1220     1.0  0.81545  0.30084  0.78148  1.0000
  H   H1221     1.0  0.71231  0.34391  0.78998  1.0000
  H   H1222     1.0  0.72246  0.35441  0.74602  1.0000
  H   H1223     1.0  0.72979  0.31339  0.76825  1.0000
  H   H1224     1.0  0.72915  0.48451  0.55104  1.0000
  H   H1225     1.0  0.77498  0.46974  0.90943  1.0000
  H   H1226     1.0  0.75172  0.44882  0.91439  1.0000
  C   C700      1.0  0.74761  0.21603  0.70302  1.0000
  H   H1227     1.0  0.90200  0.06047  0.76890  1.0000
  C   C701      1.0  0.74306  0.25486  0.71592  1.0000
  C   C702      1.0  0.75225  0.28189  0.69042  1.0000
  C   C703      1.0  0.84470  0.00893  0.98203  1.0000
  C   C704      1.0  0.76522  0.20346  0.78132  1.0000
  H   H1228     1.0  0.75282  0.21369  0.79829  1.0000
  S   S159      1.0  0.68150  0.02242  0.62127  1.0000
  H   H1229     1.0  0.89788  0.23059  0.90421  1.0000
  H   H1230     1.0  0.86267  0.40987  0.75855  1.0000
  H   H1231     1.0  0.80581  0.17796  0.92361  1.0000
  C   C705      1.0  0.72370  0.19691  0.74975  1.0000
  N   N38       1.0  0.74196  0.18624  0.72850  1.0000
  C   C706      1.0  0.95058  0.05572  0.83411  1.0000
  H   H1232     1.0  0.97444  0.09003  0.84769  1.0000
  C   C707      1.0  0.78063  0.18755  0.80733  1.0000
  C   C708      1.0  0.74631  0.11084  0.65432  1.0000
  C   C709      1.0  0.71523  0.16827  0.77524  1.0000
  S   S160      1.0  0.68654  0.48849  0.68506  1.0000
  H   H1233     1.0  0.77205  0.16844  0.73692  1.0000
  S   S161      1.0  0.86085  0.49610  0.97185  1.0000
  S   S162      1.0  0.79729  0.49714  0.83073  1.0000
  H   H1234     1.0  0.75541  0.15052  0.76815  1.0000
  H   H1235     1.0  0.93372  0.05955  0.58112  1.0000
  H   H1236     1.0  0.87884  0.42981  0.72570  1.0000
  H   H1237     1.0  0.73280  0.49247  0.77169  1.0000
  H   H1238     1.0  0.87372  0.07049  0.97733  1.0000
  C   C710      1.0  0.73722  0.15437  0.70530  1.0000
  H   H1239     1.0  0.94736  0.02705  0.83239  1.0000
  C   C711      1.0  0.77764  0.10196  0.92628  1.0000
  H   H1240     1.0  0.93754  0.02598  0.63535  1.0000
  H   H1241     1.0  0.95996  0.08116  0.60743  1.0000
  H   H1242     1.0  0.68639  0.19451  0.77963  1.0000
  H   H1243     1.0  0.86127  0.39808  0.71096  1.0000
  H   H1244     1.0  0.75861  0.16217  0.66047  1.0000
  H   H1245     1.0  0.72381  0.16034  0.68887  1.0000
  C   C712      1.0  0.74722  0.47998  0.77390  1.0000
  H   H1246     1.0  0.92108  0.06904  0.85275  1.0000
  H   H1247     1.0  0.93875  0.10160  0.86459  1.0000
  H   H1248     1.0  0.80368  0.22150  0.94472  1.0000
  C   C713      1.0  0.76122  0.49418  0.79766  1.0000
  C   C714      1.0  0.97013  0.06079  0.61922  1.0000
  C   C715      1.0  0.92661  0.03291  0.74261  1.0000
  S   S163      1.0  0.85121  0.49418  0.86787  1.0000
  C   C716      1.0  0.89648  0.24482  0.93080  1.0000
  H   H1249     1.0  0.97145  0.05460  0.77040  1.0000
  H   H1250     1.0  0.72640  0.15769  0.79457  1.0000
  H   H1251     1.0  0.83390  0.43919  0.72806  1.0000
  H   H1252     1.0  0.84535  0.47393  0.77761  1.0000
  C   C717      1.0  0.85129  0.48200  0.75065  1.0000
  H   H1253     1.0  0.76616  0.12035  0.93778  1.0000
  N   N39       1.0  0.95202  0.01139  0.58457  1.0000
  C   C718      1.0  0.72307  0.46739  0.52936  1.0000
  H   H1254     1.0  0.83979  0.22295  0.95651  1.0000
  H   H1255     1.0  0.87667  0.25006  0.97633  1.0000
  H   H1256     1.0  0.96298  0.07319  0.54156  1.0000
  C   C719      1.0  0.76909  0.06544  0.91965  1.0000
  H   H1257     1.0  0.89146  0.12648  0.96944  1.0000
  N   N40       1.0  0.98757  0.04408  0.82056  1.0000
  H   H1258     1.0  0.92848  0.05348  0.72236  1.0000
  H   H1259     1.0  0.98471  0.09136  0.78691  1.0000
  H   H1260     1.0  0.94821  0.48839  0.73240  1.0000
  H   H1261     1.0  0.70684  0.46905  0.53085  1.0000
  S   S164      1.0  0.89055  0.01456  0.82981  1.0000
  H   H1262     1.0  0.99792  0.10277  0.72534  1.0000
  H   H1263     1.0  0.81862  0.19681  0.00143  1.0000
  H   H1264     1.0  0.87600  0.49581  0.69096  1.0000
  S   S165      1.0  0.67855  0.43138  0.75130  1.0000
  H   H1265     1.0  0.00417  0.02876  0.89050  1.0000
  H   H1266     1.0  0.00396  0.07637  0.88830  1.0000
  C   C720      1.0  0.68372  0.00847  0.54753  1.0000
  C   C721      1.0  0.68534  0.26323  0.67475  1.0000
  H   H1267     1.0  0.84910  0.13089  0.99726  1.0000
  C   C722      1.0  0.00174  0.05275  0.75517  1.0000
  H   H1268     1.0  0.00189  0.02405  0.74825  1.0000
  C   C723      1.0  0.67719  0.00983  0.51103  1.0000
  H   H1269     1.0  0.68475  0.32080  0.67465  1.0000
  Fe  Fe84      1.0  0.67407  0.13789  0.69293  1.0000
  H   H1270     1.0  0.97982  0.00641  0.61267  1.0000
  C   C724      1.0  0.67373  0.02773  0.57525  1.0000
  H   H1271     1.0  0.95750  0.03677  0.51180  1.0000
  H   H1272     1.0  0.79836  0.01187  0.96445  1.0000
  C   C725      1.0  0.72145  0.00511  0.87314  1.0000
  Fe  Fe85      1.0  0.83017  0.55821  0.17389  1.0000
  S   S166      1.0  0.83548  0.54299  0.23301  1.0000
  H   H1273     1.0  0.00564  0.93387  0.37035  1.0000
  Fe  Fe86      1.0  0.83408  0.63794  0.18894  1.0000
  S   S167      1.0  0.83998  0.62876  0.24846  1.0000
  S   S168      1.0  0.83074  0.69038  0.15777  1.0000
  Fe  Fe87      1.0  0.85963  0.58244  0.23063  1.0000
  S   S169      1.0  0.89135  0.57803  0.25075  1.0000
  Fe  Fe88      1.0  0.81528  0.59010  0.24654  1.0000
  S   S170      1.0  0.79316  0.59594  0.29364  1.0000
  S   S171      1.0  0.85545  0.59453  0.17076  1.0000
  S   S172      1.0  0.80829  0.60226  0.18788  1.0000
  Fe  Fe89      1.0  0.84010  0.94734  0.13578  1.0000
  H   H1274     1.0  0.78339  0.55466  0.37123  1.0000
  H   H1275     1.0  0.73260  0.84067  0.34312  1.0000
  Fe  Fe90      1.0  0.84288  0.89595  0.20144  1.0000
  S   S173      1.0  0.83340  0.93868  0.24163  1.0000
  S   S174      1.0  0.84970  0.84152  0.22627  1.0000
  Fe  Fe91      1.0  0.81059  0.95323  0.19957  1.0000
  H   H1276     1.0  0.91373  0.57955  0.37796  1.0000
  Fe  Fe92      1.0  0.85374  0.97407  0.21040  1.0000
  S   S175      1.0  0.68259  0.94718  0.41689  1.0000
  S   S176      1.0  0.81938  0.90880  0.16091  1.0000
  S   S177      1.0  0.86473  0.93019  0.17326  1.0000
  H   H1277     1.0  0.76905  0.88208  0.22562  1.0000
  H   H1278     1.0  0.88130  0.50588  0.27298  1.0000
  S   S178      1.0  0.70480  0.54764  0.31298  1.0000
  S   S179      1.0  0.68724  0.61896  0.38849  1.0000
  Fe  Fe93      1.0  0.69154  0.96082  0.35928  1.0000
  S   S180      1.0  0.72464  0.96423  0.35081  1.0000
  H   H1279     1.0  0.78044  0.59400  0.04617  1.0000
  C   C726      1.0  0.93780  0.51362  0.27975  1.0000
  C   C727      1.0  0.84873  0.64061  0.08053  1.0000
  C   C728      1.0  0.76331  0.95667  0.24743  1.0000
  H   H1280     1.0  0.72732  0.59138  0.49663  1.0000
  C   C729      1.0  0.71832  0.50898  0.41763  1.0000
  C   C730      1.0  0.73927  0.95979  0.31075  1.0000
  H   H1281     1.0  0.68765  0.52679  0.42629  1.0000
  H   H1282     1.0  0.81175  0.55638  0.01379  1.0000
  C   C731      1.0  0.74345  0.94795  0.24575  1.0000
  H   H1283     1.0  0.86040  0.50574  0.17192  1.0000
  H   H1284     1.0  0.71242  0.85099  0.31309  1.0000
  H   H1285     1.0  0.78624  0.54200  0.08621  1.0000
  H   H1286     1.0  0.72831  0.65401  0.47821  1.0000
  H   H1287     1.0  0.68400  0.58533  0.25274  1.0000
  H   H1288     1.0  0.79654  0.73406  0.04398  1.0000
  H   H1289     1.0  0.68806  0.57325  0.20564  1.0000
  H   H1290     1.0  0.77681  0.88392  0.16005  1.0000
  C   C732      1.0  0.76814  0.58414  0.29582  1.0000
  C   C733      1.0  0.75569  0.60151  0.32138  1.0000
  C   C734      1.0  0.73610  0.59151  0.32596  1.0000
  C   C735      1.0  0.72884  0.56326  0.30571  1.0000
  C   C736      1.0  0.74125  0.54589  0.28008  1.0000
  C   C737      1.0  0.76072  0.55650  0.27484  1.0000
  H   H1291     1.0  0.79963  0.84777  0.19977  1.0000
  H   H1292     1.0  0.72678  0.60525  0.34569  1.0000
  C   C738      1.0  0.85938  0.52190  0.04217  1.0000
  H   H1293     1.0  0.77015  0.54263  0.25535  1.0000
  H   H1294     1.0  0.68517  0.99528  0.48994  1.0000
  C   C739      1.0  0.92599  0.54270  0.26765  1.0000
  C   C740      1.0  0.90554  0.54015  0.26500  1.0000
  H   H1295     1.0  0.88413  0.53501  0.14740  1.0000
  H   H1296     1.0  0.95579  0.83844  0.21121  1.0000
  H   H1297     1.0  0.93274  0.56737  0.26036  1.0000
  C   C741      1.0  0.89702  0.50812  0.27453  1.0000
  C   C742      1.0  0.83568  0.73228  0.17753  1.0000
  C   C743      1.0  0.83083  0.76363  0.15814  1.0000
  C   C744      1.0  0.83484  0.79736  0.17275  1.0000
  C   C745      1.0  0.84386  0.79998  0.20685  1.0000
  C   C746      1.0  0.84866  0.76867  0.22625  1.0000
  C   C747      1.0  0.84459  0.73499  0.21171  1.0000
  H   H1298     1.0  0.82399  0.76181  0.13163  1.0000
  H   H1299     1.0  0.83111  0.82125  0.15749  1.0000
  H   H1300     1.0  0.85560  0.77042  0.25267  1.0000
  H   H1301     1.0  0.84841  0.71111  0.22690  1.0000
  H   H1302     1.0  0.94057  0.81142  0.18333  1.0000
  H   H1303     1.0  0.70076  0.63236  0.22107  1.0000
  H   H1304     1.0  0.87353  0.82604  0.14330  1.0000
  H   H1305     1.0  0.77134  0.72383  0.03561  1.0000
  C   C748      1.0  0.85114  0.52728  0.07722  1.0000
  H   H1306     1.0  0.85817  0.54416  0.09681  1.0000
  Fe  Fe94      1.0  0.68127  0.57958  0.34446  1.0000
  C   C749      1.0  0.95469  0.57617  0.36304  1.0000
  C   C750      1.0  0.97438  0.57692  0.34320  1.0000
  H   H1307     1.0  0.78650  0.97253  0.28288  1.0000
  C   C751      1.0  0.91401  0.54934  0.14061  1.0000
  N   N41       1.0  0.93118  0.53396  0.39680  1.0000
  H   H1308     1.0  0.69408  0.97840  0.24868  1.0000
  H   H1309     1.0  0.95544  0.59483  0.38642  1.0000
  H   H1310     1.0  0.71895  0.52194  0.39028  1.0000
  C   C752      1.0  0.68483  0.62940  0.21647  1.0000
  H   H1311     1.0  0.88900  0.96639  0.28798  1.0000
  H   H1312     1.0  0.92909  0.54142  0.14898  1.0000
  N   N42       1.0  0.91408  0.85905  0.21953  1.0000
  C   C753      1.0  0.92614  0.89165  0.21476  1.0000
  C   C754      1.0  0.92687  0.82965  0.23552  1.0000
  C   C755      1.0  0.90604  0.84854  0.18280  1.0000
  C   C756      1.0  0.89701  0.86623  0.24508  1.0000
  C   C757      1.0  0.90181  0.88259  0.28279  1.0000
  C   C758      1.0  0.91484  0.92571  0.20175  1.0000
  C   C759      1.0  0.89715  0.81105  0.18069  1.0000
  C   C760      1.0  0.88309  0.88927  0.30514  1.0000
  H   H1313     1.0  0.89572  0.80924  0.12111  1.0000
  H   H1314     1.0  0.76539  0.97568  0.33841  1.0000
  H   H1315     1.0  0.93787  0.88649  0.19409  1.0000
  H   H1316     1.0  0.93400  0.89794  0.24047  1.0000
  H   H1317     1.0  0.93300  0.83812  0.26213  1.0000
  H   H1318     1.0  0.91803  0.80607  0.24207  1.0000
  H   H1319     1.0  0.91741  0.85002  0.16104  1.0000
  H   H1320     1.0  0.89434  0.86803  0.17420  1.0000
  H   H1321     1.0  0.88572  0.88390  0.23190  1.0000
  H   H1322     1.0  0.88943  0.84114  0.25101  1.0000
  H   H1323     1.0  0.90904  0.90838  0.27980  1.0000
  H   H1324     1.0  0.91154  0.86440  0.29883  1.0000
  H   H1325     1.0  0.90849  0.92149  0.17430  1.0000
  H   H1326     1.0  0.90286  0.93354  0.22092  1.0000
  H   H1327     1.0  0.88689  0.80650  0.20353  1.0000
  H   H1328     1.0  0.90882  0.78990  0.18186  1.0000
  H   H1329     1.0  0.87279  0.90759  0.29035  1.0000
  H   H1330     1.0  0.87570  0.86385  0.31041  1.0000
  H   H1331     1.0  0.88672  0.90161  0.33176  1.0000
  C   C761      1.0  0.95023  0.53792  0.37623  1.0000
  H   H1332     1.0  0.90269  0.56360  0.45069  1.0000
  H   H1333     1.0  0.98886  0.55361  0.49491  1.0000
  H   H1334     1.0  0.78683  0.55498  0.42002  1.0000
  H   H1335     1.0  0.87281  0.53474  0.03499  1.0000
  H   H1336     1.0  0.88213  0.56219  0.33015  1.0000
  C   C762      1.0  0.77897  0.54202  0.39734  1.0000
  H   H1337     1.0  0.77936  0.65956  0.03829  1.0000
  H   H1338     1.0  0.70504  0.89117  0.47174  1.0000
  C   C763      1.0  0.75684  0.54668  0.40243  1.0000
  H   H1339     1.0  0.97734  0.60457  0.33463  1.0000
  H   H1340     1.0  0.94448  0.76144  0.22764  1.0000
  C   C764      1.0  0.95470  0.78387  0.22769  1.0000
  H   H1341     1.0  0.71096  0.99206  0.20048  1.0000
  N   N43       1.0  0.77740  0.84286  0.26617  1.0000
  C   C765      1.0  0.79661  0.86013  0.27386  1.0000
  C   C766      1.0  0.77095  0.85261  0.22795  1.0000
  C   C767      1.0  0.76233  0.85875  0.29242  1.0000
  C   C768      1.0  0.77839  0.80284  0.27116  1.0000
  C   C769      1.0  0.79828  0.78321  0.26280  1.0000
  C   C770      1.0  0.80340  0.85843  0.31429  1.0000
  C   C771      1.0  0.74079  0.84833  0.28597  1.0000
  C   C772      1.0  0.78436  0.83944  0.19622  1.0000
  C   C773      1.0  0.79609  0.74285  0.26224  1.0000
  C   C774      1.0  0.82527  0.86482  0.31790  1.0000
  C   C775      1.0  0.72787  0.85698  0.31925  1.0000
  H   H1342     1.0  0.79571  0.88886  0.26609  1.0000
  H   H1343     1.0  0.80856  0.84868  0.25649  1.0000
  H   H1344     1.0  0.75641  0.84163  0.22190  1.0000
  H   H1345     1.0  0.76261  0.88839  0.29187  1.0000
  H   H1346     1.0  0.76595  0.85103  0.32102  1.0000
  H   H1347     1.0  0.77468  0.79556  0.29983  1.0000
  H   H1348     1.0  0.76697  0.79029  0.25422  1.0000
  H   H1349     1.0  0.80921  0.78926  0.28409  1.0000
  H   H1350     1.0  0.80455  0.79103  0.23625  1.0000
  H   H1351     1.0  0.79537  0.87936  0.33041  1.0000
  H   H1352     1.0  0.80037  0.83229  0.32679  1.0000
  H   H1353     1.0  0.73976  0.81948  0.28014  1.0000
  H   H1354     1.0  0.73458  0.86357  0.26250  1.0000
  C   C776      1.0  0.91485  0.55019  0.37372  1.0000
  H   H1355     1.0  0.78414  0.81001  0.19408  1.0000
  H   H1356     1.0  0.81062  0.72941  0.25801  1.0000
  H   H1357     1.0  0.78996  0.73343  0.28856  1.0000
  H   H1358     1.0  0.78639  0.73502  0.23950  1.0000
  H   H1359     1.0  0.93379  0.58252  0.42805  1.0000
  H   H1360     1.0  0.82943  0.86456  0.34720  1.0000
  H   H1361     1.0  0.83398  0.84356  0.30358  1.0000
  H   H1362     1.0  0.72855  0.88559  0.32654  1.0000
  H   H1363     1.0  0.78714  0.84502  0.13743  1.0000
  C   C777      1.0  0.94475  0.81739  0.21185  1.0000
  H   H1364     1.0  0.76427  0.56682  0.09893  1.0000
  H   H1365     1.0  0.95966  0.78874  0.25609  1.0000
  C   C778      1.0  0.78048  0.56767  0.09765  1.0000
  H   H1366     1.0  0.72403  0.64241  0.43120  1.0000
  H   H1367     1.0  0.96768  0.77610  0.21078  1.0000
  C   C779      1.0  0.83944  0.62333  0.04644  1.0000
  C   C780      1.0  0.93290  0.55341  0.43270  1.0000
  H   H1368     1.0  0.95070  0.52015  0.35183  1.0000
  H   H1369     1.0  0.76126  0.62284  0.33783  1.0000
  H   H1370     1.0  0.78235  0.71248  0.07893  1.0000
  H   H1371     1.0  0.70531  0.63556  0.46551  1.0000
  S   S181      1.0  0.82982  0.99288  0.17138  1.0000
  C   C781      1.0  0.73158  0.94891  0.27737  1.0000
  C   C782      1.0  0.77711  0.85433  0.15967  1.0000
  S   S182      1.0  0.84634  0.94818  0.07434  1.0000
  C   C783      1.0  0.87858  0.55876  0.35954  1.0000
  C   C784      1.0  0.75924  0.96762  0.31259  1.0000
  H   H1372     1.0  0.89377  0.50826  0.36521  1.0000
  C   C785      1.0  0.91603  0.54907  0.46048  1.0000
  C   C786      1.0  0.78656  0.59870  0.07363  1.0000
  C   C787      1.0  0.81101  0.66444  0.05084  1.0000
  H   H1373     1.0  0.84635  0.66996  0.08049  1.0000
  C   C788      1.0  0.89837  0.52648  0.15964  1.0000
  H   H1374     1.0  0.68046  0.78159  0.32134  1.0000
  H   H1375     1.0  0.76218  0.84510  0.15368  1.0000
  C   C789      1.0  0.88591  0.80620  0.14509  1.0000
  C   C790      1.0  0.80907  0.60197  0.07284  1.0000
  C   C791      1.0  0.92124  0.56498  0.49755  1.0000
  C   C792      1.0  0.75000  0.52952  0.43873  1.0000
  H   H1376     1.0  0.87702  0.64626  0.10593  1.0000
  C   C793      1.0  0.72133  0.63451  0.46000  1.0000
  H   H1377     1.0  0.84241  0.63017  0.10602  1.0000
  H   H1378     1.0  0.98638  0.56749  0.36155  1.0000
  H   H1379     1.0  0.95351  0.51586  0.28137  1.0000
  H   H1380     1.0  0.82887  0.89106  0.30621  1.0000
  C   C794      1.0  0.67940  0.59099  0.22427  1.0000
  H   H1381     1.0  0.68727  0.91648  0.23470  1.0000
  H   H1382     1.0  0.84623  0.63572  0.02199  1.0000
  C   C795      1.0  0.90043  0.98488  0.28257  1.0000
  S   S183      1.0  0.82236  0.51785  0.12995  1.0000
  H   H1383     1.0  0.91268  0.59304  0.17991  1.0000
  C   C796      1.0  0.92845  0.95706  0.19879  1.0000
  H   H1384     1.0  0.87794  0.64386  0.05674  1.0000
  H   H1385     1.0  0.78337  0.51334  0.39608  1.0000
  H   H1386     1.0  0.91997  0.98103  0.18938  1.0000
  C   C797      1.0  0.72019  0.56914  0.44270  1.0000
  C   C798      1.0  0.87082  0.63313  0.08155  1.0000
  H   H1387     1.0  0.92205  0.60455  0.13553  1.0000
  S   S184      1.0  0.77727  0.95686  0.20645  1.0000
  C   C799      1.0  0.77125  0.96582  0.28117  1.0000
  H   H1388     1.0  0.72096  0.57839  0.41387  1.0000
  C   C800      1.0  0.89411  0.53501  0.37821  1.0000
  H   H1389     1.0  0.87975  0.77919  0.14438  1.0000
  H   H1390     1.0  0.81583  0.57484  0.07058  1.0000
  C   C801      1.0  0.91099  0.58874  0.15005  1.0000
  H   H1391     1.0  0.70546  0.00415  0.13462  1.0000
  H   H1392     1.0  0.91969  0.96364  0.32448  1.0000
  H   H1393     1.0  0.70868  0.52320  0.49170  1.0000
  H   H1394     1.0  0.75810  0.54171  0.46165  1.0000
  H   H1395     1.0  0.78607  0.57073  0.12589  1.0000
  H   H1396     1.0  0.94338  0.58644  0.34374  1.0000
  H   H1397     1.0  0.89622  0.59853  0.14164  1.0000
  H   H1398     1.0  0.82210  0.68268  0.03963  1.0000
  C   C802      1.0  0.72991  0.59718  0.46732  1.0000
  H   H1399     1.0  0.93493  0.96307  0.22581  1.0000
  H   H1400     1.0  0.74982  0.53425  0.37852  1.0000
  H   H1401     1.0  0.91296  0.54674  0.11046  1.0000
  N   N44       1.0  0.81735  0.62604  0.04400  1.0000
  H   H1402     1.0  0.87756  0.58535  0.37280  1.0000
  H   H1403     1.0  0.74590  0.59793  0.46240  1.0000
  H   H1404     1.0  0.97422  0.55991  0.31837  1.0000
  H   H1405     1.0  0.87411  0.60405  0.08342  1.0000
  H   H1406     1.0  0.77972  0.62330  0.08552  1.0000
  H   H1407     1.0  0.81043  0.66991  0.08085  1.0000
  H   H1408     1.0  0.75330  0.57567  0.40198  1.0000
  H   H1409     1.0  0.89749  0.53457  0.18885  1.0000
  H   H1410     1.0  0.70436  0.57034  0.44978  1.0000
  H   H1411     1.0  0.71652  0.94123  0.27606  1.0000
  H   H1412     1.0  0.84460  0.59500  0.04630  1.0000
  H   H1413     1.0  0.73726  0.94027  0.21987  1.0000
  H   H1414     1.0  0.91275  0.52077  0.46516  1.0000
  H   H1415     1.0  0.81310  0.61100  0.10066  1.0000
  H   H1416     1.0  0.94037  0.95122  0.17875  1.0000
  C   C803      1.0  0.79142  0.67789  0.03361  1.0000
  C   C804      1.0  0.91780  0.98362  0.30342  1.0000
  H   H1417     1.0  0.67675  0.64802  0.23521  1.0000
  H   H1418     1.0  0.86408  0.54638  0.36158  1.0000
  H   H1419     1.0  0.91824  0.54650  0.34413  1.0000
  H   H1420     1.0  0.96289  0.52908  0.39335  1.0000
  H   H1421     1.0  0.88978  0.53216  0.40716  1.0000
  H   H1422     1.0  0.00563  0.98790  0.45981  1.0000
  C   C805      1.0  0.84180  0.98429  0.04384  1.0000
  N   N45       1.0  0.72824  0.53146  0.44588  1.0000
  H   H1423     1.0  0.94695  0.54571  0.44640  1.0000
  C   C806      1.0  0.81188  0.61468  0.00583  1.0000
  H   H1424     1.0  0.73584  0.52394  0.26434  1.0000
  C   C807      1.0  0.78508  0.71431  0.04903  1.0000
  H   H1425     1.0  0.67755  0.96443  0.18956  1.0000
  H   H1426     1.0  0.92434  0.59370  0.49480  1.0000
  C   C808      1.0  0.70679  0.90791  0.49651  1.0000
  H   H1427     1.0  0.70691  0.93638  0.48838  1.0000
  H   H1428     1.0  0.68147  0.63666  0.18772  1.0000
  C   C809      1.0  0.72436  0.51838  0.48411  1.0000
  C   C810      1.0  0.67895  0.98861  0.24448  1.0000
  C   C811      1.0  0.83372  0.51103  0.08668  1.0000
  H   H1429     1.0  0.67423  0.51738  0.19618  1.0000
  H   H1430     1.0  0.77947  0.97661  0.00866  1.0000
  H   H1431     1.0  0.79330  0.68084  0.00358  1.0000
  H   H1432     1.0  0.80512  0.96450  0.00939  1.0000
  C   C812      1.0  0.84850  0.98143  0.00748  1.0000
  Fe  Fe95      1.0  0.98290  0.55923  0.72238  1.0000
  H   H1433     1.0  0.97172  0.64108  0.76403  1.0000
  S   S185      1.0  0.95371  0.56289  0.75428  1.0000
  H   H1434     1.0  0.78088  0.98764  0.81801  1.0000
  H   H1435     1.0  0.70783  0.00436  0.88973  1.0000
  C   C813      1.0  0.96424  0.74929  0.75537  1.0000
  S   S186      1.0  0.98576  0.58036  0.66494  1.0000
  H   H1436     1.0  0.83429  0.57224  0.99493  1.0000
  Fe  Fe96      1.0  0.98437  0.96065  0.70154  1.0000
  C   C814      1.0  0.86045  0.57851  0.81726  1.0000
  S   S187      1.0  0.98829  0.91300  0.66408  1.0000
  H   H1437     1.0  0.88227  0.52748  0.72477  1.0000
  C   C815      1.0  0.79164  0.96399  0.99259  1.0000
  H   H1438     1.0  0.85666  0.95769  0.99895  1.0000
  C   C816      1.0  0.96891  0.91540  0.55294  1.0000
  H   H1439     1.0  0.78838  0.93575  0.98697  1.0000
  C   C817      1.0  0.86229  0.55230  0.78534  1.0000
  H   H1440     1.0  0.79122  0.95261  0.87575  1.0000
  C   C818      1.0  0.93556  0.66356  0.77409  1.0000
  H   H1441     1.0  0.93870  0.63462  0.76958  1.0000
  C   C819      1.0  0.99581  0.65832  0.81913  1.0000
  C   C820      1.0  0.79485  0.99133  0.83262  1.0000
  H   H1442     1.0  0.94999  0.98414  0.63626  1.0000
  H   H1443     1.0  0.87450  0.54375  0.64369  1.0000
  C   C821      1.0  0.81814  0.57598  0.99490  1.0000
  H   H1444     1.0  0.80814  0.98634  0.88561  1.0000
  H   H1445     1.0  0.94609  0.95260  0.76858  1.0000
  H   H1446     1.0  0.81842  0.63293  0.98547  1.0000
  H   H1447     1.0  0.94679  0.72570  0.79851  1.0000
  H   H1448     1.0  0.93618  0.66412  0.64760  1.0000
  C   C822      1.0  0.93742  0.52945  0.76890  1.0000
  S   S188      1.0  0.00227  0.93482  0.74565  1.0000
  H   H1449     1.0  0.81762  0.58526  0.93602  1.0000
  H   H1450     1.0  0.93568  0.66680  0.80427  1.0000
  H   H1451     1.0  0.98710  0.93084  0.82144  1.0000
  H   H1452     1.0  0.67707  0.57993  0.55489  1.0000
  H   H1453     1.0  0.97139  0.00011  0.79925  1.0000
  H   H1454     1.0  0.93414  0.73470  0.75738  1.0000
  C   C823      1.0  0.81127  0.56697  0.95638  1.0000
  H   H1455     1.0  0.95498  0.93568  0.60131  1.0000
  H   H1456     1.0  0.95504  0.90689  0.54045  1.0000
  C   C824      1.0  0.75859  0.99945  0.87526  1.0000
  C   C825      1.0  0.88219  0.54743  0.67005  1.0000
  H   H1457     1.0  0.90937  0.69898  0.77241  1.0000
  H   H1458     1.0  0.97904  0.95182  0.59312  1.0000
  H   H1459     1.0  0.99941  0.97862  0.86156  1.0000
  C   C826      1.0  0.82054  0.50985  0.73068  1.0000
  H   H1460     1.0  0.98294  0.68100  0.75187  1.0000
  H   H1461     1.0  0.76438  0.99633  0.94952  1.0000
  C   C827      1.0  0.87357  0.52390  0.69968  1.0000
  H   H1462     1.0  0.72121  0.98339  0.85254  1.0000
  H   H1463     1.0  0.93427  0.55074  0.50927  1.0000
  H   H1464     1.0  0.99707  0.74364  0.63798  1.0000
  H   H1465     1.0  0.87098  0.56554  0.76402  1.0000
  H   H1466     1.0  0.91963  0.95967  0.81522  1.0000
  C   C828      1.0  0.81038  0.96783  0.81335  1.0000
  H   H1467     1.0  0.97704  0.70476  0.81623  1.0000
  H   H1468     1.0  0.85130  0.56767  0.83950  1.0000
  C   C829      1.0  0.95608  0.97919  0.56063  1.0000
  C   C830      1.0  0.84197  0.54283  0.77048  1.0000
  H   H1469     1.0  0.91272  0.67245  0.73183  1.0000
  H   H1470     1.0  0.85380  0.60429  0.80800  1.0000
  C   C831      1.0  0.97090  0.67032  0.76883  1.0000
  H   H1471     1.0  0.88503  0.65203  0.76868  1.0000
  H   H1472     1.0  0.88104  0.57588  0.67826  1.0000
  H   H1473     1.0  0.96218  0.94553  0.83156  1.0000
  H   H1474     1.0  0.94253  0.97108  0.54649  1.0000
  C   C832      1.0  0.91424  0.67239  0.76196  1.0000
  H   H1475     1.0  0.80620  0.93952  0.81386  1.0000
  H   H1476     1.0  0.80769  0.97147  0.94310  1.0000
  H   H1477     1.0  0.83324  0.53244  0.79380  1.0000
  H   H1478     1.0  0.90083  0.64431  0.80743  1.0000
  C   C833      1.0  0.93661  0.97620  0.76865  1.0000
  H   H1479     1.0  0.97773  0.92809  0.86734  1.0000
  C   C834      1.0  0.96498  0.94577  0.58004  1.0000
  C   C835      1.0  0.79483  0.98422  0.95693  1.0000
  H   H1480     1.0  0.75808  0.97366  0.86021  1.0000
  H   H1481     1.0  0.78950  0.51911  0.68045  1.0000
  H   H1482     1.0  0.92315  0.56409  0.80849  1.0000
  H   H1483     1.0  0.81405  0.56134  0.70356  1.0000
  H   H1484     1.0  0.94593  0.79773  0.76015  1.0000
  C   C836      1.0  0.99975  0.53066  0.54526  1.0000
  C   C837      1.0  0.97743  0.94429  0.84197  1.0000
  H   H1485     1.0  0.84411  0.52292  0.67997  1.0000
  H   H1486     1.0  0.77997  0.51406  0.72628  1.0000
  C   C838      1.0  0.99579  0.53041  0.50738  1.0000
  C   C839      1.0  0.92155  0.98024  0.79497  1.0000
  H   H1487     1.0  0.87522  0.58339  0.82842  1.0000
  H   H1488     1.0  0.82489  0.97025  0.82653  1.0000
  C   C840      1.0  0.90025  0.64497  0.77709  1.0000
  C   C841      1.0  0.97606  0.67607  0.80969  1.0000
  C   C842      1.0  0.90986  0.51267  0.80803  1.0000
  H   H1489     1.0  0.94771  0.62040  0.64566  1.0000
  H   H1490     1.0  0.96264  0.65905  0.64627  1.0000
  H   H1491     1.0  0.96648  0.98581  0.53833  1.0000
  C   C843      1.0  0.94947  0.64589  0.69874  1.0000
  H   H1492     1.0  0.90879  0.56226  0.51684  1.0000
  H   H1493     1.0  0.93781  0.69997  0.70489  1.0000
  H   H1494     1.0  0.77217  0.95571  0.92885  1.0000
  H   H1495     1.0  0.69289  0.91882  0.54794  1.0000
  H   H1496     1.0  0.81622  0.53931  0.94936  1.0000
  C   C844      1.0  0.67371  0.52456  0.56858  1.0000
  H   H1497     1.0  0.73263  0.53399  0.50435  1.0000
  H   H1498     1.0  0.90419  0.61799  0.76629  1.0000
  H   H1499     1.0  0.99694  0.99307  0.79821  1.0000
  H   H1500     1.0  0.96473  0.75096  0.72510  1.0000
  H   H1501     1.0  0.96044  0.78709  0.80034  1.0000
  C   C845      1.0  0.94824  0.72366  0.76826  1.0000
  H   H1502     1.0  0.73789  0.97546  0.91327  1.0000
  H   H1503     1.0  0.92265  0.95974  0.59530  1.0000
  H   H1504     1.0  0.99973  0.66474  0.84776  1.0000
  C   C846      1.0  0.92337  0.53795  0.79610  1.0000
  H   H1505     1.0  0.96361  0.69576  0.70331  1.0000
  H   H1506     1.0  0.96497  0.66450  0.82795  1.0000
  S   S189      1.0  0.00562  0.51543  0.71283  1.0000
  H   H1507     1.0  0.97891  0.74040  0.76506  1.0000
  H   H1508     1.0  0.97188  0.80465  0.76009  1.0000
  C   C847      1.0  0.95041  0.68365  0.71549  1.0000
  H   H1509     1.0  0.79589  0.61729  0.00127  1.0000
  H   H1510     1.0  0.97583  0.89233  0.56745  1.0000
  C   C848      1.0  0.96028  0.78694  0.76999  1.0000
  H   H1511     1.0  0.81173  0.97635  0.78439  1.0000
  H   H1512     1.0  0.93624  0.63198  0.70778  1.0000
  C   C849      1.0  0.79340  0.98184  0.87399  1.0000
  H   H1513     1.0  0.96248  0.62958  0.70688  1.0000
  C   C850      1.0  0.94895  0.64765  0.65701  1.0000
  N   N46       1.0  0.95125  0.68536  0.75667  1.0000
  H   H1514     1.0  0.99585  0.55382  0.56163  1.0000
  H   H1515     1.0  0.89755  0.96108  0.64398  1.0000
  C   C851      1.0  0.77625  0.98396  0.93264  1.0000
  H   H1516     1.0  0.84892  0.56181  0.70495  1.0000
  H   H1517     1.0  0.79504  0.56869  0.95475  1.0000
  S   S190      1.0  0.00518  0.67466  0.66895  1.0000
  H   H1518     1.0  0.92159  0.95398  0.66331  1.0000
  C   C852      1.0  0.98441  0.98167  0.85025  1.0000
  C   C853      1.0  0.91184  0.97348  0.64878  1.0000
  H   H1519     1.0  0.97442  0.99315  0.87134  1.0000
  H   H1520     1.0  0.75743  0.51768  0.81361  1.0000
  C   C854      1.0  0.69029  0.90170  0.52384  1.0000
  H   H1521     1.0  0.69152  0.87345  0.53243  1.0000
  H   H1522     1.0  0.87026  0.52816  0.79528  1.0000
  H   H1523     1.0  0.83484  0.56868  0.76268  1.0000
  C   C855      1.0  0.73930  0.00078  0.89794  1.0000
  N   N47       1.0  0.77772  0.00185  0.89580  1.0000
  H   H1524     1.0  0.99505  0.62893  0.81669  1.0000
  H   H1525     1.0  0.80391  0.55759  0.74905  1.0000
  H   H1526     1.0  0.89794  0.54005  0.66609  1.0000
  H   H1527     1.0  0.97909  0.92372  0.53107  1.0000
  H   H1528     1.0  0.89959  0.51933  0.82971  1.0000
  H   H1529     1.0  0.68030  0.57941  0.67472  1.0000
  C   C856      1.0  0.00357  0.78326  0.67866  1.0000
  C   C857      1.0  0.98487  0.00473  0.81526  1.0000
  H   H1530     1.0  0.67885  0.52742  0.59630  1.0000
  C   C858      1.0  0.92095  0.98409  0.61228  1.0000
  H   H1531     1.0  0.99941  0.80552  0.66135  1.0000
  H   H1532     1.0  0.69653  0.99224  0.55439  1.0000
  H   H1533     1.0  0.72111  0.90076  0.50919  1.0000
  S   S191      1.0  0.95804  0.99928  0.70865  1.0000
  C   C859      1.0  0.80710  0.54304  0.72314  1.0000
  C   C860      1.0  0.85129  0.53235  0.70533  1.0000
  H   H1534     1.0  0.77781  0.55648  0.70363  1.0000
  C   C861      1.0  0.93926  0.00262  0.74238  1.0000
  C   C862      1.0  0.78743  0.53240  0.70738  1.0000
  N   N48       1.0  0.84174  0.51687  0.73892  1.0000
  C   C863      1.0  0.00222  0.74802  0.66549  1.0000
  S   S192      1.0  0.00512  0.59643  0.74496  1.0000
  H   H1535     1.0  0.91050  0.00285  0.59856  1.0000
  H   H1536     1.0  0.90937  0.99721  0.66658  1.0000
  C   C864      1.0  0.94082  0.00184  0.61849  1.0000
