data_image0
_chemical_formula_structural       HFeSHSCFeS3CHCFeHSFeS2FeS2FeS2FeSFeS3FeS2FeS2FeSFeS3CSHC6H4CHCNHCH2C6H4C6H4C6H4C6H4CH2CHCH3CH2CFeH3CH6SH3CHCFeHCHCHC2H3C2HCH7CH2CH7FeHNCHC4HCHC2HCSC2H12C2H2CH5C2HCH10CH2NHCH5NC7H19CHSH2CSH2CH2C2H2CH2CNHCH9CNHC3H8CHCHC4H5CH2CH2CH3CH3C2HCH3CH3CH4CH2CH3CHCH2C2H3SH2C2H3C3H2FeH5C3H4CH2CH2CSCH6CH2SHCH2CS2FeS2CFeSHFeS2FeS2FeSFeS3HSCHSFeSH2SFeS2FeS2FeSFeS3HSNC6H4C2H2CH2C2H3C6H4C6H4C6H4C6H4CHC2HCHC2H3NC4HC4H14SH8CH3CHNC5HC5H8SH2CH4SH2CHCFeHC3HCHCH10CHCH8CSH2CH3C2HCH4C2H4NH5C2SCH5CH8C2H3CFeH3CH7CHC3H3CNC12H28NC4H2C3FeH9C2HC2H2C2H9CFeCH3C6HFeHCHCHC2H3CH3CHSH3CH2C2H3CNCFeSH2FeS2HSFeS2FeS2FeSFeS3FeS2FeH2FeCS2C4NH7C7H4C6H6C2H3CH6C7H6CH2CH2SH5CSCH2NH4CHCHC2H6CH5CH2C2H2C2HC2H6CH3CHC2HC2H3CHCH4CHC2H4CHCHCHSH7CNH2C4H6CFeH3C2HC5H4CSHCH3NH2C2HSH6C2HC5H5CH4CH5SH6C2H2CH3C5H5CHFeHCHC2FeCNH9FeHSCHSH2CSFeS2FeS2FeSFeS3FeHSHCS2CFeS2FeHSFeSCS2H3C6H5CHCH4C7H5CHCH3CHC7H4FeHFeHCHCH3C2H4C2H2C2H3CH2CNH2CH2CH10NC9HC2H26C3HC2H2C2H4CHNHCH3C2H2CHSH5C2H2CH4NCHC3HC2HCHCH2C2H4FeHCH5NH12NHC2SCSC2H2CH4CHCH3CFeH2NH8C2H3C2H4CHC2H5CHCH3C2H3CH2CH2C2H2CHC2HFeHSHC3NSCFeHSH3CS2CHCHSCFeSHFeSFeSFeS2HSCSH2FeS2FeS2C7H3C6H5C2H2FeH2C6H4C6H4CH2SC2H2CHCHFeHC2H2CHCH6CH8CNC12H24CH3NH3C3H2CHCH3SFeHCSC5HNH4NCH2CHFeCHCH2C3SC2SHC2H2CSH5C2H2SCH7C2H3SCH10SCH3CHCNC2FeCHCSH2CH6CH3C2H5C3H4CH3CH4CH2CH3CHCHCHCH8C3SCH2CH4CH3NCH2SHCHCH8S2HSH3CH4SFeCH4CH3CHC3H3S2HFeHS2H2CFeS2FeHSFe2HS2CSH2CFeSCHSHS2CHFeS2FeS2C4HCH3C6H5C2H2FeC7H5NH5C2HC6H5C2H2C2H2SH2CH2C2HC3H7C2H3CNCHCH5C2H5C2H4CH4C2SHCNH2CNC5HC2HCHCHCH8SH3CH8C2H4C2SC2H4CH2CHC2Fe2H3CH2C2H3SHCH2C3HCH2SHSC3H6C2HCHCH3CH2CH6CSHSNC5HC4H13CH10CH4FeH3SHC2H2FeH4NC2H4CH4CH2CH2C2HCH4FeH2CH3CHC2HCHCHCHCH3C2H2FeS2H3FeS2HFeCSHCHCFeS2FeS2FeSFeS3HSH2CFeS2H2C7H3C6H5C3H4C2HSC8H6CHCHCHCH7C5H3C2H3CH7CH2CH2CH2CH2NCH2CHSHCHC2H4C2H3CH5NH2NC12H16C2H6CH3CH3CHCHCH6CH2CHC3HC2HC3NH4NHCH3CHCH5C2H8CH5C3H3C2HCH3NC7H14CH3CHCH4CHNH4CH2C2H5CSH7FeCH2CNH4FeH8CH4NHFeSCHFeS3CFeS2FeS2FeSFeS3FeS2HCH2SHCH8NH2C6SH2C7H4C4H4CH2CHC7H5CH6NH4NH6C2H2FeC2HCHCNH8CHNC11H14CH3CH8CSHC2H2C3HCH2C2H2CH2FeCH2CHCH7C2H3NC2SCHCHCHCHC2H3CH2CH2C2HCH3CHCHCHC2HCH3CH2CH3C2H3SCHCH11CH5C2H4CH5C2HCHCHSHC2H3CHCH11SC2H2SFeCHFeCHNHC2FeHSCH2S2FeS2FeS2FeSFeS3H2NFeHSH3CH2SFeS2FeS2FeSFeS3CHSC6H4C2HC3H3CH2CHCH3CHC2HCH2C6H4C6H4C6H5C6H7CH2C6H12NC3HCHCH5CH4C2H5NC11H26CH2C2H5CH6SH4NC2H2CH4CHC2HCHCH4SH2CH4CHC2H2CFeH6FeC2HSH2CH2CH9CHCSCH2C2H4CH4C2H3FeH3NH5SC4HCSH4C3HCH2C3H2NSHCHCHC3H2FeH2FeC3H3C3HCH4CHSCNCHFeCH3SC2H5CHCH2CH2CHCFeHSH2CSH2SFeS2FeS2FeSFeS3H3S2FeS2FeS2FeSFeS3CHSC6H4NC2H2CHC2H2C6H4C6H4C6H6C6HFeHCH5CHCH7SH3CH2CFeHCHCHC2H2C2H5SHC2H2C3HCHCHCNCH4C2HNCSH5NHC8HC3H9CH11CHCH8CH11CHSH6CH2C2H3NFeCH4NC6HC3H3CH10FeH6C2HC2SCHCH5CH6SH3CHFeHCH4CH4CH4C4HCHCH5CHNH3CH5CH2CHC2H4C5H3CHCH5CH3CH10C4SC5H3SHFeSH2S2FeHSHFeS2FeS2FeS2FeSFeS3FeS2FeS2FeSFeS3FeHSC6H4C2H3C3H2C6H5C6H4C6H4C6H7CHC2H6CHC2NCH2C6H4CHCH12C2NH2CH3CH2SH7CH4CHCHCH4FeNC12H28CHCH3NCSCHCH2CH3SHCSCH10CH4CH3CNC7HC4H16CHCH4FeH9CH3FeH3SCH4CHFeH2CHC3H2C2HC2H2CHCH3SH2SH2C3H2C2HNH4C3HCHCHCH7C2HSHCHCH2C4SNH3CFeS2HCFeSHFeS2FeS2FeSFeS3FeS2HFeHSNFeS2FeS2FeSFeS4HSC6H4CH5CH3C6H4C9H4C6H4C6H11CH8CHC2H10SH3CH9CH3CH7CH4CH3CHC2H2FeH3CH3CNH3C2HCH3CSCH2CH4CHC2HC3HCH4CH2CH2CHCHCNH3C5HCH9NHC3HCHC3FeHCH3CH3C2H4CH6CH3CH3CH4NC12H7C2HC2H4C2HC2H3CH4CH2NHCH3C2HCH2CH2CHC2HC2HC2H9FeH6CH2CH3CHSHC2H2FeH5NH2C2H2CH8C2SH3C2H2CH4SH2CFeSCFeS2FeS2FeSFeS4FeSH2FeCSCHCFeS2FeSFeCHS2CSHCH2C2H2C2SCH2C2HC2HC6H4C6H5SHC3HC7H4C2H2FeH2CH2CHC2HFeCH5C2H3CH2CH11CHC2H4CHNH2C2H5C2H8CH3CH3S2H3C2H7CHCH4CH3CH2SHNHCNC2HCH3C2HCH2CHCHCH7CH5C2H4CHC3H3NC7H4CH2CH11CHCH4CHCH3CH3SHCNH5CNHCHNH2CHCHCHCH7CH3C2H2CFeH2C2H3FeCSH4FeSHFeS2FeS2FeSFeS3CHSFeS2FeHFeH2S2C2H6C3H5C3H2C6H4C6H4CH2C2H3C6H3NC3H2CH3CHCH2CH3C2HCSH2C2HFeHCH4C2HCHNC6HC3H12CH10NH3CH4CH4CH10CH5C2H2CH7C3HFeHCHCH2CH2CH2CH5NSCHC3H6C2H5CH4CH3CH3SH3NC11H18CH3FeHCH4SH3CH2CH2SC5H5CN2C7HCH3SH2C2H2CSHSCHCH3FeS2FeS2HFeSFeS2Fe2CS2FeSHC2H2FeHS3HS2H2SHCSHSHC6H4C6H6CHCSC2H2CSCHCHC6H4SCH4CH3C2H2C6H4CHCHSHNC7H2C3H2FeH11CHCHCH11C2H4SH5CHCH3CHC5H3CHFeH2CH9CH8CNCHCHC5HC2H6CH2CH3CH4CNH19NH4FeC2H2CSH3C2H4CH10C2NHCHC5SCFeH3SH3C2H7CH4C2HCH6C2H2CH8CH3CHSHCH4CH2CHC3H3C2H2CNCHC7SC2HCH3SH2CHSCH3CH3FeC2HNCH2C3H5CH2C3H3C2HC2H4C3H2CH4NSH6NH2CSH2SFeHSFeS2FeHFeS2H4S2H2FeHCHSFeHSCFeS2HCSHFeSH2SHSHC6H4C7H5CH3CH2C3SH6SC6H4CSCH3C4SHC6H6CH2CH2CH2C4H10S2HSHCH4CHCH2FeSH5CH3FeCSH3S2C2FeCH4C3H3C2H2C2H2C2HC3H7CHCNC5NHC5H4SH8NH8CFeHCHCHNC12H28SH3FeH2FeC2HSCH2CH9NHC3H2CFeHCH3CHCHC2H5C2H2CH2CH2CH5SCH2C2H2CH2SCHSH3CHFeC2HCHC2FeH2C3H2CH6C2SFeS2FeS2FeSFeS3HCHFeS2H3S2HFeHSCHS2HCHCHC7H5CH4C2H4C3H2CH3C6HCH2C6H3C2NH4FeC2NH2C2H2CH5CH2C2H9CHCH4C3HFeCH4CH2CH3CHC3HC2HCHCH4CHFeSCHSC4HCHC3H3C2H9CH8CNH12CH2C4H2C2HCH5CHC2H4CH2CH3CH3CH4CNHC2H2FeH3CHCH5C2H3C2HCHFeH4SH2CHFeC2H3C2H5CH5FeS2FeS2FeSFeS3FeS2CHCFeS2FeS2FeHSH3SH5C6H6CH2CH2C5H3C6H5CH2C7H3CH3C3H2C5H6SCH2CH6C2H2CHC3NC2HC4H13CHCHCHC2HNC6H3C2H14CSH11CHCH5CH6CHCH9CFeC3HCHSHCH5CH3SHCH5CH2CNH3CH8CH3C2H2FeCHCHCNH2CHCH3NCHNHCSHC2HC4HC2H3SHSFeSFeSHFeSHSH3FeS2FeS2FeSFeS3FeS2FeS2FeSFeS3FeS2C6H5CH2C2H3C6H4C6H4C6H4C2HC3H2CHC3H2CH2CH2C3HCH3CH2CH3NC11H27C2HC2HC2H3CHC6HNCHCH3C2HCHC2HCHCHCH2CH2CHCH3CHCHCH4SHCH8CNHCHSH3C2H2CH2CH3CHNH2C2H5NHC4H3CH11NH3NH3CH8SHC3NC11H17CHCH7CH3C2H8CH2C2H5CH10CH2C2H3C2H3CSH4CH2C2HCH4CH2SC2H2C2H4CS2HCHSHFeS2FeS2FeSFeS3HSH2CFeSHFeS2FeS2FeSFeS3FeS2C6H4CHNCH2C2HCH3C6H4C6H4C7H3C6H2CHCH2FeH5SH2CH7CH7C2HC2HCH2CHCFeH7CH6CH4NC8H2CH18NC3H10CNC10HCH19CHCHC2H3SC2HNH5CSHC2HCH2CH5C2HC2H5C2HC2HCFeHC2H4CH4C2HCH3C2H3FeHC4HC2H10NH3CHSCH5CHSH3NCH6CH2CHCHC2H3CH5C2H2CHCHC2HCSH5NC2H2SH4CH2C2H3CFeH2
_chemical_formula_sum              "H4352 Fe272 S544 C2448 N136"
_cell_length_a       71.9407
_cell_length_b       71.7945
_cell_length_c       61.1066
_cell_angle_alpha    88.0324
_cell_angle_beta     88.2207
_cell_angle_gamma    87.2147

_space_group_name_H-M_alt    "P 1"
_space_group_IT_number       1

loop_
  _space_group_symop_operation_xyz
  'x, y, z'

loop_
  _atom_site_type_symbol
  _atom_site_label
  _atom_site_symmetry_multiplicity
  _atom_site_fract_x
  _atom_site_fract_y
  _atom_site_fract_z
  _atom_site_occupancy
  H   H1        1.0  0.41310  0.11092  0.28395  1.0000
  Fe  Fe1       1.0  0.07576  0.08544  0.03047  1.0000
  S   S1        1.0  0.04856  0.09253  0.04829  1.0000
  H   H2        1.0  0.48049  0.00660  0.33117  1.0000
  S   S2        1.0  0.48822  0.00807  0.23479  1.0000
  C   C1        1.0  0.22307  0.00816  0.27904  1.0000
  Fe  Fe2       1.0  0.05651  0.12247  0.04271  1.0000
  S   S3        1.0  0.05184  0.14636  0.06645  1.0000
  S   S4        1.0  0.08444  0.11504  0.02723  1.0000
  S   S5        1.0  0.16638  0.05184  0.47641  1.0000
  C   C2        1.0  0.03499  0.16225  0.16792  1.0000
  H   H3        1.0  0.00803  0.12234  0.10308  1.0000
  C   C3        1.0  0.40350  0.12432  0.49752  1.0000
  Fe  Fe3       1.0  0.09243  0.17793  0.18106  1.0000
  H   H4        1.0  0.35816  0.07474  0.32380  1.0000
  S   S6        1.0  0.09745  0.15770  0.15295  1.0000
  Fe  Fe4       1.0  0.10567  0.18374  0.22734  1.0000
  S   S7        1.0  0.12459  0.17392  0.25596  1.0000
  S   S8        1.0  0.08380  0.16598  0.21432  1.0000
  Fe  Fe5       1.0  0.19445  0.06752  0.34828  1.0000
  S   S9        1.0  0.20079  0.09716  0.33845  1.0000
  S   S10       1.0  0.17000  0.06124  0.37187  1.0000
  Fe  Fe6       1.0  0.21920  0.05129  0.31077  1.0000
  S   S11       1.0  0.22695  0.08004  0.29906  1.0000
  S   S12       1.0  0.23287  0.02810  0.28991  1.0000
  Fe  Fe7       1.0  0.23078  0.08583  0.33465  1.0000
  S   S13       1.0  0.25537  0.10339  0.34389  1.0000
  Fe  Fe8       1.0  0.19663  0.08901  0.30371  1.0000
  S   S14       1.0  0.17905  0.10152  0.27529  1.0000
  S   S15       1.0  0.22452  0.05653  0.34637  1.0000
  S   S16       1.0  0.18894  0.05986  0.31366  1.0000
  Fe  Fe9       1.0  0.39399  0.13517  0.38244  1.0000
  S   S17       1.0  0.41477  0.11879  0.40345  1.0000
  S   S18       1.0  0.40280  0.16073  0.36106  1.0000
  Fe  Fe10      1.0  0.36617  0.10320  0.38572  1.0000
  S   S19       1.0  0.38634  0.08515  0.40596  1.0000
  S   S20       1.0  0.33864  0.08901  0.37917  1.0000
  Fe  Fe11      1.0  0.39027  0.11084  0.42551  1.0000
  S   S21       1.0  0.38628  0.10644  0.46355  1.0000
  Fe  Fe12      1.0  0.40926  0.09430  0.38247  1.0000
  S   S22       1.0  0.43563  0.07773  0.36909  1.0000
  S   S23       1.0  0.36955  0.12872  0.40553  1.0000
  S   S24       1.0  0.38895  0.11071  0.36123  1.0000
  C   C4        1.0  0.46822  0.08402  0.27779  1.0000
  S   S25       1.0  0.46544  0.02514  0.29033  1.0000
  H   H5        1.0  0.14519  0.08872  0.21386  1.0000
  C   C5        1.0  0.44348  0.06330  0.34681  1.0000
  C   C6        1.0  0.46275  0.05925  0.34356  1.0000
  C   C7        1.0  0.46974  0.04789  0.32635  1.0000
  C   C8        1.0  0.45754  0.04014  0.31210  1.0000
  C   C9        1.0  0.43829  0.04430  0.31525  1.0000
  C   C10       1.0  0.43131  0.05578  0.33237  1.0000
  H   H6        1.0  0.47238  0.06503  0.35445  1.0000
  H   H7        1.0  0.48456  0.04512  0.32410  1.0000
  H   H8        1.0  0.42864  0.03847  0.30442  1.0000
  H   H9        1.0  0.41648  0.05856  0.33458  1.0000
  C   C11       1.0  0.40590  0.18534  0.36264  1.0000
  H   H10       1.0  0.17919  0.01375  0.45000  1.0000
  C   C12       1.0  0.40092  0.19550  0.38128  1.0000
  N   N1        1.0  0.18544  0.03613  0.23104  1.0000
  H   H11       1.0  0.39506  0.18839  0.39558  1.0000
  C   C13       1.0  0.02044  0.12273  0.11340  1.0000
  H   H12       1.0  0.41128  0.13163  0.48476  1.0000
  H   H13       1.0  0.29645  0.10397  0.49355  1.0000
  C   C14       1.0  0.27838  0.09910  0.35409  1.0000
  C   C15       1.0  0.29073  0.11379  0.35363  1.0000
  C   C16       1.0  0.30911  0.11108  0.36124  1.0000
  C   C17       1.0  0.31549  0.09356  0.36948  1.0000
  C   C18       1.0  0.30309  0.07890  0.37009  1.0000
  C   C19       1.0  0.28469  0.08164  0.36257  1.0000
  H   H14       1.0  0.28605  0.12742  0.34729  1.0000
  H   H15       1.0  0.31833  0.12256  0.36067  1.0000
  H   H16       1.0  0.30772  0.06531  0.37655  1.0000
  H   H17       1.0  0.27538  0.07024  0.36341  1.0000
  C   C20       1.0  0.13973  0.15366  0.26090  1.0000
  C   C21       1.0  0.15064  0.15261  0.27975  1.0000
  C   C22       1.0  0.16265  0.13685  0.28453  1.0000
  C   C23       1.0  0.16400  0.12183  0.27045  1.0000
  C   C24       1.0  0.15314  0.12289  0.25159  1.0000
  C   C25       1.0  0.14108  0.13860  0.24686  1.0000
  H   H18       1.0  0.15005  0.16424  0.29057  1.0000
  H   H19       1.0  0.17104  0.13647  0.29893  1.0000
  H   H20       1.0  0.15412  0.11151  0.24045  1.0000
  H   H21       1.0  0.13291  0.13912  0.23226  1.0000
  C   C26       1.0  0.16699  0.05451  0.44734  1.0000
  C   C27       1.0  0.18408  0.05773  0.43635  1.0000
  C   C28       1.0  0.18527  0.05993  0.41331  1.0000
  C   C29       1.0  0.16933  0.05892  0.40097  1.0000
  C   C30       1.0  0.15224  0.05562  0.41193  1.0000
  C   C31       1.0  0.15105  0.05344  0.43497  1.0000
  H   H22       1.0  0.19648  0.05862  0.44576  1.0000
  H   H23       1.0  0.19852  0.06243  0.40514  1.0000
  H   H24       1.0  0.13984  0.05473  0.40254  1.0000
  H   H25       1.0  0.13778  0.05112  0.44318  1.0000
  C   C32       1.0  0.06449  0.14912  0.09062  1.0000
  C   C33       1.0  0.07827  0.13601  0.09754  1.0000
  C   C34       1.0  0.08812  0.13884  0.11667  1.0000
  C   C35       1.0  0.08434  0.15477  0.12917  1.0000
  C   C36       1.0  0.07054  0.16787  0.12225  1.0000
  C   C37       1.0  0.06063  0.16502  0.10316  1.0000
  H   H26       1.0  0.08146  0.12374  0.08805  1.0000
  H   H27       1.0  0.09886  0.12867  0.12175  1.0000
  H   H28       1.0  0.06780  0.18038  0.13139  1.0000
  H   H29       1.0  0.05008  0.17532  0.09790  1.0000
  C   C38       1.0  0.32325  0.11298  0.47992  1.0000
  H   H30       1.0  0.25756  0.02673  0.33405  1.0000
  H   H31       1.0  0.12434  0.07341  0.30296  1.0000
  C   C39       1.0  0.01414  0.02854  0.03008  1.0000
  H   H32       1.0  0.31856  0.12689  0.48619  1.0000
  C   C40       1.0  0.10778  0.08816  0.38961  1.0000
  H   H33       1.0  0.32786  0.06114  0.32691  1.0000
  H   H34       1.0  0.11890  0.08096  0.35804  1.0000
  H   H35       1.0  0.04218  0.19726  0.14893  1.0000
  C   C41       1.0  0.07253  0.01556  0.03073  1.0000
  H   H36       1.0  0.17658  0.01370  0.19398  1.0000
  H   H37       1.0  0.49883  0.01421  0.18065  1.0000
  C   C42       1.0  0.07563  0.03438  0.03415  1.0000
  Fe  Fe13      1.0  0.48982  0.00937  0.27169  1.0000
  H   H38       1.0  0.06524  0.12414  0.16505  1.0000
  H   H39       1.0  0.13087  0.00598  0.12900  1.0000
  H   H40       1.0  0.10507  0.11203  0.35306  1.0000
  C   C43       1.0  0.13256  0.10683  0.32287  1.0000
  H   H41       1.0  0.45704  0.11238  0.37730  1.0000
  H   H42       1.0  0.10338  0.01255  0.10892  1.0000
  H   H43       1.0  0.18064  0.03508  0.27926  1.0000
  H   H44       1.0  0.15129  0.00684  0.11205  1.0000
  H   H45       1.0  0.15949  0.02290  0.23947  1.0000
  H   H46       1.0  0.02792  0.02854  0.02145  1.0000
  S   S26       1.0  0.07278  0.05336  0.49468  1.0000
  H   H47       1.0  0.17921  0.01206  0.25198  1.0000
  H   H48       1.0  0.19800  0.00922  0.29913  1.0000
  H   H49       1.0  0.43069  0.12704  0.35664  1.0000
  C   C44       1.0  0.12204  0.03302  0.09468  1.0000
  H   H50       1.0  0.08894  0.11829  0.19312  1.0000
  C   C45       1.0  0.46963  0.01123  0.17673  1.0000
  Fe  Fe14      1.0  0.06405  0.19123  0.21692  1.0000
  H   H51       1.0  0.35062  0.09069  0.30202  1.0000
  C   C46       1.0  0.10678  0.04831  0.09800  1.0000
  H   H52       1.0  0.15162  0.06021  0.23588  1.0000
  C   C47       1.0  0.09741  0.16386  0.04933  1.0000
  H   H53       1.0  0.02626  0.10824  0.11606  1.0000
  C   C48       1.0  0.28901  0.04894  0.26401  1.0000
  C   C49       1.0  0.19669  0.02161  0.21822  1.0000
  H   H54       1.0  0.16450  0.08324  0.19539  1.0000
  H   H55       1.0  0.47821  0.09251  0.26806  1.0000
  H   H56       1.0  0.46106  0.03871  0.39269  1.0000
  C   C50       1.0  0.21326  0.05802  0.22834  1.0000
  C   C51       1.0  0.00968  0.14133  0.18050  1.0000
  H   H57       1.0  0.04389  0.13721  0.14027  1.0000
  C   C52       1.0  0.01497  0.13158  0.13520  1.0000
  H   H58       1.0  0.12906  0.03600  0.07857  1.0000
  H   H59       1.0  0.13228  0.03418  0.10768  1.0000
  H   H60       1.0  0.00397  0.12311  0.14316  1.0000
  H   H61       1.0  0.33786  0.07658  0.46967  1.0000
  H   H62       1.0  0.14452  0.06874  0.19695  1.0000
  H   H63       1.0  0.45200  0.08492  0.30790  1.0000
  H   H64       1.0  0.49206  0.01133  0.15297  1.0000
  C   C53       1.0  0.10886  0.02726  0.03223  1.0000
  H   H65       1.0  0.46006  0.00476  0.16561  1.0000
  H   H66       1.0  0.16269  0.04987  0.26720  1.0000
  C   C54       1.0  0.07391  0.11868  0.19796  1.0000
  H   H67       1.0  0.20615  0.06756  0.21628  1.0000
  H   H68       1.0  0.27568  0.05703  0.26162  1.0000
  H   H69       1.0  0.11283  0.06224  0.09598  1.0000
  H   H70       1.0  0.09582  0.04748  0.08569  1.0000
  H   H71       1.0  0.10030  0.04703  0.11468  1.0000
  H   H72       1.0  0.30310  0.04178  0.31156  1.0000
  H   H73       1.0  0.28640  0.03608  0.27400  1.0000
  Fe  Fe15      1.0  0.03683  0.09551  0.01443  1.0000
  H   H74       1.0  0.45124  0.13560  0.38642  1.0000
  N   N2        1.0  0.32190  0.11299  0.45522  1.0000
  C   C55       1.0  0.30247  0.10869  0.44889  1.0000
  H   H75       1.0  0.34269  0.14280  0.47268  1.0000
  C   C56       1.0  0.32569  0.13240  0.44624  1.0000
  C   C57       1.0  0.33638  0.09961  0.44533  1.0000
  C   C58       1.0  0.33483  0.07877  0.45206  1.0000
  C   C59       1.0  0.29898  0.10849  0.42396  1.0000
  H   H76       1.0  0.43147  0.14004  0.27113  1.0000
  C   C60       1.0  0.01116  0.18924  0.28596  1.0000
  H   H77       1.0  0.46436  0.12279  0.28878  1.0000
  C   C61       1.0  0.39544  0.09516  0.30565  1.0000
  C   C62       1.0  0.27879  0.10430  0.41977  1.0000
  H   H78       1.0  0.00654  0.16744  0.19851  1.0000
  C   C63       1.0  0.46891  0.02508  0.39499  1.0000
  S   S27       1.0  0.11537  0.19474  0.19388  1.0000
  C   C64       1.0  0.27333  0.04791  0.31676  1.0000
  C   C65       1.0  0.11364  0.01346  0.09491  1.0000
  H   H79       1.0  0.31358  0.14219  0.44996  1.0000
  H   H80       1.0  0.32736  0.13246  0.42805  1.0000
  H   H81       1.0  0.33667  0.10101  0.42712  1.0000
  H   H82       1.0  0.35048  0.10325  0.44990  1.0000
  H   H83       1.0  0.32089  0.07379  0.44875  1.0000
  H   H84       1.0  0.03550  0.16918  0.18387  1.0000
  H   H85       1.0  0.30165  0.12214  0.41572  1.0000
  H   H86       1.0  0.30797  0.09751  0.41607  1.0000
  H   H87       1.0  0.33673  0.06008  0.29912  1.0000
  H   H88       1.0  0.47524  0.07032  0.28212  1.0000
  H   H89       1.0  0.08694  0.17192  0.05940  1.0000
  H   H90       1.0  0.21618  0.08058  0.25078  1.0000
  C   C66       1.0  0.42478  0.14634  0.28586  1.0000
  C   C67       1.0  0.01714  0.19015  0.24648  1.0000
  H   H91       1.0  0.12295  0.03175  0.03300  1.0000
  H   H92       1.0  0.47943  0.02656  0.40767  1.0000
  C   C68       1.0  0.07861  0.16857  0.01458  1.0000
  H   H93       1.0  0.26904  0.11488  0.42732  1.0000
  H   H94       1.0  0.27653  0.10469  0.40186  1.0000
  H   H95       1.0  0.14000  0.02504  0.27410  1.0000
  H   H96       1.0  0.00789  0.17372  0.15593  1.0000
  H   H97       1.0  0.02436  0.20007  0.17029  1.0000
  C   C69       1.0  0.12161  0.09130  0.37048  1.0000
  C   C70       1.0  0.42230  0.16733  0.28098  1.0000
  H   H98       1.0  0.23281  0.06097  0.25443  1.0000
  C   C71       1.0  0.42376  0.11161  0.31771  1.0000
  H   H99       1.0  0.39636  0.08555  0.32027  1.0000
  H   H100      1.0  0.01646  0.18862  0.30235  1.0000
  H   H101      1.0  0.23539  0.07720  0.23149  1.0000
  H   H102      1.0  0.17187  0.07423  0.23365  1.0000
  H   H103      1.0  0.35608  0.13289  0.45049  1.0000
  H   H104      1.0  0.07225  0.12467  0.21447  1.0000
  H   H105      1.0  0.10542  0.01565  0.44369  1.0000
  H   H106      1.0  0.00889  0.14576  0.13158  1.0000
  H   H107      1.0  0.27559  0.09019  0.42644  1.0000
  H   H108      1.0  0.41300  0.12127  0.32525  1.0000
  C   C72       1.0  0.22512  0.06990  0.24218  1.0000
  H   H109      1.0  0.20709  0.03796  0.25440  1.0000
  H   H110      1.0  0.27725  0.03394  0.34867  1.0000
  N   N3        1.0  0.29741  0.06919  0.29639  1.0000
  H   H111      1.0  0.34722  0.06816  0.42162  1.0000
  C   C73       1.0  0.17417  0.04815  0.21510  1.0000
  H   H112      1.0  0.46696  0.12731  0.32799  1.0000
  H   H113      1.0  0.07882  0.15377  0.00958  1.0000
  H   H114      1.0  0.42333  0.08925  0.29396  1.0000
  H   H115      1.0  0.06913  0.10419  0.19867  1.0000
  H   H116      1.0  0.14756  0.01042  0.07456  1.0000
  N   N4        1.0  0.13368  0.11738  0.34381  1.0000
  C   C74       1.0  0.15306  0.11521  0.35270  1.0000
  C   C75       1.0  0.12987  0.13790  0.33828  1.0000
  C   C76       1.0  0.11902  0.11132  0.36043  1.0000
  C   C77       1.0  0.15611  0.12517  0.37437  1.0000
  C   C78       1.0  0.11181  0.14302  0.32559  1.0000
  C   C79       1.0  0.17575  0.12085  0.38259  1.0000
  C   C80       1.0  0.10925  0.16411  0.32154  1.0000
  H   H117      1.0  0.16336  0.12037  0.34017  1.0000
  H   H118      1.0  0.15734  0.10033  0.35578  1.0000
  H   H119      1.0  0.13739  0.11552  0.30853  1.0000
  H   H120      1.0  0.14171  0.14348  0.32824  1.0000
  H   H121      1.0  0.12889  0.14611  0.35341  1.0000
  H   H122      1.0  0.11769  0.12124  0.37407  1.0000
  H   H123      1.0  0.13574  0.08843  0.37689  1.0000
  H   H124      1.0  0.15434  0.14053  0.37204  1.0000
  H   H125      1.0  0.14626  0.12048  0.38751  1.0000
  H   H126      1.0  0.09930  0.13841  0.33491  1.0000
  H   H127      1.0  0.11223  0.13656  0.30932  1.0000
  H   H128      1.0  0.10945  0.07353  0.39601  1.0000
  H   H129      1.0  0.17833  0.10556  0.38539  1.0000
  H   H130      1.0  0.18630  0.12617  0.37059  1.0000
  H   H131      1.0  0.17740  0.12774  0.39837  1.0000
  H   H132      1.0  0.09641  0.16734  0.31222  1.0000
  H   H133      1.0  0.10795  0.17141  0.33729  1.0000
  H   H134      1.0  0.12118  0.16951  0.31168  1.0000
  H   H135      1.0  0.10541  0.01361  0.07980  1.0000
  C   C81       1.0  0.27225  0.03080  0.33224  1.0000
  H   H136      1.0  0.29681  0.05931  0.33035  1.0000
  S   S28       1.0  0.09806  0.06359  0.04013  1.0000
  H   H137      1.0  0.34632  0.16050  0.42629  1.0000
  H   H138      1.0  0.03716  0.11877  0.19277  1.0000
  C   C82       1.0  0.41469  0.10176  0.29874  1.0000
  S   S29       1.0  0.11884  0.02698  0.48697  1.0000
  H   H139      1.0  0.35839  0.16672  0.45015  1.0000
  H   H140      1.0  0.30799  0.08960  0.31755  1.0000
  C   C83       1.0  0.28052  0.08229  0.29361  1.0000
  H   H141      1.0  0.01563  0.01597  0.50128  1.0000
  H   H142      1.0  0.16227  0.01680  0.41723  1.0000
  C   C84       1.0  0.30355  0.06042  0.27511  1.0000
  C   C85       1.0  0.34598  0.08284  0.31702  1.0000
  H   H143      1.0  0.10095  0.18610  0.02540  1.0000
  H   H144      1.0  0.30853  0.07117  0.26308  1.0000
  C   C86       1.0  0.19901  0.04732  0.24292  1.0000
  H   H145      1.0  0.25905  0.11532  0.29116  1.0000
  H   H146      1.0  0.41452  0.17425  0.29469  1.0000
  C   C87       1.0  0.39060  0.11145  0.49171  1.0000
  N   N5        1.0  0.44122  0.12196  0.31222  1.0000
  H   H147      1.0  0.02598  0.17051  0.13499  1.0000
  C   C88       1.0  0.00492  0.15227  0.20161  1.0000
  H   H148      1.0  0.44445  0.14686  0.34951  1.0000
  H   H149      1.0  0.30930  0.03410  0.24283  1.0000
  H   H150      1.0  0.03095  0.13105  0.10436  1.0000
  H   H151      1.0  0.03871  0.07117  0.48032  1.0000
  H   H152      1.0  0.43602  0.17367  0.27841  1.0000
  H   H153      1.0  0.47150  0.13150  0.36888  1.0000
  H   H154      1.0  0.29851  0.05505  0.23038  1.0000
  H   H155      1.0  0.13358  0.05881  0.00926  1.0000
  H   H156      1.0  0.28560  0.03423  0.23409  1.0000
  C   C89       1.0  0.47835  0.01955  0.37326  1.0000
  N   N6        1.0  0.02940  0.14237  0.17138  1.0000
  H   H157      1.0  0.04949  0.16265  0.16116  1.0000
  C   C90       1.0  0.45281  0.11357  0.29367  1.0000
  C   C91       1.0  0.02296  0.17467  0.15212  1.0000
  C   C92       1.0  0.34918  0.06653  0.43955  1.0000
  H   H158      1.0  0.44460  0.11279  0.27872  1.0000
  H   H159      1.0  0.41420  0.16989  0.26591  1.0000
  H   H160      1.0  0.46704  0.02661  0.17569  1.0000
  H   H161      1.0  0.34075  0.09291  0.32945  1.0000
  H   H162      1.0  0.20528  0.02830  0.20501  1.0000
  H   H163      1.0  0.06395  0.04429  0.03645  1.0000
  H   H164      1.0  0.42799  0.14884  0.32004  1.0000
  H   H165      1.0  0.47425  0.09498  0.30889  1.0000
  C   C93       1.0  0.45699  0.12743  0.37244  1.0000
  H   H166      1.0  0.26746  0.04440  0.30103  1.0000
  C   C94       1.0  0.43641  0.14224  0.30652  1.0000
  H   H167      1.0  0.46720  0.01880  0.36122  1.0000
  C   C95       1.0  0.33084  0.06957  0.31174  1.0000
  C   C96       1.0  0.31136  0.09911  0.49373  1.0000
  C   C97       1.0  0.09747  0.17122  0.02557  1.0000
  C   C98       1.0  0.48991  0.00629  0.17015  1.0000
  H   H168      1.0  0.45609  0.08143  0.26770  1.0000
  H   H169      1.0  0.41063  0.14108  0.28858  1.0000
  H   H170      1.0  0.15108  0.03070  0.29896  1.0000
  H   H171      1.0  0.34758  0.05166  0.44449  1.0000
  H   H172      1.0  0.20669  0.01381  0.22920  1.0000
  C   C99       1.0  0.02377  0.18889  0.26777  1.0000
  H   H173      1.0  0.26625  0.12274  0.26385  1.0000
  H   H174      1.0  0.15831  0.00965  0.28531  1.0000
  C   C100      1.0  0.15376  0.07711  0.20654  1.0000
  H   H175      1.0  0.01188  0.08669  0.50008  1.0000
  H   H176      1.0  0.31582  0.05066  0.27763  1.0000
  C   C101      1.0  0.04206  0.13291  0.18812  1.0000
  H   H177      1.0  0.31768  0.09035  0.29037  1.0000
  H   H178      1.0  0.14819  0.06488  0.29970  1.0000
  H   H179      1.0  0.06904  0.14450  0.18017  1.0000
  C   C102      1.0  0.46184  0.09386  0.29870  1.0000
  H   H180      1.0  0.19321  0.01673  0.48779  1.0000
  H   H181      1.0  0.36349  0.07028  0.44341  1.0000
  H   H182      1.0  0.18321  0.05328  0.20130  1.0000
  C   C103      1.0  0.03193  0.13185  0.15029  1.0000
  C   C104      1.0  0.15342  0.02446  0.28267  1.0000
  H   H183      1.0  0.10880  0.16347  0.01641  1.0000
  C   C105      1.0  0.31304  0.08063  0.30380  1.0000
  H   H184      1.0  0.06726  0.16950  0.02725  1.0000
  H   H185      1.0  0.09323  0.09069  0.38425  1.0000
  H   H186      1.0  0.16381  0.03973  0.20727  1.0000
  C   C106      1.0  0.16294  0.06508  0.22471  1.0000
  H   H187      1.0  0.14135  0.01517  0.44731  1.0000
  H   H188      1.0  0.11040  0.09756  0.40315  1.0000
  H   H189      1.0  0.15931  0.09136  0.31886  1.0000
  C   C107      1.0  0.29361  0.05432  0.31395  1.0000
  H   H190      1.0  0.45630  0.10659  0.33778  1.0000
  H   H191      1.0  0.01642  0.02709  0.04796  1.0000
  H   H192      1.0  0.14294  0.07895  0.33566  1.0000
  H   H193      1.0  0.29221  0.11897  0.45630  1.0000
  C   C108      1.0  0.14437  0.08828  0.32101  1.0000
  H   H194      1.0  0.31236  0.08482  0.48749  1.0000
  H   H195      1.0  0.11782  0.10404  0.31963  1.0000
  C   C109      1.0  0.13897  0.07762  0.30112  1.0000
  H   H196      1.0  0.14065  0.08633  0.28586  1.0000
  H   H197      1.0  0.26829  0.07485  0.28861  1.0000
  H   H198      1.0  0.28704  0.09427  0.26063  1.0000
  C   C110      1.0  0.17277  0.02596  0.24721  1.0000
  H   H199      1.0  0.15997  0.01131  0.48225  1.0000
  C   C111      1.0  0.28266  0.09904  0.27715  1.0000
  H   H200      1.0  0.27632  0.08817  0.30968  1.0000
  H   H201      1.0  0.29849  0.09487  0.45565  1.0000
  C   C112      1.0  0.26423  0.11037  0.27492  1.0000
  C   C113      1.0  0.16797  0.03522  0.26936  1.0000
  H   H202      1.0  0.22297  0.04820  0.21953  1.0000
  H   H203      1.0  0.25357  0.10182  0.26790  1.0000
  H   H204      1.0  0.29297  0.10866  0.28286  1.0000
  S   S30       1.0  0.03229  0.19098  0.22283  1.0000
  H   H205      1.0  0.19170  0.05781  0.25347  1.0000
  H   H206      1.0  0.42639  0.10051  0.33055  1.0000
  C   C114      1.0  0.06297  0.13066  0.18117  1.0000
  C   C115      1.0  0.18730  0.00772  0.38475  1.0000
  H   H207      1.0  0.26424  0.05924  0.32393  1.0000
  H   H208      1.0  0.04174  0.14084  0.20346  1.0000
  H   H209      1.0  0.09414  0.14890  0.05034  1.0000
  C   C116      1.0  0.44496  0.13150  0.35249  1.0000
  C   C117      1.0  0.09381  0.04025  0.03506  1.0000
  C   C118      1.0  0.45323  0.12132  0.33216  1.0000
  H   H210      1.0  0.11131  0.16528  0.05631  1.0000
  H   H211      1.0  0.45891  0.01453  0.40073  1.0000
  Fe  Fe16      1.0  0.14193  0.04331  0.49887  1.0000
  H   H212      1.0  0.33344  0.17035  0.44939  1.0000
  H   H213      1.0  0.38582  0.10726  0.30953  1.0000
  H   H214      1.0  0.38959  0.08757  0.29212  1.0000
  H   H215      1.0  0.44938  0.15013  0.30469  1.0000
  H   H216      1.0  0.03574  0.11683  0.15388  1.0000
  C   C119      1.0  0.29613  0.04274  0.24145  1.0000
  C   C120      1.0  0.34330  0.14136  0.45466  1.0000
  C   C121      1.0  0.34541  0.16092  0.44445  1.0000
  H   H217      1.0  0.05117  0.19774  0.02860  1.0000
  H   H218      1.0  0.28069  0.01883  0.32552  1.0000
  H   H219      1.0  0.01386  0.14749  0.21533  1.0000
  H   H220      1.0  0.05845  0.01097  0.03050  1.0000
  C   C122      1.0  0.10573  0.00858  0.02788  1.0000
  H   H221      1.0  0.03861  0.18788  0.27026  1.0000
  H   H222      1.0  0.18524  0.02305  0.38625  1.0000
  C   C123      1.0  0.02735  0.19519  0.15344  1.0000
  H   H223      1.0  0.48757  0.03091  0.36803  1.0000
  H   H224      1.0  0.33810  0.11078  0.48462  1.0000
  C   C124      1.0  0.03869  0.07187  0.49797  1.0000
  S   S31       1.0  0.07137  0.20180  0.18275  1.0000
  C   C125      1.0  0.00305  0.01250  0.02232  1.0000
  H   H225      1.0  0.03972  0.16823  0.01282  1.0000
  H   H226      1.0  0.00858  0.03950  0.47441  1.0000
  H   H227      1.0  0.07403  0.20188  0.03705  1.0000
  H   H228      1.0  0.00668  0.04214  0.02642  1.0000
  H   H229      1.0  0.45763  0.06528  0.50470  1.0000
  H   H230      1.0  0.41752  0.18745  0.32979  1.0000
  C   C126      1.0  0.18540  0.00693  0.20683  1.0000
  H   H231      1.0  0.37069  0.09218  0.50478  1.0000
  H   H232      1.0  0.46651  0.00630  0.19382  1.0000
  S   S32       1.0  0.04263  0.12600  0.00999  1.0000
  H   H233      1.0  0.00643  0.12646  0.18387  1.0000
  C   C127      1.0  0.41350  0.19504  0.34425  1.0000
  H   H234      1.0  0.20159  0.00473  0.37793  1.0000
  H   H235      1.0  0.19561  0.00322  0.41787  1.0000
  C   C128      1.0  0.01414  0.14604  0.86750  1.0000
  S   S33       1.0  0.08681  0.12805  0.96552  1.0000
  S   S34       1.0  0.06361  0.08626  0.99717  1.0000
  Fe  Fe17      1.0  0.10960  0.17657  0.81392  1.0000
  S   S35       1.0  0.08109  0.16558  0.81907  1.0000
  S   S36       1.0  0.13633  0.15870  0.80577  1.0000
  C   C129      1.0  0.04908  0.03200  0.98033  1.0000
  Fe  Fe18      1.0  0.07830  0.18286  0.84910  1.0000
  S   S37       1.0  0.06063  0.17234  0.87842  1.0000
  H   H236      1.0  0.19771  0.02863  0.64247  1.0000
  Fe  Fe19      1.0  0.20520  0.07213  0.67208  1.0000
  S   S38       1.0  0.21024  0.09970  0.68706  1.0000
  S   S39       1.0  0.20050  0.06915  0.63549  1.0000
  Fe  Fe20      1.0  0.21285  0.04993  0.71512  1.0000
  S   S40       1.0  0.21796  0.07602  0.73332  1.0000
  S   S41       1.0  0.21893  0.01886  0.72366  1.0000
  Fe  Fe21      1.0  0.19286  0.08921  0.71601  1.0000
  S   S42       1.0  0.16665  0.10714  0.72667  1.0000
  Fe  Fe22      1.0  0.23498  0.08493  0.70310  1.0000
  S   S43       1.0  0.26417  0.09605  0.70752  1.0000
  S   S44       1.0  0.18673  0.06224  0.69980  1.0000
  S   S45       1.0  0.23108  0.05835  0.68614  1.0000
  H   H237      1.0  0.45472  0.09982  0.75332  1.0000
  S   S46       1.0  0.10348  0.02286  0.53808  1.0000
  C   C130      1.0  0.44107  0.01588  0.79427  1.0000
  H   H238      1.0  0.27325  0.14258  0.70425  1.0000
  S   S47       1.0  0.12297  0.06176  0.52005  1.0000
  Fe  Fe23      1.0  0.12774  0.03983  0.54706  1.0000
  S   S48       1.0  0.13031  0.04447  0.58383  1.0000
  H   H239      1.0  0.02663  0.15428  0.97934  1.0000
  H   H240      1.0  0.49751  0.09805  0.78561  1.0000
  S   S49       1.0  0.14837  0.02286  0.52683  1.0000
  Fe  Fe24      1.0  0.36579  0.11295  0.64042  1.0000
  S   S50       1.0  0.38334  0.09300  0.61959  1.0000
  S   S51       1.0  0.33388  0.11067  0.64188  1.0000
  Fe  Fe25      1.0  0.39880  0.13748  0.64738  1.0000
  S   S52       1.0  0.41824  0.11907  0.62673  1.0000
  S   S53       1.0  0.41143  0.16170  0.66501  1.0000
  Fe  Fe26      1.0  0.39491  0.11844  0.60254  1.0000
  S   S54       1.0  0.40102  0.12369  0.56507  1.0000
  Fe  Fe27      1.0  0.40558  0.09468  0.64501  1.0000
  S   S55       1.0  0.42224  0.06718  0.65488  1.0000
  S   S56       1.0  0.37650  0.13851  0.62223  1.0000
  S   S57       1.0  0.38712  0.11293  0.66685  1.0000
  H   H241      1.0  0.01199  0.16018  0.87417  1.0000
  S   S58       1.0  0.47802  0.03524  0.73002  1.0000
  N   N7        1.0  0.01182  0.15518  0.82575  1.0000
  C   C131      1.0  0.43735  0.05855  0.67633  1.0000
  C   C132      1.0  0.44343  0.06990  0.69263  1.0000
  C   C133      1.0  0.45570  0.06248  0.70881  1.0000
  C   C134      1.0  0.46231  0.04363  0.70903  1.0000
  C   C135      1.0  0.45612  0.03223  0.69285  1.0000
  C   C136      1.0  0.44375  0.03962  0.67673  1.0000
  H   H242      1.0  0.43870  0.08443  0.69275  1.0000
  H   H243      1.0  0.46009  0.07151  0.72123  1.0000
  H   H244      1.0  0.46090  0.01772  0.69265  1.0000
  H   H245      1.0  0.43920  0.03061  0.66433  1.0000
  C   C137      1.0  0.39649  0.11860  0.53699  1.0000
  C   C138      1.0  0.40643  0.12779  0.51986  1.0000
  H   H246      1.0  0.47311  0.11600  0.75154  1.0000
  H   H247      1.0  0.47600  0.07517  0.76868  1.0000
  C   C139      1.0  0.38356  0.10572  0.53121  1.0000
  H   H248      1.0  0.41646  0.13778  0.52389  1.0000
  H   H249      1.0  0.37571  0.09849  0.54397  1.0000
  C   C140      1.0  0.40773  0.18610  0.67005  1.0000
  C   C141      1.0  0.40676  0.03801  0.72423  1.0000
  H   H250      1.0  0.01614  0.15783  0.56097  1.0000
  H   H251      1.0  0.38263  0.19041  0.65207  1.0000
  H   H252      1.0  0.02108  0.17761  0.96880  1.0000
  C   C142      1.0  0.28379  0.09806  0.68895  1.0000
  C   C143      1.0  0.30146  0.10082  0.69737  1.0000
  C   C144      1.0  0.31712  0.10391  0.68333  1.0000
  C   C145      1.0  0.31524  0.10474  0.66056  1.0000
  C   C146      1.0  0.29761  0.10189  0.65216  1.0000
  C   C147      1.0  0.28207  0.09835  0.66618  1.0000
  H   H253      1.0  0.30300  0.10068  0.71493  1.0000
  H   H254      1.0  0.33052  0.10598  0.69014  1.0000
  H   H255      1.0  0.29590  0.10253  0.63462  1.0000
  H   H256      1.0  0.26862  0.09640  0.65937  1.0000
  C   C148      1.0  0.18097  0.06174  0.62158  1.0000
  C   C149      1.0  0.16503  0.05558  0.63275  1.0000
  C   C150      1.0  0.14961  0.05049  0.62094  1.0000
  C   C151      1.0  0.15016  0.05094  0.59786  1.0000
  C   C152      1.0  0.16629  0.05664  0.58673  1.0000
  C   C153      1.0  0.18153  0.06211  0.59855  1.0000
  H   H257      1.0  0.16453  0.05488  0.65043  1.0000
  H   H258      1.0  0.13722  0.04604  0.62971  1.0000
  H   H259      1.0  0.16692  0.05706  0.56900  1.0000
  H   H260      1.0  0.19385  0.06673  0.58973  1.0000
  C   C154      1.0  0.14440  0.14445  0.78352  1.0000
  C   C155      1.0  0.16285  0.13682  0.78339  1.0000
  C   C156      1.0  0.16992  0.12543  0.76627  1.0000
  C   C157      1.0  0.15864  0.12146  0.74891  1.0000
  C   C158      1.0  0.14023  0.12922  0.74897  1.0000
  C   C159      1.0  0.13314  0.14056  0.76612  1.0000
  H   H261      1.0  0.17173  0.13961  0.79674  1.0000
  H   H262      1.0  0.18408  0.11963  0.76659  1.0000
  H   H263      1.0  0.13127  0.12626  0.73578  1.0000
  H   H264      1.0  0.11892  0.14619  0.76592  1.0000
  C   C160      1.0  0.07905  0.13967  0.94106  1.0000
  C   C161      1.0  0.09239  0.14542  0.92525  1.0000
  C   C162      1.0  0.08703  0.15533  0.90594  1.0000
  C   C163      1.0  0.06819  0.15960  0.90223  1.0000
  C   C164      1.0  0.05482  0.15376  0.91800  1.0000
  C   C165      1.0  0.06018  0.14378  0.93727  1.0000
  H   H265      1.0  0.10701  0.14227  0.92797  1.0000
  H   H266      1.0  0.09747  0.15970  0.89397  1.0000
  H   H267      1.0  0.04021  0.15695  0.91527  1.0000
  H   H268      1.0  0.04974  0.13930  0.94916  1.0000
  C   C166      1.0  0.02331  0.08156  0.53195  1.0000
  H   H269      1.0  0.44518  0.02954  0.78700  1.0000
  C   C167      1.0  0.05396  0.06529  0.53229  1.0000
  C   C168      1.0  0.00686  0.13217  0.88486  1.0000
  H   H270      1.0  0.46696  0.01064  0.81165  1.0000
  C   C169      1.0  0.27983  0.14798  0.68875  1.0000
  H   H271      1.0  0.44746  0.12371  0.54876  1.0000
  C   C170      1.0  0.45534  0.10504  0.57626  1.0000
  C   C171      1.0  0.02596  0.14306  0.81332  1.0000
  H   H272      1.0  0.03794  0.12425  0.83869  1.0000
  H   H273      1.0  0.19281  0.02250  0.76153  1.0000
  H   H274      1.0  0.05072  0.11277  0.80357  1.0000
  N   N8        1.0  0.32890  0.16678  0.67277  1.0000
  C   C172      1.0  0.33849  0.16620  0.65046  1.0000
  C   C173      1.0  0.34014  0.15514  0.68922  1.0000
  C   C174      1.0  0.31027  0.15811  0.67092  1.0000
  C   C175      1.0  0.32520  0.18648  0.68028  1.0000
  H   H275      1.0  0.07906  0.06290  0.88951  1.0000
  C   C176      1.0  0.32841  0.17719  0.63164  1.0000
  C   C177      1.0  0.29969  0.15337  0.69285  1.0000
  C   C178      1.0  0.36170  0.15556  0.68704  1.0000
  C   C179      1.0  0.37097  0.14623  0.70702  1.0000
  H   H276      1.0  0.04813  0.00712  0.54677  1.0000
  H   H277      1.0  0.26212  0.02818  0.80701  1.0000
  H   H278      1.0  0.34059  0.15140  0.64554  1.0000
  H   H279      1.0  0.35269  0.17151  0.65071  1.0000
  H   H280      1.0  0.33576  0.15888  0.70622  1.0000
  H   H281      1.0  0.33726  0.14009  0.68788  1.0000
  H   H282      1.0  0.31195  0.14485  0.66189  1.0000
  H   H283      1.0  0.30066  0.16740  0.66109  1.0000
  H   H284      1.0  0.31476  0.19402  0.66974  1.0000
  H   H285      1.0  0.31866  0.18640  0.69699  1.0000
  H   H286      1.0  0.16884  0.17842  0.81317  1.0000
  H   H287      1.0  0.41889  0.04676  0.72086  1.0000
  H   H288      1.0  0.31458  0.17163  0.62895  1.0000
  H   H289      1.0  0.02545  0.13826  0.59393  1.0000
  S   S59       1.0  0.00435  0.09229  0.54658  1.0000
  H   H290      1.0  0.00428  0.18836  0.55205  1.0000
  H   H291      1.0  0.36669  0.14783  0.67242  1.0000
  H   H292      1.0  0.36680  0.16976  0.68498  1.0000
  H   H293      1.0  0.38635  0.14612  0.70454  1.0000
  H   H294      1.0  0.36714  0.15407  0.72198  1.0000
  H   H295      1.0  0.36679  0.13159  0.70935  1.0000
  H   H296      1.0  0.05510  0.18340  0.96862  1.0000
  H   H297      1.0  0.11496  0.07625  0.96835  1.0000
  C   C180      1.0  0.05405  0.06430  0.50947  1.0000
  H   H298      1.0  0.46600  0.05802  0.64097  1.0000
  H   H299      1.0  0.00296  0.12973  0.84197  1.0000
  H   H300      1.0  0.45938  0.10682  0.59346  1.0000
  C   C181      1.0  0.46785  0.10364  0.76077  1.0000
  H   H301      1.0  0.07341  0.07616  0.91355  1.0000
  N   N9        1.0  0.44122  0.07252  0.58027  1.0000
  C   C182      1.0  0.43786  0.09320  0.57596  1.0000
  C   C183      1.0  0.42266  0.06377  0.58416  1.0000
  C   C184      1.0  0.45178  0.06995  0.60126  1.0000
  C   C185      1.0  0.45238  0.06311  0.56200  1.0000
  C   C186      1.0  0.45003  0.07153  0.53838  1.0000
  H   H302      1.0  0.34106  0.16082  0.60520  1.0000
  C   C187      1.0  0.45471  0.04957  0.61030  1.0000
  C   C188      1.0  0.40912  0.06522  0.56491  1.0000
  C   C189      1.0  0.39034  0.05734  0.57157  1.0000
  C   C190      1.0  0.13261  0.06882  0.99504  1.0000
  C   C191      1.0  0.38070  0.10218  0.50884  1.0000
  H   H303      1.0  0.42775  0.09900  0.58837  1.0000
  H   H304      1.0  0.17483  0.01950  0.72217  1.0000
  H   H305      1.0  0.42463  0.04859  0.58810  1.0000
  H   H306      1.0  0.41533  0.06990  0.59879  1.0000
  H   H307      1.0  0.44463  0.07815  0.61455  1.0000
  H   H308      1.0  0.46588  0.07557  0.59905  1.0000
  H   H309      1.0  0.46758  0.06318  0.56501  1.0000
  H   H310      1.0  0.44926  0.04807  0.56182  1.0000
  S   S60       1.0  0.05051  0.18616  0.77312  1.0000
  H   H311      1.0  0.43527  0.07413  0.53415  1.0000
  H   H312      1.0  0.07936  0.18206  0.94620  1.0000
  C   C192      1.0  0.15250  0.19701  0.77693  1.0000
  H   H313      1.0  0.45911  0.03993  0.59711  1.0000
  H   H314      1.0  0.44157  0.04476  0.61814  1.0000
  H   H315      1.0  0.40638  0.07987  0.55919  1.0000
  H   H316      1.0  0.41486  0.05686  0.55113  1.0000
  S   S61       1.0  0.49857  0.01105  0.77997  1.0000
  H   H317      1.0  0.38108  0.05827  0.55732  1.0000
  H   H318      1.0  0.39211  0.04248  0.57712  1.0000
  C   C193      1.0  0.00385  0.14476  0.84556  1.0000
  H   H319      1.0  0.30684  0.14138  0.70159  1.0000
  C   C194      1.0  0.03860  0.07386  0.54348  1.0000
  Fe  Fe28      1.0  0.07014  0.11644  0.99492  1.0000
  H   H320      1.0  0.06001  0.04701  0.95249  1.0000
  C   C195      1.0  0.01167  0.02565  0.51470  1.0000
  C   C196      1.0  0.46956  0.04812  0.62773  1.0000
  C   C197      1.0  0.04147  0.01180  0.53124  1.0000
  H   H321      1.0  0.48405  0.08379  0.74215  1.0000
  C   C198      1.0  0.19696  0.00792  0.75986  1.0000
  H   H322      1.0  0.27750  0.02262  0.78381  1.0000
  C   C199      1.0  0.45159  0.12454  0.56606  1.0000
  H   H323      1.0  0.11793  0.02293  0.93881  1.0000
  H   H324      1.0  0.23086  0.03924  0.63855  1.0000
  H   H325      1.0  0.10308  0.06810  0.99275  1.0000
  H   H326      1.0  0.06909  0.11945  0.82071  1.0000
  H   H327      1.0  0.44905  0.02378  0.82654  1.0000
  H   H328      1.0  0.03494  0.19113  0.00031  1.0000
  H   H329      1.0  0.14342  0.01034  0.61366  1.0000
  H   H330      1.0  0.07672  0.04192  0.92210  1.0000
  H   H331      1.0  0.48046  0.04385  0.81020  1.0000
  H   H332      1.0  0.12489  0.05995  0.69817  1.0000
  C   C200      1.0  0.48211  0.08718  0.75966  1.0000
  H   H333      1.0  0.01418  0.13372  0.90041  1.0000
  C   C201      1.0  0.17293  0.00361  0.61898  1.0000
  H   H334      1.0  0.35077  0.19398  0.69561  1.0000
  H   H335      1.0  0.15211  0.00999  0.72381  1.0000
  H   H336      1.0  0.30821  0.08840  0.52726  1.0000
  H   H337      1.0  0.03142  0.15099  0.79862  1.0000
  H   H338      1.0  0.48342  0.05126  0.62038  1.0000
  H   H339      1.0  0.02101  0.02919  0.54805  1.0000
  H   H340      1.0  0.45677  0.08510  0.53656  1.0000
  H   H341      1.0  0.25543  0.03496  0.77959  1.0000
  C   C202      1.0  0.42058  0.19493  0.68270  1.0000
  S   S62       1.0  0.01174  0.08286  0.99998  1.0000
  H   H342      1.0  0.46469  0.10730  0.77805  1.0000
  H   H343      1.0  0.47037  0.03376  0.63510  1.0000
  C   C203      1.0  0.02077  0.17288  0.83161  1.0000
  H   H344      1.0  0.03582  0.03009  0.97203  1.0000
  H   H345      1.0  0.01398  0.00601  0.54347  1.0000
  H   H346      1.0  0.05236  0.01930  0.99064  1.0000
  C   C204      1.0  0.45913  0.05867  0.52131  1.0000
  C   C205      1.0  0.10742  0.19041  0.94380  1.0000
  H   H347      1.0  0.06025  0.16033  0.97901  1.0000
  C   C206      1.0  0.02112  0.01800  0.53588  1.0000
  H   H348      1.0  0.17907  0.02797  0.67486  1.0000
  H   H349      1.0  0.38346  0.06548  0.58493  1.0000
  H   H350      1.0  0.46734  0.09822  0.56733  1.0000
  H   H351      1.0  0.01947  0.13068  0.80703  1.0000
  C   C207      1.0  0.26274  0.02388  0.78970  1.0000
  C   C208      1.0  0.41324  0.01797  0.73038  1.0000
  H   H352      1.0  0.14651  0.18611  0.72216  1.0000
  H   H353      1.0  0.00953  0.11763  0.87951  1.0000
  H   H354      1.0  0.22034  0.02198  0.67251  1.0000
  H   H355      1.0  0.06636  0.02222  0.95359  1.0000
  N   N10       1.0  0.07459  0.18150  0.99511  1.0000
  H   H356      1.0  0.01893  0.03873  0.51041  1.0000
  H   H357      1.0  0.31583  0.11196  0.52491  1.0000
  H   H358      1.0  0.09686  0.07553  0.90185  1.0000
  H   H359      1.0  0.19214  0.18683  0.78828  1.0000
  H   H360      1.0  0.09419  0.01763  0.93848  1.0000
  C   C209      1.0  0.25331  0.00545  0.78751  1.0000
  C   C210      1.0  0.06468  0.03502  0.96324  1.0000
  S   S63       1.0  0.10780  0.19222  0.84571  1.0000
  C   C211      1.0  0.05695  0.12476  0.81114  1.0000
  H   H361      1.0  0.43102  0.09616  0.56015  1.0000
  H   H362      1.0  0.03206  0.16999  0.84338  1.0000
  H   H363      1.0  0.14547  0.06735  0.98458  1.0000
  H   H364      1.0  0.35370  0.18106  0.61160  1.0000
  H   H365      1.0  0.16440  0.19790  0.85719  1.0000
  C   C212      1.0  0.23605  0.02472  0.64245  1.0000
  H   H366      1.0  0.17745  0.01755  0.61307  1.0000
  H   H367      1.0  0.27983  0.13688  0.67655  1.0000
  H   H368      1.0  0.13151  0.08316  0.00139  1.0000
  H   H369      1.0  0.02935  0.14328  0.86565  1.0000
  H   H370      1.0  0.03861  0.07461  0.56113  1.0000
  H   H371      1.0  0.16075  0.18369  0.77944  1.0000
  H   H372      1.0  0.04985  0.14568  0.83468  1.0000
  H   H373      1.0  0.06571  0.05945  0.54128  1.0000
  C   C213      1.0  0.07192  0.20174  0.00115  1.0000
  C   C214      1.0  0.39243  0.19683  0.66214  1.0000
  H   H374      1.0  0.11380  0.17612  0.94195  1.0000
  H   H375      1.0  0.04707  0.04428  0.99091  1.0000
  H   H376      1.0  0.14794  0.09601  0.58668  1.0000
  C   C215      1.0  0.02332  0.16891  0.98396  1.0000
  Fe  Fe29      1.0  0.10011  0.04366  0.50997  1.0000
  H   H377      1.0  0.46435  0.13261  0.56644  1.0000
  H   H378      1.0  0.27132  0.16026  0.68260  1.0000
  H   H379      1.0  0.45227  0.04512  0.52167  1.0000
  C   C216      1.0  0.22187  0.01451  0.65698  1.0000
  H   H380      1.0  0.04932  0.02355  0.52391  1.0000
  H   H381      1.0  0.43253  0.18688  0.68885  1.0000
  H   H382      1.0  0.23857  0.00771  0.79309  1.0000
  H   H383      1.0  0.33233  0.18384  0.59691  1.0000
  H   H384      1.0  0.13444  0.17685  0.74608  1.0000
  H   H385      1.0  0.29874  0.16527  0.70393  1.0000
  H   H386      1.0  0.32661  0.19221  0.63526  1.0000
  C   C217      1.0  0.04270  0.13478  0.82630  1.0000
  H   H387      1.0  0.06200  0.13447  0.79795  1.0000
  C   C218      1.0  0.33962  0.17561  0.61007  1.0000
  C   C219      1.0  0.34222  0.19873  0.68151  1.0000
  C   C220      1.0  0.31722  0.09798  0.51760  1.0000
  H   H388      1.0  0.02615  0.19704  0.86548  1.0000
  H   H389      1.0  0.11716  0.19899  0.95239  1.0000
  H   H390      1.0  0.39843  0.03818  0.70920  1.0000
  C   C221      1.0  0.00571  0.14911  0.56960  1.0000
  N   N11       1.0  0.14371  0.11098  0.65256  1.0000
  C   C222      1.0  0.13998  0.10230  0.63108  1.0000
  C   C223      1.0  0.14787  0.09547  0.66925  1.0000
  C   C224      1.0  0.12683  0.12287  0.65947  1.0000
  C   C225      1.0  0.16021  0.12320  0.65054  1.0000
  C   C226      1.0  0.17839  0.11396  0.64079  1.0000
  C   C227      1.0  0.13771  0.11593  0.61100  1.0000
  C   C228      1.0  0.12735  0.13099  0.68270  1.0000
  C   C229      1.0  0.13137  0.08308  0.67589  1.0000
  C   C230      1.0  0.13710  0.06810  0.69301  1.0000
  C   C231      1.0  0.19386  0.12781  0.63867  1.0000
  C   C232      1.0  0.13536  0.10517  0.59016  1.0000
  C   C233      1.0  0.10921  0.14194  0.68842  1.0000
  H   H391      1.0  0.12700  0.09448  0.63242  1.0000
  H   H392      1.0  0.15114  0.09164  0.62692  1.0000
  H   H393      1.0  0.15936  0.08596  0.66310  1.0000
  H   H394      1.0  0.15334  0.10110  0.68437  1.0000
  H   H395      1.0  0.11394  0.11500  0.65844  1.0000
  H   H396      1.0  0.12482  0.13502  0.64785  1.0000
  H   H397      1.0  0.15676  0.13619  0.64075  1.0000
  H   H398      1.0  0.16381  0.12797  0.66697  1.0000
  H   H399      1.0  0.17646  0.10853  0.62429  1.0000
  H   H400      1.0  0.18331  0.10228  0.65172  1.0000
  H   H401      1.0  0.12520  0.12541  0.61325  1.0000
  H   H402      1.0  0.15004  0.12448  0.60824  1.0000
  H   H403      1.0  0.13885  0.14066  0.68367  1.0000
  H   H404      1.0  0.12932  0.11985  0.69555  1.0000
  H   H405      1.0  0.11948  0.09141  0.68309  1.0000
  H   H406      1.0  0.12648  0.07583  0.66156  1.0000
  H   H407      1.0  0.14798  0.05840  0.68598  1.0000
  H   H408      1.0  0.14247  0.07452  0.70772  1.0000
  H   H409      1.0  0.02804  0.17910  0.81696  1.0000
  H   H410      1.0  0.19669  0.13346  0.65487  1.0000
  H   H411      1.0  0.20684  0.12056  0.63235  1.0000
  H   H412      1.0  0.18999  0.13948  0.62704  1.0000
  H   H413      1.0  0.12304  0.09639  0.59181  1.0000
  H   H414      1.0  0.13336  0.11510  0.57599  1.0000
  H   H415      1.0  0.09987  0.04122  0.91045  1.0000
  H   H416      1.0  0.09726  0.13270  0.68854  1.0000
  H   H417      1.0  0.11005  0.14767  0.70501  1.0000
  H   H418      1.0  0.10677  0.15376  0.67648  1.0000
  N   N12       1.0  0.10008  0.04041  0.95940  1.0000
  C   C234      1.0  0.10513  0.02179  0.94946  1.0000
  C   C235      1.0  0.09757  0.05552  0.94166  1.0000
  C   C236      1.0  0.11613  0.04534  0.97319  1.0000
  C   C237      1.0  0.08296  0.03948  0.97418  1.0000
  H   H419      1.0  0.12009  0.00728  0.97679  1.0000
  H   H420      1.0  0.42036  0.02735  0.76204  1.0000
  C   C238      1.0  0.11543  0.06553  0.98185  1.0000
  C   C239      1.0  0.08937  0.04997  0.91971  1.0000
  C   C240      1.0  0.08440  0.06723  0.90533  1.0000
  Fe  Fe30      1.0  0.07029  0.19142  0.80078  1.0000
  H   H421      1.0  0.44029  0.13212  0.57545  1.0000
  H   H422      1.0  0.35086  0.19847  0.66622  1.0000
  H   H423      1.0  0.20619  0.00844  0.62911  1.0000
  H   H424      1.0  0.08893  0.06755  0.94815  1.0000
  H   H425      1.0  0.11127  0.06125  0.93669  1.0000
  H   H426      1.0  0.12956  0.04329  0.96377  1.0000
  H   H427      1.0  0.11715  0.03587  0.98792  1.0000
  H   H428      1.0  0.08539  0.02940  0.98809  1.0000
  H   H429      1.0  0.08000  0.05295  0.98210  1.0000
  C   C241      1.0  0.03899  0.17636  0.99708  1.0000
  C   C242      1.0  0.10848  0.00500  0.96582  1.0000
  H   H430      1.0  0.18462  0.19469  0.82320  1.0000
  C   C243      1.0  0.42647  0.01731  0.75002  1.0000
  C   C244      1.0  0.16376  0.18578  0.84646  1.0000
  H   H431      1.0  0.00612  0.12353  0.58993  1.0000
  H   H432      1.0  0.15601  0.03053  0.70686  1.0000
  C   C245      1.0  0.01613  0.13298  0.58164  1.0000
  C   C246      1.0  0.08878  0.18967  0.95643  1.0000
  H   H433      1.0  0.43979  0.02327  0.74393  1.0000
  H   H434      1.0  0.15934  0.17256  0.74257  1.0000
  H   H435      1.0  0.33191  0.09253  0.51874  1.0000
  H   H436      1.0  0.18881  0.19375  0.76036  1.0000
  H   H437      1.0  0.14934  0.18086  0.84693  1.0000
  H   H438      1.0  0.17310  0.17424  0.85293  1.0000
  H   H439      1.0  0.23892  0.01733  0.62695  1.0000
  H   H440      1.0  0.49769  0.05317  0.77624  1.0000
  H   H441      1.0  0.42603  0.01723  0.79882  1.0000
  C   C247      1.0  0.20292  0.01395  0.64557  1.0000
  Fe  Fe31      1.0  0.12394  0.00761  0.51582  1.0000
  C   C248      1.0  0.02645  0.19167  0.76882  1.0000
  H   H442      1.0  0.19537  0.01317  0.68914  1.0000
  H   H443      1.0  0.01166  0.18921  0.57928  1.0000
  H   H444      1.0  0.10519  0.19673  0.92717  1.0000
  C   C249      1.0  0.19292  0.19874  0.77640  1.0000
  C   C250      1.0  0.05771  0.17506  0.98395  1.0000
  C   C251      1.0  0.14759  0.18297  0.74000  1.0000
  C   C252      1.0  0.16233  0.01695  0.71269  1.0000
  C   C253      1.0  0.00717  0.18833  0.84098  1.0000
  C   C254      1.0  0.45177  0.01207  0.81530  1.0000
  H   H445      1.0  0.39795  0.04416  0.73764  1.0000
  Fe  Fe32      1.0  0.49571  0.00955  0.74336  1.0000
  H   H446      1.0  0.22191  0.19138  0.76857  1.0000
  C   C255      1.0  0.16982  0.19099  0.82294  1.0000
  H   H447      1.0  0.16129  0.01575  0.64788  1.0000
  C   C256      1.0  0.15068  0.20088  0.75192  1.0000
  H   H448      1.0  0.42065  0.01216  0.71572  1.0000
  C   C257      1.0  0.16751  0.00455  0.69338  1.0000
  C   C258      1.0  0.01787  0.18347  0.75139  1.0000
  H   H449      1.0  0.47421  0.05615  0.52436  1.0000
  H   H450      1.0  0.02607  0.17425  0.74081  1.0000
  H   H451      1.0  0.40289  0.00368  0.77645  1.0000
  C   C259      1.0  0.49302  0.04712  0.81919  1.0000
  H   H452      1.0  0.02474  0.12471  0.56968  1.0000
  H   H453      1.0  0.10372  0.18475  0.98625  1.0000
  H   H454      1.0  0.49188  0.07584  0.80912  1.0000
  C   C260      1.0  0.09101  0.17950  0.97912  1.0000
  H   H455      1.0  0.01018  0.16927  0.99401  1.0000
  S   S64       1.0  0.09919  0.20158  0.79388  1.0000
  H   H456      1.0  0.09443  0.16452  0.97602  1.0000
  H   H457      1.0  0.48871  0.05023  0.83634  1.0000
  H   H458      1.0  0.13832  0.19393  0.78339  1.0000
  C   C261      1.0  0.02343  0.08057  0.50914  1.0000
  H   H459      1.0  0.24930  0.02534  0.65120  1.0000
  H   H460      1.0  0.40073  0.00986  0.73417  1.0000
  C   C262      1.0  0.18313  0.01304  0.67860  1.0000
  C   C263      1.0  0.17053  0.00321  0.64435  1.0000
  H   H461      1.0  0.45860  0.00374  0.76861  1.0000
  H   H462      1.0  0.00195  0.16372  0.59963  1.0000
  H   H463      1.0  0.18338  0.00338  0.51040  1.0000
  C   C264      1.0  0.50087  0.09210  0.76939  1.0000
  N   N13       1.0  0.18803  0.00313  0.65762  1.0000
  C   C265      1.0  0.00513  0.25656  0.26185  1.0000
  Fe  Fe33      1.0  0.09343  0.21831  0.19778  1.0000
  S   S65       1.0  0.09084  0.24963  0.18676  1.0000
  H   H464      1.0  0.01817  0.29021  0.27453  1.0000
  H   H465      1.0  0.19240  0.38246  0.18723  1.0000
  Fe  Fe34      1.0  0.47228  0.36027  0.49093  1.0000
  S   S66       1.0  0.47774  0.34047  0.46250  1.0000
  S   S67       1.0  0.31436  0.38420  0.19707  1.0000
  H   H466      1.0  0.40736  0.31308  0.22366  1.0000
  S   S68       1.0  0.34447  0.38632  0.25464  1.0000
  Fe  Fe35      1.0  0.43615  0.31295  0.34696  1.0000
  S   S69       1.0  0.40861  0.30099  0.33998  1.0000
  S   S70       1.0  0.43529  0.33558  0.37258  1.0000
  Fe  Fe36      1.0  0.45675  0.28900  0.31249  1.0000
  S   S71       1.0  0.43046  0.27517  0.30408  1.0000
  S   S72       1.0  0.48477  0.27836  0.29745  1.0000
  Fe  Fe37      1.0  0.41697  0.30444  0.30438  1.0000
  S   S73       1.0  0.39845  0.31393  0.27545  1.0000
  Fe  Fe38      1.0  0.42416  0.27280  0.34045  1.0000
  S   S74       1.0  0.41307  0.24946  0.36386  1.0000
  S   S75       1.0  0.44368  0.31815  0.31107  1.0000
  S   S76       1.0  0.45127  0.28493  0.34892  1.0000
  Fe  Fe39      1.0  0.13387  0.35206  0.14707  1.0000
  S   S77       1.0  0.11104  0.36477  0.12613  1.0000
  S   S78       1.0  0.13643  0.32374  0.16634  1.0000
  Fe  Fe40      1.0  0.15781  0.38678  0.14004  1.0000
  H   H467      1.0  0.40833  0.34967  0.19602  1.0000
  H   H468      1.0  0.27190  0.38867  0.03217  1.0000
  Fe  Fe41      1.0  0.13360  0.37432  0.10192  1.0000
  C   C266      1.0  0.44667  0.27969  0.42313  1.0000
  S   S79       1.0  0.13681  0.37815  0.16619  1.0000
  S   S80       1.0  0.15630  0.35995  0.12222  1.0000
  C   C267      1.0  0.06938  0.35183  0.17543  1.0000
  C   C268      1.0  0.09505  0.30235  0.23150  1.0000
  C   C269      1.0  0.13214  0.37291  0.03559  1.0000
  C   C270      1.0  0.11992  0.38742  0.02811  1.0000
  N   N14       1.0  0.19766  0.32393  0.16419  1.0000
  H   H469      1.0  0.00552  0.26135  0.27896  1.0000
  H   H470      1.0  0.08116  0.22713  0.28137  1.0000
  H   H471      1.0  0.23465  0.32033  0.21566  1.0000
  H   H472      1.0  0.04785  0.27143  0.24454  1.0000
  H   H473      1.0  0.39881  0.28337  0.43067  1.0000
  H   H474      1.0  0.44973  0.31294  0.49616  1.0000
  H   H475      1.0  0.02832  0.25155  0.18434  1.0000
  C   C271      1.0  0.14115  0.36153  0.01966  1.0000
  C   C272      1.0  0.35946  0.36605  0.25995  1.0000
  C   C273      1.0  0.36089  0.35087  0.24609  1.0000
  C   C274      1.0  0.37263  0.33505  0.25132  1.0000
  C   C275      1.0  0.38336  0.33415  0.27029  1.0000
  C   C276      1.0  0.38202  0.34936  0.28410  1.0000
  C   C277      1.0  0.37012  0.36511  0.27900  1.0000
  H   H476      1.0  0.35275  0.35122  0.23148  1.0000
  H   H477      1.0  0.37331  0.32333  0.24063  1.0000
  H   H478      1.0  0.39008  0.34896  0.29878  1.0000
  H   H479      1.0  0.36914  0.37665  0.28995  1.0000
  C   C278      1.0  0.46537  0.33898  0.43790  1.0000
  C   C279      1.0  0.47223  0.32654  0.42192  1.0000
  C   C280      1.0  0.46316  0.32521  0.40192  1.0000
  C   C281      1.0  0.44701  0.33622  0.39773  1.0000
  C   C282      1.0  0.44010  0.34857  0.41377  1.0000
  C   C283      1.0  0.44914  0.34988  0.43379  1.0000
  H   H480      1.0  0.48478  0.31803  0.42492  1.0000
  H   H481      1.0  0.46875  0.31580  0.38964  1.0000
  H   H482      1.0  0.42768  0.35724  0.41066  1.0000
  H   H483      1.0  0.44364  0.35949  0.44591  1.0000
  H   H484      1.0  0.04294  0.30914  0.25620  1.0000
  H   H485      1.0  0.43830  0.32653  0.47480  1.0000
  C   C284      1.0  0.41589  0.21450  0.34430  1.0000
  C   C285      1.0  0.41071  0.22471  0.36283  1.0000
  H   H486      1.0  0.41337  0.33546  0.23317  1.0000
  H   H487      1.0  0.42163  0.22164  0.32995  1.0000
  H   H488      1.0  0.25066  0.33697  0.20453  1.0000
  C   C286      1.0  0.04123  0.24399  0.21550  1.0000
  H   H489      1.0  0.43314  0.22438  0.45646  1.0000
  H   H490      1.0  0.21624  0.32413  0.13549  1.0000
  H   H491      1.0  0.04979  0.23191  0.22203  1.0000
  H   H492      1.0  0.46839  0.34545  0.24005  1.0000
  H   H493      1.0  0.45676  0.29844  0.46126  1.0000
  H   H494      1.0  0.04147  0.39795  0.23411  1.0000
  C   C287      1.0  0.49971  0.39139  0.43365  1.0000
  C   C288      1.0  0.10427  0.26962  0.18015  1.0000
  C   C289      1.0  0.12291  0.27067  0.18582  1.0000
  C   C290      1.0  0.13251  0.28720  0.18122  1.0000
  C   C291      1.0  0.12382  0.30286  0.17050  1.0000
  C   C292      1.0  0.10529  0.30172  0.16448  1.0000
  C   C293      1.0  0.09558  0.28534  0.16950  1.0000
  H   H495      1.0  0.12984  0.25884  0.19409  1.0000
  H   H496      1.0  0.14678  0.28784  0.18609  1.0000
  H   H497      1.0  0.09837  0.31351  0.15617  1.0000
  H   H498      1.0  0.08122  0.28477  0.16495  1.0000
  H   H499      1.0  0.45935  0.38280  0.03284  1.0000
  H   H500      1.0  0.44929  0.24985  0.41619  1.0000
  C   C294      1.0  0.43460  0.32246  0.21091  1.0000
  H   H501      1.0  0.03573  0.27463  0.28628  1.0000
  H   H502      1.0  0.43096  0.31026  0.44010  1.0000
  C   C295      1.0  0.42805  0.29739  0.45001  1.0000
  H   H503      1.0  0.35357  0.38950  0.03034  1.0000
  H   H504      1.0  0.47187  0.27779  0.38874  1.0000
  S   S81       1.0  0.08515  0.20855  0.23212  1.0000
  H   H505      1.0  0.06996  0.29891  0.01637  1.0000
  H   H506      1.0  0.19307  0.36092  0.14159  1.0000
  H   H507      1.0  0.25045  0.31419  0.19305  1.0000
  H   H508      1.0  0.11285  0.39640  0.03988  1.0000
  H   H509      1.0  0.48997  0.37668  0.07799  1.0000
  C   C296      1.0  0.50021  0.28831  0.27746  1.0000
  S   S82       1.0  0.18594  0.40070  0.14395  1.0000
  C   C297      1.0  0.45105  0.35497  0.26682  1.0000
  H   H510      1.0  0.20009  0.29686  0.13037  1.0000
  H   H511      1.0  0.42502  0.31137  0.49290  1.0000
  N   N15       1.0  0.44777  0.31350  0.22741  1.0000
  H   H512      1.0  0.17789  0.26962  0.15976  1.0000
  H   H513      1.0  0.44478  0.35281  0.23305  1.0000
  H   H514      1.0  0.08370  0.37601  0.18520  1.0000
  H   H515      1.0  0.20816  0.28500  0.15501  1.0000
  C   C298      1.0  0.42631  0.26328  0.45045  1.0000
  H   H516      1.0  0.04959  0.25654  0.21483  1.0000
  C   C299      1.0  0.33853  0.39964  0.05942  1.0000
  H   H517      1.0  0.45841  0.27849  0.43457  1.0000
  C   C300      1.0  0.44253  0.29684  0.46843  1.0000
  C   C301      1.0  0.44802  0.32443  0.24802  1.0000
  H   H518      1.0  0.18922  0.26488  0.13368  1.0000
  H   H519      1.0  0.03956  0.37410  0.24388  1.0000
  H   H520      1.0  0.17446  0.36021  0.21160  1.0000
  H   H521      1.0  0.44024  0.25782  0.45591  1.0000
  H   H522      1.0  0.48705  0.31583  0.27689  1.0000
  H   H523      1.0  0.21602  0.35768  0.15183  1.0000
  C   C302      1.0  0.17811  0.33195  0.19949  1.0000
  H   H524      1.0  0.22848  0.35128  0.11407  1.0000
  H   H525      1.0  0.05284  0.22891  0.04366  1.0000
  H   H526      1.0  0.07049  0.23502  0.02345  1.0000
  H   H527      1.0  0.43204  0.26224  0.25700  1.0000
  H   H528      1.0  0.07288  0.36691  0.14408  1.0000
  C   C303      1.0  0.12710  0.38882  0.22495  1.0000
  H   H529      1.0  0.07786  0.31605  0.03439  1.0000
  H   H530      1.0  0.06020  0.25492  0.27522  1.0000
  C   C304      1.0  0.41413  0.32623  0.21895  1.0000
  C   C305      1.0  0.20575  0.39802  0.16112  1.0000
  H   H531      1.0  0.16922  0.31979  0.19904  1.0000
  H   H532      1.0  0.42092  0.24316  0.42450  1.0000
  C   C306      1.0  0.35575  0.39056  0.04814  1.0000
  C   C307      1.0  0.05686  0.24175  0.26759  1.0000
  H   H533      1.0  0.07421  0.33817  0.16873  1.0000
  C   C308      1.0  0.18516  0.33799  0.17616  1.0000
  C   C309      1.0  0.08586  0.36070  0.18647  1.0000
  H   H534      1.0  0.48023  0.26064  0.40884  1.0000
  H   H535      1.0  0.39919  0.22264  0.39578  1.0000
  H   H536      1.0  0.47087  0.33995  0.20481  1.0000
  H   H537      1.0  0.19215  0.35118  0.17799  1.0000
  H   H538      1.0  0.49212  0.38129  0.01847  1.0000
  H   H539      1.0  0.16972  0.28159  0.13510  1.0000
  C   C310      1.0  0.24156  0.32560  0.20032  1.0000
  H   H540      1.0  0.35850  0.37630  0.05529  1.0000
  H   H541      1.0  0.16131  0.34298  0.22664  1.0000
  H   H542      1.0  0.43431  0.32412  0.25694  1.0000
  C   C311      1.0  0.48088  0.38487  0.42697  1.0000
  H   H543      1.0  0.06354  0.24169  0.25105  1.0000
  C   C312      1.0  0.09656  0.32349  0.23234  1.0000
  C   C313      1.0  0.45349  0.34494  0.24518  1.0000
  H   H544      1.0  0.40083  0.25056  0.44045  1.0000
  C   C314      1.0  0.41825  0.22921  0.45590  1.0000
  C   C315      1.0  0.44088  0.29442  0.23364  1.0000
  H   H545      1.0  0.38569  0.38447  0.00669  1.0000
  H   H546      1.0  0.10528  0.39012  0.20176  1.0000
  H   H547      1.0  0.06057  0.29377  0.26880  1.0000
  C   C316      1.0  0.23819  0.39414  0.18711  1.0000
  H   H548      1.0  0.48274  0.37286  0.41599  1.0000
  C   C317      1.0  0.06584  0.22579  0.28141  1.0000
  H   H549      1.0  0.09857  0.35766  0.17602  1.0000
  H   H550      1.0  0.13826  0.38360  0.21348  1.0000
  H   H551      1.0  0.47244  0.38069  0.44167  1.0000
  H   H552      1.0  0.03313  0.22544  0.26187  1.0000
  C   C318      1.0  0.21457  0.35836  0.11686  1.0000
  H   H553      1.0  0.11118  0.32597  0.23634  1.0000
  C   C319      1.0  0.04952  0.38492  0.23892  1.0000
  C   C320      1.0  0.07170  0.31407  0.01823  1.0000
  H   H554      1.0  0.21020  0.30945  0.19209  1.0000
  H   H555      1.0  0.06261  0.34901  0.22645  1.0000
  H   H556      1.0  0.42709  0.29559  0.24242  1.0000
  H   H557      1.0  0.05596  0.37770  0.16268  1.0000
  C   C321      1.0  0.43857  0.31290  0.48399  1.0000
  H   H558      1.0  0.19246  0.32942  0.12967  1.0000
  C   C322      1.0  0.46431  0.39391  0.02212  1.0000
  H   H559      1.0  0.34145  0.40009  0.07711  1.0000
  C   C323      1.0  0.47344  0.32545  0.19952  1.0000
  H   H560      1.0  0.41282  0.23190  0.47278  1.0000
  S   S83       1.0  0.25816  0.39062  0.20389  1.0000
  H   H561      1.0  0.49799  0.33248  0.17990  1.0000
  H   H562      1.0  0.11890  0.35652  0.20624  1.0000
  H   H563      1.0  0.46021  0.34818  0.27937  1.0000
  H   H564      1.0  0.44849  0.29291  0.41355  1.0000
  H   H565      1.0  0.21614  0.37369  0.11574  1.0000
  H   H566      1.0  0.05049  0.35706  0.14863  1.0000
  H   H567      1.0  0.11034  0.35648  0.23390  1.0000
  C   C324      1.0  0.09158  0.33322  0.21007  1.0000
  N   N16       1.0  0.08910  0.35427  0.20986  1.0000
  H   H568      1.0  0.06302  0.21208  0.27463  1.0000
  H   H569      1.0  0.05010  0.23834  0.18203  1.0000
  C   C325      1.0  0.41598  0.24679  0.44123  1.0000
  C   C326      1.0  0.19575  0.29145  0.14687  1.0000
  C   C327      1.0  0.20655  0.35295  0.13950  1.0000
  C   C328      1.0  0.18635  0.30708  0.16093  1.0000
  H   H570      1.0  0.43633  0.35483  0.27291  1.0000
  H   H571      1.0  0.23494  0.33879  0.16959  1.0000
  H   H572      1.0  0.45799  0.31767  0.25968  1.0000
  H   H573      1.0  0.05809  0.38794  0.25308  1.0000
  H   H574      1.0  0.10268  0.32886  0.19791  1.0000
  H   H575      1.0  0.10467  0.29655  0.21860  1.0000
  C   C329      1.0  0.10798  0.38321  0.21793  1.0000
  Fe  Fe42      1.0  0.11481  0.39146  0.14440  1.0000
  H   H576      1.0  0.17275  0.34191  0.16621  1.0000
  H   H577      1.0  0.46568  0.32380  0.18431  1.0000
  H   H578      1.0  0.46826  0.28096  0.24289  1.0000
  C   C330      1.0  0.05821  0.22643  0.02671  1.0000
  C   C331      1.0  0.10714  0.36173  0.21706  1.0000
  H   H579      1.0  0.16295  0.40239  0.01872  1.0000
  C   C332      1.0  0.46722  0.31086  0.21730  1.0000
  C   C333      1.0  0.22136  0.38623  0.19411  1.0000
  C   C334      1.0  0.48285  0.39302  0.01398  1.0000
  C   C335      1.0  0.07311  0.35993  0.22530  1.0000
  C   C336      1.0  0.06196  0.37855  0.21961  1.0000
  H   H580      1.0  0.43441  0.31364  0.19625  1.0000
  H   H581      1.0  0.45540  0.25394  0.26327  1.0000
  H   H582      1.0  0.05773  0.34925  0.18727  1.0000
  H   H583      1.0  0.46887  0.29723  0.20906  1.0000
  C   C337      1.0  0.16624  0.34764  0.21003  1.0000
  S   S84       1.0  0.13667  0.36837  0.06434  1.0000
  H   H584      1.0  0.15389  0.35131  0.20004  1.0000
  C   C338      1.0  0.49815  0.30694  0.27007  1.0000
  H   H585      1.0  0.07101  0.39011  0.21484  1.0000
  H   H586      1.0  0.32689  0.39036  0.05787  1.0000
  H   H587      1.0  0.18251  0.30021  0.17689  1.0000
  N   N17       1.0  0.42833  0.28055  0.43571  1.0000
  H   H588      1.0  0.44824  0.25518  0.23520  1.0000
  H   H589      1.0  0.43869  0.28651  0.21861  1.0000
  C   C339      1.0  0.20339  0.33173  0.14174  1.0000
  C   C340      1.0  0.03549  0.23990  0.26676  1.0000
  H   H590      1.0  0.18993  0.32840  0.21034  1.0000
  S   S85       1.0  0.13594  0.40171  0.11887  1.0000
  H   H591      1.0  0.09778  0.38875  0.23034  1.0000
  H   H592      1.0  0.47086  0.25326  0.38367  1.0000
  H   H593      1.0  0.08061  0.29876  0.22801  1.0000
  H   H594      1.0  0.38805  0.33851  0.20685  1.0000
  H   H595      1.0  0.45333  0.28773  0.26556  1.0000
  H   H596      1.0  0.40254  0.32715  0.18628  1.0000
  C   C341      1.0  0.20527  0.38824  0.18133  1.0000
  C   C342      1.0  0.41205  0.28302  0.42068  1.0000
  H   H597      1.0  0.22373  0.30792  0.16761  1.0000
  C   C343      1.0  0.44996  0.26349  0.40728  1.0000
  C   C344      1.0  0.41157  0.30048  0.40501  1.0000
  C   C345      1.0  0.06175  0.36416  0.15657  1.0000
  C   C346      1.0  0.39310  0.30239  0.39327  1.0000
  C   C347      1.0  0.45357  0.28198  0.24894  1.0000
  H   H598      1.0  0.41136  0.27100  0.40981  1.0000
  H   H599      1.0  0.15069  0.35029  0.02500  1.0000
  H   H600      1.0  0.03020  0.24048  0.28408  1.0000
  H   H601      1.0  0.47775  0.31004  0.23030  1.0000
  H   H602      1.0  0.43960  0.26446  0.39419  1.0000
  C   C348      1.0  0.22710  0.33322  0.18410  1.0000
  H   H603      1.0  0.41278  0.31363  0.41365  1.0000
  H   H604      1.0  0.42300  0.29922  0.39243  1.0000
  H   H605      1.0  0.06039  0.22615  0.29861  1.0000
  H   H606      1.0  0.41826  0.26683  0.46576  1.0000
  C   C349      1.0  0.40265  0.33597  0.20086  1.0000
  H   H607      1.0  0.39303  0.31494  0.38211  1.0000
  H   H608      1.0  0.39114  0.28989  0.38349  1.0000
  H   H609      1.0  0.38126  0.30414  0.40523  1.0000
  H   H610      1.0  0.09892  0.29566  0.24748  1.0000
  H   H611      1.0  0.36816  0.39878  0.05064  1.0000
  S   S86       1.0  0.47136  0.39167  0.48896  1.0000
  H   H612      1.0  0.07868  0.32693  0.20484  1.0000
  H   H613      1.0  0.05282  0.37671  0.20564  1.0000
  H   H614      1.0  0.44253  0.28366  0.47842  1.0000
  H   H615      1.0  0.41390  0.29979  0.45768  1.0000
  H   H616      1.0  0.07820  0.36074  0.24227  1.0000
  H   H617      1.0  0.17297  0.31151  0.15312  1.0000
  C   C350      1.0  0.44683  0.26213  0.25116  1.0000
  C   C351      1.0  0.21448  0.31770  0.17717  1.0000
  H   H618      1.0  0.20506  0.35463  0.10389  1.0000
  H   H619      1.0  0.21908  0.34478  0.19209  1.0000
  C   C352      1.0  0.18229  0.27597  0.14370  1.0000
  H   H620      1.0  0.13000  0.38322  0.24173  1.0000
  H   H621      1.0  0.43943  0.33613  0.20469  1.0000
  H   H622      1.0  0.08719  0.32864  0.24581  1.0000
  C   C353      1.0  0.40329  0.21499  0.38133  1.0000
  C   C354      1.0  0.46942  0.26388  0.39650  1.0000
  C   C355      1.0  0.49418  0.32273  0.19363  1.0000
  C   C356      1.0  0.02303  0.24647  0.22954  1.0000
  C   C357      1.0  0.11672  0.39034  0.00538  1.0000
  H   H623      1.0  0.49765  0.30823  0.18853  1.0000
  H   H624      1.0  0.22076  0.37852  0.20962  1.0000
  H   H625      1.0  0.04710  0.23086  0.01515  1.0000
  H   H626      1.0  0.45487  0.36971  0.26436  1.0000
  H   H627      1.0  0.04464  0.30765  0.28560  1.0000
  C   C358      1.0  0.03691  0.23991  0.19186  1.0000
  H   H628      1.0  0.47309  0.39639  0.41813  1.0000
  Fe  Fe43      1.0  0.32635  0.39768  0.22601  1.0000
  H   H629      1.0  0.41032  0.21791  0.44918  1.0000
  C   C359      1.0  0.04599  0.29955  0.27042  1.0000
  H   H630      1.0  0.02945  0.22678  0.19129  1.0000
  C   C360      1.0  0.03240  0.28379  0.27179  1.0000
  C   C361      1.0  0.03312  0.27265  0.25043  1.0000
  Fe  Fe44      1.0  0.28784  0.40188  0.20309  1.0000
  C   C362      1.0  0.06363  0.20572  0.02444  1.0000
  N   N18       1.0  0.02468  0.25379  0.25225  1.0000
  H   H631      1.0  0.30461  0.39581  0.03527  1.0000
  H   H632      1.0  0.01706  0.23242  0.23033  1.0000
  H   H633      1.0  0.02594  0.28162  0.23771  1.0000
  H   H634      1.0  0.05784  0.32160  0.01800  1.0000
  H   H635      1.0  0.29170  0.39953  0.06082  1.0000
  H   H636      1.0  0.01307  0.25573  0.22005  1.0000
  H   H637      1.0  0.18442  0.39032  0.02687  1.0000
  H   H638      1.0  0.01858  0.20376  0.14191  1.0000
  H   H639      1.0  0.36470  0.40240  0.10767  1.0000
  Fe  Fe45      1.0  0.09572  0.21676  0.82584  1.0000
  H   H640      1.0  0.43644  0.35577  0.97892  1.0000
  S   S87       1.0  0.10633  0.24673  0.82482  1.0000
  C   C363      1.0  0.10587  0.31918  0.95419  1.0000
  H   H641      1.0  0.40648  0.36951  0.89897  1.0000
  S   S88       1.0  0.30824  0.39067  0.84315  1.0000
  H   H642      1.0  0.06355  0.28873  0.90461  1.0000
  H   H643      1.0  0.06050  0.35421  0.97793  1.0000
  C   C364      1.0  0.22528  0.37634  0.87713  1.0000
  S   S89       1.0  0.32504  0.37213  0.78381  1.0000
  Fe  Fe46      1.0  0.45099  0.28465  0.72135  1.0000
  S   S90       1.0  0.42407  0.27490  0.73697  1.0000
  S   S91       1.0  0.47921  0.27232  0.73306  1.0000
  Fe  Fe47      1.0  0.43036  0.30880  0.68624  1.0000
  S   S92       1.0  0.40253  0.30039  0.69979  1.0000
  S   S93       1.0  0.42718  0.33108  0.65882  1.0000
  Fe  Fe48      1.0  0.41341  0.30509  0.73301  1.0000
  S   S94       1.0  0.40044  0.32433  0.75955  1.0000
  Fe  Fe49      1.0  0.41528  0.27095  0.70219  1.0000
  S   S95       1.0  0.39782  0.24843  0.68745  1.0000
  S   S96       1.0  0.44098  0.31477  0.71941  1.0000
  S   S97       1.0  0.44255  0.27935  0.68671  1.0000
  Fe  Fe50      1.0  0.47217  0.35921  0.54154  1.0000
  H   H644      1.0  0.45374  0.35632  0.72990  1.0000
  S   S98       1.0  0.47586  0.33812  0.57009  1.0000
  H   H645      1.0  0.36223  0.38340  0.71340  1.0000
  C   C365      1.0  0.42457  0.38362  0.93398  1.0000
  S   S99       1.0  0.49513  0.35877  0.51552  1.0000
  S   S100      1.0  0.47136  0.39047  0.54333  1.0000
  C   C366      1.0  0.00946  0.22411  0.55792  1.0000
  Fe  Fe51      1.0  0.12230  0.34482  0.88938  1.0000
  S   S101      1.0  0.10295  0.36846  0.90143  1.0000
  S   S102      1.0  0.11205  0.31471  0.89044  1.0000
  Fe  Fe52      1.0  0.15624  0.37017  0.88727  1.0000
  H   H646      1.0  0.36870  0.32325  0.69106  1.0000
  S   S103      1.0  0.18843  0.36819  0.88486  1.0000
  Fe  Fe53      1.0  0.12596  0.37510  0.92426  1.0000
  S   S104      1.0  0.12072  0.38328  0.96082  1.0000
  C   C367      1.0  0.06382  0.30348  0.90948  1.0000
  S   S105      1.0  0.14426  0.35074  0.91345  1.0000
  S   S106      1.0  0.13549  0.36245  0.86238  1.0000
  H   H647      1.0  0.42537  0.35190  0.70968  1.0000
  H   H648      1.0  0.39238  0.22970  0.58332  1.0000
  H   H649      1.0  0.08151  0.33312  0.92334  1.0000
  C   C368      1.0  0.44126  0.33314  0.63458  1.0000
  C   C369      1.0  0.43696  0.34760  0.61916  1.0000
  C   C370      1.0  0.44759  0.34956  0.59950  1.0000
  C   C371      1.0  0.46258  0.33697  0.59503  1.0000
  C   C372      1.0  0.46690  0.32257  0.61052  1.0000
  C   C373      1.0  0.45632  0.32065  0.63020  1.0000
  H   H650      1.0  0.42528  0.35726  0.62236  1.0000
  H   H651      1.0  0.44407  0.36063  0.58767  1.0000
  H   H652      1.0  0.47849  0.31280  0.60720  1.0000
  H   H653      1.0  0.45983  0.30952  0.64195  1.0000
  H   H654      1.0  0.14419  0.31338  0.94693  1.0000
  C   C374      1.0  0.41807  0.21400  0.68775  1.0000
  H   H655      1.0  0.11010  0.32021  0.93650  1.0000
  C   C375      1.0  0.20658  0.38192  0.87315  1.0000
  H   H656      1.0  0.40381  0.39897  0.69906  1.0000
  H   H657      1.0  0.05998  0.35946  0.94881  1.0000
  H   H658      1.0  0.12513  0.34141  0.95809  1.0000
  H   H659      1.0  0.39387  0.39076  0.89083  1.0000
  C   C376      1.0  0.18001  0.35791  0.95452  1.0000
  C   C377      1.0  0.34613  0.35891  0.77734  1.0000
  C   C378      1.0  0.36280  0.36154  0.78777  1.0000
  C   C379      1.0  0.37912  0.35074  0.78216  1.0000
  C   C380      1.0  0.37915  0.33726  0.76592  1.0000
  C   C381      1.0  0.36249  0.33471  0.75534  1.0000
  C   C382      1.0  0.34612  0.34543  0.76108  1.0000
  H   H660      1.0  0.36312  0.37180  0.80029  1.0000
  H   H661      1.0  0.39185  0.35286  0.79051  1.0000
  H   H662      1.0  0.36219  0.32439  0.74289  1.0000
  H   H663      1.0  0.33335  0.34323  0.75286  1.0000
  H   H664      1.0  0.07956  0.38184  0.98253  1.0000
  C   C383      1.0  0.07554  0.32503  0.93762  1.0000
  H   H665      1.0  0.36975  0.37042  0.73703  1.0000
  C   C384      1.0  0.40249  0.22457  0.68042  1.0000
  H   H666      1.0  0.15119  0.32175  0.97283  1.0000
  H   H667      1.0  0.43479  0.23494  0.63333  1.0000
  H   H668      1.0  0.16142  0.21967  0.82373  1.0000
  C   C385      1.0  0.08740  0.34879  0.96034  1.0000
  H   H669      1.0  0.06160  0.32306  0.97757  1.0000
  C   C386      1.0  0.36897  0.33527  0.67915  1.0000
  C   C387      1.0  0.10751  0.26546  0.84344  1.0000
  C   C388      1.0  0.10262  0.26360  0.86576  1.0000
  C   C389      1.0  0.10416  0.27875  0.87976  1.0000
  C   C390      1.0  0.11060  0.29604  0.87180  1.0000
  C   C391      1.0  0.11544  0.29792  0.84949  1.0000
  C   C392      1.0  0.11387  0.28279  0.83549  1.0000
  H   H670      1.0  0.09773  0.25046  0.87225  1.0000
  H   H671      1.0  0.10040  0.27699  0.89693  1.0000
  H   H672      1.0  0.12033  0.31106  0.84297  1.0000
  H   H673      1.0  0.11749  0.28460  0.81829  1.0000
  Fe  Fe54      1.0  0.45043  0.39015  0.51688  1.0000
  H   H674      1.0  0.06708  0.29605  0.94337  1.0000
  Fe  Fe55      1.0  0.11701  0.38652  0.87535  1.0000
  H   H675      1.0  0.00588  0.23927  0.55914  1.0000
  C   C393      1.0  0.24018  0.38638  0.86781  1.0000
  H   H676      1.0  0.37780  0.22389  0.66140  1.0000
  C   C394      1.0  0.08453  0.32173  0.00002  1.0000
  H   H677      1.0  0.40565  0.39849  0.56496  1.0000
  H   H678      1.0  0.44669  0.35378  0.95178  1.0000
  H   H679      1.0  0.06306  0.20951  0.98893  1.0000
  C   C395      1.0  0.39381  0.24307  0.57382  1.0000
  C   C396      1.0  0.25073  0.37709  0.79840  1.0000
  H   H680      1.0  0.07707  0.30335  0.97538  1.0000
  H   H681      1.0  0.41894  0.38956  0.88885  1.0000
  H   H682      1.0  0.07074  0.31152  0.89594  1.0000
  H   H683      1.0  0.04097  0.38483  0.80613  1.0000
  C   C397      1.0  0.33616  0.21910  0.68530  1.0000
  C   C398      1.0  0.01567  0.20362  0.78229  1.0000
  H   H684      1.0  0.03490  0.38477  0.75122  1.0000
  H   H685      1.0  0.43224  0.37576  0.70716  1.0000
  C   C399      1.0  0.21331  0.20374  0.77401  1.0000
  C   C400      1.0  0.28492  0.33952  0.82389  1.0000
  H   H686      1.0  0.16317  0.20740  0.74459  1.0000
  H   H687      1.0  0.20699  0.36987  0.95201  1.0000
  H   H688      1.0  0.46504  0.25463  0.65691  1.0000
  C   C401      1.0  0.49432  0.30096  0.75556  1.0000
  H   H689      1.0  0.06087  0.33038  0.93982  1.0000
  H   H690      1.0  0.39437  0.38759  0.93079  1.0000
  C   C402      1.0  0.44621  0.38232  0.96404  1.0000
  N   N19       1.0  0.16021  0.21246  0.78956  1.0000
  H   H691      1.0  0.32747  0.22029  0.70059  1.0000
  H   H692      1.0  0.14519  0.35560  0.98522  1.0000
  C   C403      1.0  0.13799  0.36449  0.99693  1.0000
  H   H693      1.0  0.47805  0.35913  0.96685  1.0000
  H   H694      1.0  0.13337  0.22760  0.78811  1.0000
  C   C404      1.0  0.12565  0.37891  0.98949  1.0000
  H   H695      1.0  0.36767  0.36529  0.67921  1.0000
  H   H696      1.0  0.41878  0.38900  0.64182  1.0000
  H   H697      1.0  0.34866  0.22739  0.68700  1.0000
  H   H698      1.0  0.21498  0.21527  0.76162  1.0000
  H   H699      1.0  0.01063  0.22075  0.54030  1.0000
  H   H700      1.0  0.17757  0.32859  0.94783  1.0000
  H   H701      1.0  0.40319  0.36301  0.74199  1.0000
  H   H702      1.0  0.38442  0.39703  0.75134  1.0000
  H   H703      1.0  0.04964  0.37183  0.78281  1.0000
  H   H704      1.0  0.10602  0.30395  0.95839  1.0000
  N   N20       1.0  0.41935  0.27053  0.61745  1.0000
  C   C405      1.0  0.42091  0.28900  0.60509  1.0000
  C   C406      1.0  0.40565  0.27250  0.63667  1.0000
  C   C407      1.0  0.43830  0.26513  0.62637  1.0000
  C   C408      1.0  0.41400  0.25517  0.60291  1.0000
  C   C409      1.0  0.39646  0.25905  0.58916  1.0000
  C   C410      1.0  0.43558  0.28946  0.58592  1.0000
  C   C411      1.0  0.43941  0.24732  0.64161  1.0000
  C   C412      1.0  0.38869  0.28655  0.63383  1.0000
  C   C413      1.0  0.37359  0.28339  0.65152  1.0000
  H   H705      1.0  0.02442  0.38175  0.71345  1.0000
  C   C414      1.0  0.43229  0.30666  0.57084  1.0000
  C   C415      1.0  0.38026  0.38865  0.99031  1.0000
  H   H706      1.0  0.42442  0.29995  0.61661  1.0000
  H   H707      1.0  0.40740  0.29403  0.59836  1.0000
  H   H708      1.0  0.40035  0.25864  0.64177  1.0000
  H   H709      1.0  0.41270  0.27730  0.65133  1.0000
  H   H710      1.0  0.44347  0.27685  0.63569  1.0000
  H   H711      1.0  0.44870  0.26269  0.61278  1.0000
  H   H712      1.0  0.42580  0.25102  0.59162  1.0000
  H   H713      1.0  0.41128  0.24228  0.61290  1.0000
  H   H714      1.0  0.39740  0.27197  0.57882  1.0000
  H   H715      1.0  0.38389  0.26004  0.60008  1.0000
  H   H716      1.0  0.44976  0.29000  0.59251  1.0000
  H   H717      1.0  0.43524  0.27705  0.57570  1.0000
  H   H718      1.0  0.18604  0.34233  0.92483  1.0000
  H   H719      1.0  0.43062  0.24923  0.65665  1.0000
  H   H720      1.0  0.39332  0.30103  0.63514  1.0000
  H   H721      1.0  0.38215  0.28565  0.61781  1.0000
  H   H722      1.0  0.36201  0.29406  0.64956  1.0000
  H   H723      1.0  0.36798  0.26933  0.65027  1.0000
  H   H724      1.0  0.37926  0.28452  0.66806  1.0000
  H   H725      1.0  0.44193  0.37423  0.74587  1.0000
  H   H726      1.0  0.13841  0.21054  0.74885  1.0000
  H   H727      1.0  0.31200  0.33775  0.80685  1.0000
  H   H728      1.0  0.43086  0.31951  0.58045  1.0000
  H   H729      1.0  0.44427  0.30801  0.55905  1.0000
  H   H730      1.0  0.41944  0.30546  0.56148  1.0000
  H   H731      1.0  0.25888  0.37984  0.76364  1.0000
  C   C416      1.0  0.40710  0.37219  0.72766  1.0000
  C   C417      1.0  0.12208  0.32769  0.96601  1.0000
  C   C418      1.0  0.37416  0.38106  0.72449  1.0000
  H   H732      1.0  0.39924  0.34883  0.69400  1.0000
  C   C419      1.0  0.27715  0.35804  0.81295  1.0000
  C   C420      1.0  0.14841  0.23006  0.78473  1.0000
  H   H733      1.0  0.16828  0.24926  0.79787  1.0000
  H   H734      1.0  0.42298  0.36828  0.93485  1.0000
  C   C421      1.0  0.49610  0.28242  0.74917  1.0000
  C   C422      1.0  0.15307  0.24756  0.79743  1.0000
  H   H735      1.0  0.18048  0.35467  0.97238  1.0000
  H   H736      1.0  0.41325  0.38399  0.58793  1.0000
  H   H737      1.0  0.43703  0.38567  0.92306  1.0000
  H   H738      1.0  0.48225  0.30957  0.75084  1.0000
  C   C423      1.0  0.14423  0.26535  0.78695  1.0000
  H   H739      1.0  0.02108  0.39747  0.78250  1.0000
  N   N21       1.0  0.08650  0.32799  0.95785  1.0000
  H   H740      1.0  0.34997  0.39715  0.75580  1.0000
  C   C424      1.0  0.41189  0.39517  0.65659  1.0000
  H   H741      1.0  0.07269  0.39805  0.77542  1.0000
  H   H742      1.0  0.14966  0.23411  0.76704  1.0000
  H   H743      1.0  0.18112  0.22621  0.76932  1.0000
  C   C425      1.0  0.18362  0.39026  0.98147  1.0000
  C   C426      1.0  0.18665  0.34015  0.94289  1.0000
  H   H744      1.0  0.04926  0.30909  0.91179  1.0000
  H   H745      1.0  0.31156  0.35060  0.83181  1.0000
  C   C427      1.0  0.40670  0.38498  0.89879  1.0000
  H   H746      1.0  0.22826  0.36407  0.88743  1.0000
  S   S107      1.0  0.44949  0.35869  0.51703  1.0000
  H   H747      1.0  0.43495  0.35034  0.74859  1.0000
  H   H748      1.0  0.18705  0.22248  0.79707  1.0000
  H   H749      1.0  0.09467  0.35504  0.94574  1.0000
  H   H750      1.0  0.19316  0.37886  0.98808  1.0000
  H   H751      1.0  0.32818  0.22508  0.67124  1.0000
  C   C428      1.0  0.23663  0.40220  0.85429  1.0000
  C   C429      1.0  0.46624  0.35442  0.97745  1.0000
  H   H752      1.0  0.27778  0.36905  0.82530  1.0000
  H   H753      1.0  0.15817  0.39093  0.94910  1.0000
  C   C430      1.0  0.01745  0.20330  0.85217  1.0000
  H   H754      1.0  0.11886  0.32997  0.98353  1.0000
  H   H755      1.0  0.15004  0.26778  0.77010  1.0000
  H   H756      1.0  0.39640  0.37083  0.66345  1.0000
  H   H757      1.0  0.14715  0.27749  0.79688  1.0000
  N   N22       1.0  0.25760  0.35749  0.80472  1.0000
  C   C431      1.0  0.19248  0.37432  0.94761  1.0000
  H   H758      1.0  0.21301  0.39571  0.91987  1.0000
  C   C432      1.0  0.24537  0.35073  0.82367  1.0000
  C   C433      1.0  0.25620  0.34460  0.78583  1.0000
  C   C434      1.0  0.27360  0.34231  0.77019  1.0000
  H   H759      1.0  0.06466  0.36107  0.81738  1.0000
  C   C435      1.0  0.22406  0.35205  0.82007  1.0000
  C   C436      1.0  0.26118  0.38692  0.77911  1.0000
  H   H760      1.0  0.09820  0.31405  0.00157  1.0000
  C   C437      1.0  0.26912  0.33191  0.74975  1.0000
  H   H761      1.0  0.25092  0.38607  0.81285  1.0000
  C   C438      1.0  0.21358  0.34004  0.83702  1.0000
  H   H762      1.0  0.14288  0.20538  0.81788  1.0000
  H   H763      1.0  0.23599  0.37739  0.79344  1.0000
  C   C439      1.0  0.44002  0.36130  0.73689  1.0000
  C   C440      1.0  0.06903  0.37404  0.80866  1.0000
  H   H764      1.0  0.24780  0.35867  0.83858  1.0000
  H   H765      1.0  0.24915  0.33590  0.82815  1.0000
  H   H766      1.0  0.25318  0.33022  0.79190  1.0000
  H   H767      1.0  0.24404  0.34913  0.77575  1.0000
  Fe  Fe56      1.0  0.49248  0.38998  0.51543  1.0000
  H   H768      1.0  0.02311  0.22100  0.56559  1.0000
  C   C441      1.0  0.18029  0.21589  0.78332  1.0000
  H   H769      1.0  0.28029  0.32716  0.81551  1.0000
  H   H770      1.0  0.22075  0.34745  0.80354  1.0000
  H   H771      1.0  0.21863  0.36671  0.82186  1.0000
  H   H772      1.0  0.27922  0.35583  0.76478  1.0000
  H   H773      1.0  0.05771  0.38802  0.96988  1.0000
  N   N23       1.0  0.42771  0.39067  0.95648  1.0000
  H   H774      1.0  0.41846  0.38228  0.98942  1.0000
  H   H775      1.0  0.14746  0.24649  0.81455  1.0000
  H   H776      1.0  0.25843  0.34000  0.74013  1.0000
  H   H777      1.0  0.28191  0.33005  0.73925  1.0000
  H   H778      1.0  0.26399  0.31792  0.75433  1.0000
  H   H779      1.0  0.27973  0.33856  0.84120  1.0000
  H   H780      1.0  0.00723  0.21360  0.85941  1.0000
  H   H781      1.0  0.28496  0.33412  0.77852  1.0000
  H   H782      1.0  0.21724  0.32500  0.83480  1.0000
  H   H783      1.0  0.21693  0.34373  0.85390  1.0000
  H   H784      1.0  0.19834  0.34246  0.83511  1.0000
  H   H785      1.0  0.38096  0.24597  0.56441  1.0000
  N   N24       1.0  0.39133  0.37388  0.71187  1.0000
  H   H786      1.0  0.38132  0.33357  0.66787  1.0000
  C   C442      1.0  0.07448  0.30449  0.93064  1.0000
  C   C443      1.0  0.13985  0.31521  0.96438  1.0000
  S   S108      1.0  0.13871  0.39492  0.89892  1.0000
  C   C444      1.0  0.38750  0.35468  0.70420  1.0000
  S   S109      1.0  0.06600  0.20834  0.83096  1.0000
  C   C445      1.0  0.03687  0.38946  0.70808  1.0000
  C   C446      1.0  0.45937  0.24271  0.64863  1.0000
  H   H787      1.0  0.16924  0.38551  0.98478  1.0000
  H   H788      1.0  0.21572  0.39956  0.96082  1.0000
  C   C447      1.0  0.41270  0.38443  0.97272  1.0000
  H   H789      1.0  0.02638  0.21079  0.84002  1.0000
  H   H790      1.0  0.25442  0.38185  0.87105  1.0000
  H   H791      1.0  0.07279  0.38406  0.82108  1.0000
  H   H792      1.0  0.04912  0.37950  0.70656  1.0000
  C   C448      1.0  0.30618  0.33835  0.82388  1.0000
  H   H793      1.0  0.08854  0.29787  0.92771  1.0000
  C   C449      1.0  0.42628  0.36502  0.71846  1.0000
  H   H794      1.0  0.38654  0.34463  0.71844  1.0000
  H   H795      1.0  0.35708  0.35400  0.70281  1.0000
  H   H796      1.0  0.12889  0.26434  0.78630  1.0000
  C   C450      1.0  0.06849  0.35985  0.96359  1.0000
  Fe  Fe57      1.0  0.31933  0.39554  0.80845  1.0000
  H   H797      1.0  0.35623  0.33532  0.66935  1.0000
  H   H798      1.0  0.13766  0.30133  0.97237  1.0000
  N   N25       1.0  0.18705  0.39310  0.95704  1.0000
  H   H799      1.0  0.08153  0.37054  0.79819  1.0000
  H   H800      1.0  0.40974  0.38595  0.73442  1.0000
  H   H801      1.0  0.19247  0.37528  0.92943  1.0000
  H   H802      1.0  0.20116  0.33596  0.94725  1.0000
  H   H803      1.0  0.16531  0.36115  0.95040  1.0000
  H   H804      1.0  0.46730  0.33895  0.97907  1.0000
  H   H805      1.0  0.40778  0.37059  0.96838  1.0000
  H   H806      1.0  0.18879  0.40243  0.85661  1.0000
  C   C451      1.0  0.07667  0.31873  0.97717  1.0000
  C   C452      1.0  0.38980  0.21586  0.66741  1.0000
  H   H807      1.0  0.46737  0.36013  0.99400  1.0000
  H   H808      1.0  0.09600  0.35206  0.97431  1.0000
  H   H809      1.0  0.36821  0.39874  0.99258  1.0000
  C   C453      1.0  0.36935  0.35349  0.69129  1.0000
  C   C454      1.0  0.04498  0.39580  0.74731  1.0000
  H   H810      1.0  0.46849  0.23920  0.63420  1.0000
  H   H811      1.0  0.40581  0.24159  0.56200  1.0000
  H   H812      1.0  0.45956  0.23048  0.66029  1.0000
  H   H813      1.0  0.03421  0.39608  0.69170  1.0000
  C   C455      1.0  0.44761  0.36077  0.96760  1.0000
  H   H814      1.0  0.28710  0.36238  0.79975  1.0000
  C   C456      1.0  0.39532  0.39786  0.97618  1.0000
  C   C457      1.0  0.05312  0.38232  0.79478  1.0000
  H   H815      1.0  0.31112  0.32553  0.83303  1.0000
  H   H816      1.0  0.42800  0.22039  0.69773  1.0000
  H   H817      1.0  0.08608  0.33669  0.00312  1.0000
  H   H818      1.0  0.38242  0.39465  0.68718  1.0000
  H   H819      1.0  0.27631  0.38710  0.78183  1.0000
  C   C458      1.0  0.40573  0.37955  0.67243  1.0000
  H   H820      1.0  0.37539  0.37620  0.98228  1.0000
  C   C459      1.0  0.40969  0.39859  0.58238  1.0000
  H   H821      1.0  0.38907  0.40271  0.96059  1.0000
  H   H822      1.0  0.41821  0.37066  0.67644  1.0000
  H   H823      1.0  0.44984  0.38857  0.97965  1.0000
  C   C460      1.0  0.39551  0.38754  0.69316  1.0000
  C   C461      1.0  0.07140  0.38040  0.96758  1.0000
  H   H824      1.0  0.05870  0.38808  0.74519  1.0000
  H   H825      1.0  0.08542  0.20875  0.00006  1.0000
  H   H826      1.0  0.49099  0.23956  0.78180  1.0000
  C   C462      1.0  0.20302  0.39788  0.85988  1.0000
  H   H827      1.0  0.02208  0.21020  0.79562  1.0000
  H   H828      1.0  0.49317  0.21501  0.78907  1.0000
  C   C463      1.0  0.37588  0.39954  0.73659  1.0000
  H   H829      1.0  0.07890  0.38693  0.95334  1.0000
  H   H830      1.0  0.45764  0.38568  0.95210  1.0000
  C   C464      1.0  0.40726  0.39198  0.92210  1.0000
  C   C465      1.0  0.05859  0.40082  0.78298  1.0000
  H   H831      1.0  0.10719  0.40160  0.00011  1.0000
  H   H832      1.0  0.21849  0.20797  0.78996  1.0000
  C   C466      1.0  0.15782  0.20779  0.81376  1.0000
  H   H833      1.0  0.17166  0.40101  0.92793  1.0000
  C   C467      1.0  0.16960  0.40060  0.94605  1.0000
  C   C468      1.0  0.50107  0.22752  0.78440  1.0000
  H   H834      1.0  0.08301  0.20418  0.95815  1.0000
  Fe  Fe58      1.0  0.38183  0.45927  0.04266  1.0000
  H   H835      1.0  0.44148  0.56013  0.42232  1.0000
  S   S110      1.0  0.36583  0.46594  0.07443  1.0000
  H   H836      1.0  0.44504  0.59354  0.09275  1.0000
  C   C469      1.0  0.39385  0.41945  0.31260  1.0000
  C   C470      1.0  0.38168  0.60042  0.41556  1.0000
  C   C471      1.0  0.24573  0.59440  0.34466  1.0000
  N   N26       1.0  0.01990  0.49240  0.17515  1.0000
  S   S111      1.0  0.41300  0.45905  0.03854  1.0000
  C   C472      1.0  0.20096  0.45605  0.17224  1.0000
  Fe  Fe59      1.0  0.30960  0.43671  0.21189  1.0000
  H   H837      1.0  0.30414  0.42828  0.02544  1.0000
  S   S112      1.0  0.30735  0.46828  0.21720  1.0000
  H   H838      1.0  0.39030  0.44546  0.29444  1.0000
  H   H839      1.0  0.45679  0.42995  0.50416  1.0000
  H   H840      1.0  0.40084  0.58417  0.08004  1.0000
  C   C473      1.0  0.00525  0.56037  0.28195  1.0000
  S   S113      1.0  0.29699  0.42593  0.18158  1.0000
  S   S114      1.0  0.33743  0.42176  0.20569  1.0000
  C   C474      1.0  0.04049  0.46781  0.15389  1.0000
  H   H841      1.0  0.31756  0.45438  0.01931  1.0000
  C   C475      1.0  0.01198  0.50120  0.15436  1.0000
  H   H842      1.0  0.37289  0.47779  0.27842  1.0000
  S   S115      1.0  0.35686  0.55332  0.47607  1.0000
  C   C476      1.0  0.36016  0.41690  0.10920  1.0000
  Fe  Fe60      1.0  0.29630  0.58212  0.32735  1.0000
  S   S116      1.0  0.30539  0.55488  0.34402  1.0000
  H   H843      1.0  0.40341  0.51443  0.06373  1.0000
  Fe  Fe61      1.0  0.33293  0.58325  0.29886  1.0000
  S   S117      1.0  0.34344  0.55547  0.31324  1.0000
  Fe  Fe62      1.0  0.31450  0.54544  0.31033  1.0000
  S   S118      1.0  0.30532  0.51587  0.30400  1.0000
  Fe  Fe63      1.0  0.33364  0.56682  0.34584  1.0000
  S   S119      1.0  0.35586  0.56108  0.37166  1.0000
  S   S120      1.0  0.30446  0.57222  0.29354  1.0000
  H   H844      1.0  0.34059  0.45308  0.23567  1.0000
  S   S121      1.0  0.10387  0.57585  0.35005  1.0000
  C   C477      1.0  0.45201  0.40881  0.01587  1.0000
  S   S122      1.0  0.13910  0.58155  0.40080  1.0000
  H   H845      1.0  0.25912  0.45782  0.23925  1.0000
  H   H846      1.0  0.39230  0.59895  0.40207  1.0000
  Fe  Fe64      1.0  0.02684  0.50521  0.29208  1.0000
  S   S123      1.0  0.03162  0.50974  0.25576  1.0000
  S   S124      1.0  0.03967  0.52218  0.31953  1.0000
  Fe  Fe65      1.0  0.03182  0.47834  0.25272  1.0000
  S   S125      1.0  0.05569  0.46396  0.23160  1.0000
  S   S126      1.0  0.02862  0.47365  0.28955  1.0000
  C   C478      1.0  0.07939  0.42190  0.17970  1.0000
  C   C479      1.0  0.06004  0.42400  0.18420  1.0000
  C   C480      1.0  0.05259  0.43633  0.20027  1.0000
  C   C481      1.0  0.06435  0.44711  0.21201  1.0000
  C   C482      1.0  0.08371  0.44482  0.20770  1.0000
  C   C483      1.0  0.09118  0.43226  0.19188  1.0000
  C   C484      1.0  0.32704  0.47922  0.03269  1.0000
  H   H847      1.0  0.03771  0.43772  0.20331  1.0000
  H   H848      1.0  0.09305  0.45296  0.21659  1.0000
  H   H849      1.0  0.10606  0.43097  0.18874  1.0000
  C   C485      1.0  0.08605  0.56060  0.34207  1.0000
  C   C486      1.0  0.07156  0.55501  0.35636  1.0000
  C   C487      1.0  0.05780  0.54319  0.34925  1.0000
  C   C488      1.0  0.05814  0.53655  0.32774  1.0000
  C   C489      1.0  0.07271  0.54202  0.31348  1.0000
  C   C490      1.0  0.08640  0.55396  0.32054  1.0000
  H   H850      1.0  0.07092  0.55981  0.37296  1.0000
  H   H851      1.0  0.04677  0.53915  0.36060  1.0000
  H   H852      1.0  0.07351  0.53702  0.29697  1.0000
  H   H853      1.0  0.09748  0.55797  0.30924  1.0000
  H   H854      1.0  0.34137  0.46114  0.30708  1.0000
  C   C491      1.0  0.29404  0.40493  0.04381  1.0000
  C   C492      1.0  0.47501  0.55369  0.04881  1.0000
  H   H855      1.0  0.36953  0.50368  0.30406  1.0000
  H   H856      1.0  0.31015  0.40673  0.28362  1.0000
  Fe  Fe66      1.0  0.38217  0.54593  0.49707  1.0000
  H   H857      1.0  0.40219  0.54863  0.06022  1.0000
  H   H858      1.0  0.38987  0.42540  0.32873  1.0000
  C   C493      1.0  0.35620  0.55392  0.44696  1.0000
  C   C494      1.0  0.34031  0.56183  0.43665  1.0000
  C   C495      1.0  0.33956  0.56339  0.41358  1.0000
  C   C496      1.0  0.35482  0.55720  0.40056  1.0000
  C   C497      1.0  0.37058  0.54901  0.41088  1.0000
  C   C498      1.0  0.37118  0.54717  0.43391  1.0000
  H   H859      1.0  0.32856  0.56694  0.44658  1.0000
  H   H860      1.0  0.32739  0.56979  0.40591  1.0000
  H   H861      1.0  0.38246  0.54417  0.40099  1.0000
  H   H862      1.0  0.38336  0.54075  0.44156  1.0000
  C   C499      1.0  0.30697  0.48110  0.24165  1.0000
  C   C500      1.0  0.29967  0.47401  0.26155  1.0000
  C   C501      1.0  0.29924  0.48487  0.28040  1.0000
  C   C502      1.0  0.30600  0.50298  0.27960  1.0000
  C   C503      1.0  0.31304  0.51017  0.25963  1.0000
  C   C504      1.0  0.31339  0.49932  0.24077  1.0000
  H   H863      1.0  0.29419  0.46024  0.26236  1.0000
  H   H864      1.0  0.29366  0.47921  0.29573  1.0000
  H   H865      1.0  0.31823  0.52408  0.25871  1.0000
  H   H866      1.0  0.31884  0.50506  0.22540  1.0000
  C   C505      1.0  0.43227  0.59820  0.13390  1.0000
  H   H867      1.0  0.23862  0.51924  0.23185  1.0000
  H   H868      1.0  0.25632  0.40791  0.25312  1.0000
  S   S127      1.0  0.41137  0.54274  0.48340  1.0000
  C   C506      1.0  0.03131  0.53928  0.20006  1.0000
  C   C507      1.0  0.29112  0.42723  0.11536  1.0000
  H   H869      1.0  0.34904  0.49392  0.31661  1.0000
  H   H870      1.0  0.46149  0.53869  0.45971  1.0000
  C   C508      1.0  0.01648  0.59304  0.27763  1.0000
  H   H871      1.0  0.45500  0.54084  0.07021  1.0000
  C   C509      1.0  0.22849  0.58778  0.37890  1.0000
  H   H872      1.0  0.42102  0.55088  0.43554  1.0000
  Fe  Fe67      1.0  0.32406  0.40932  0.17725  1.0000
  H   H873      1.0  0.41261  0.57676  0.41001  1.0000
  C   C510      1.0  0.46037  0.55497  0.06745  1.0000
  C   C511      1.0  0.36006  0.44895  0.09496  1.0000
  H   H874      1.0  0.40926  0.41920  0.31059  1.0000
  H   H875      1.0  0.38997  0.42499  0.27837  1.0000
  C   C512      1.0  0.34814  0.42210  0.12676  1.0000
  H   H876      1.0  0.23458  0.45637  0.24380  1.0000
  C   C513      1.0  0.36611  0.43023  0.09338  1.0000
  H   H877      1.0  0.28975  0.41187  0.11626  1.0000
  H   H878      1.0  0.21395  0.45639  0.21278  1.0000
  H   H879      1.0  0.22860  0.58333  0.39600  1.0000
  H   H880      1.0  0.34377  0.46873  0.11426  1.0000
  H   H881      1.0  0.26326  0.51964  0.23653  1.0000
  H   H882      1.0  0.03079  0.53587  0.21786  1.0000
  C   C514      1.0  0.35753  0.49502  0.30115  1.0000
  H   H883      1.0  0.25215  0.48858  0.24593  1.0000
  H   H884      1.0  0.43558  0.56578  0.45028  1.0000
  H   H885      1.0  0.00739  0.46584  0.17174  1.0000
  H   H886      1.0  0.25844  0.58398  0.37429  1.0000
  H   H887      1.0  0.29273  0.46627  0.16989  1.0000
  H   H888      1.0  0.39704  0.52443  0.08971  1.0000
  H   H889      1.0  0.46103  0.54429  0.49938  1.0000
  H   H890      1.0  0.30514  0.45823  0.05868  1.0000
  C   C515      1.0  0.34843  0.45426  0.11284  1.0000
  N   N27       1.0  0.24553  0.53131  0.33878  1.0000
  C   C516      1.0  0.25230  0.53143  0.31514  1.0000
  C   C517      1.0  0.24078  0.51165  0.34553  1.0000
  C   C518      1.0  0.22840  0.54401  0.34190  1.0000
  C   C519      1.0  0.26074  0.53810  0.35248  1.0000
  C   C520      1.0  0.25717  0.53700  0.37769  1.0000
  C   C521      1.0  0.25549  0.55087  0.30420  1.0000
  C   C522      1.0  0.21172  0.54021  0.32747  1.0000
  C   C523      1.0  0.25749  0.49712  0.34664  1.0000
  C   C524      1.0  0.25095  0.47778  0.35345  1.0000
  C   C525      1.0  0.27432  0.54232  0.38980  1.0000
  C   C526      1.0  0.26183  0.54907  0.28022  1.0000
  C   C527      1.0  0.19582  0.55484  0.33080  1.0000
  H   H891      1.0  0.24271  0.52402  0.30487  1.0000
  H   H892      1.0  0.26587  0.52341  0.31356  1.0000
  H   H893      1.0  0.23314  0.51137  0.36165  1.0000
  H   H894      1.0  0.23094  0.50625  0.33385  1.0000
  H   H895      1.0  0.23187  0.55885  0.33928  1.0000
  H   H896      1.0  0.22307  0.54302  0.35917  1.0000
  H   H897      1.0  0.27422  0.53047  0.34858  1.0000
  H   H898      1.0  0.26318  0.55300  0.34826  1.0000
  H   H899      1.0  0.25382  0.52276  0.38360  1.0000
  H   H900      1.0  0.24547  0.54678  0.38254  1.0000
  H   H901      1.0  0.24262  0.56001  0.30455  1.0000
  H   H902      1.0  0.26651  0.55789  0.31259  1.0000
  H   H903      1.0  0.20620  0.52636  0.33189  1.0000
  H   H904      1.0  0.21571  0.54058  0.30981  1.0000
  H   H905      1.0  0.26482  0.49596  0.33046  1.0000
  H   H906      1.0  0.26771  0.50091  0.35876  1.0000
  H   H907      1.0  0.26314  0.46767  0.35409  1.0000
  H   H908      1.0  0.24403  0.47801  0.36996  1.0000
  H   H909      1.0  0.24111  0.47293  0.34144  1.0000
  H   H910      1.0  0.27132  0.54173  0.40775  1.0000
  H   H911      1.0  0.28634  0.53248  0.38618  1.0000
  H   H912      1.0  0.27816  0.55671  0.38497  1.0000
  H   H913      1.0  0.37420  0.58719  0.41635  1.0000
  H   H914      1.0  0.27508  0.54049  0.27894  1.0000
  C   C528      1.0  0.25403  0.49254  0.22828  1.0000
  H   H915      1.0  0.19163  0.55571  0.34842  1.0000
  H   H916      1.0  0.20012  0.56873  0.32457  1.0000
  H   H917      1.0  0.18354  0.55109  0.32160  1.0000
  N   N28       1.0  0.31609  0.42954  0.05739  1.0000
  H   H918      1.0  0.25173  0.48012  0.16828  1.0000
  H   H919      1.0  0.36009  0.41663  0.29328  1.0000
  H   H920      1.0  0.04204  0.57763  0.24608  1.0000
  C   C529      1.0  0.25366  0.42324  0.25415  1.0000
  C   C530      1.0  0.25979  0.45981  0.19506  1.0000
  C   C531      1.0  0.47426  0.59489  0.50023  1.0000
  H   H921      1.0  0.31076  0.40946  0.08413  1.0000
  H   H922      1.0  0.05004  0.57797  0.31932  1.0000
  C   C532      1.0  0.00810  0.47685  0.18399  1.0000
  H   H923      1.0  0.34891  0.50225  0.28836  1.0000
  C   C533      1.0  0.03638  0.58573  0.32103  1.0000
  H   H924      1.0  0.00502  0.49053  0.14511  1.0000
  H   H925      1.0  0.10229  0.58768  0.50201  1.0000
  H   H926      1.0  0.41137  0.59657  0.11009  1.0000
  S   S128      1.0  0.42814  0.40795  0.02318  1.0000
  Fe  Fe68      1.0  0.40998  0.43425  0.01789  1.0000
  H   H927      1.0  0.02985  0.60019  0.27531  1.0000
  C   C534      1.0  0.36453  0.47569  0.29376  1.0000
  S   S129      1.0  0.08778  0.40676  0.15819  1.0000
  C   C535      1.0  0.22248  0.40625  0.15431  1.0000
  C   C536      1.0  0.35337  0.45932  0.24100  1.0000
  C   C537      1.0  0.42286  0.58735  0.11657  1.0000
  C   C538      1.0  0.33416  0.41970  0.04993  1.0000
  C   C539      1.0  0.30033  0.42524  0.04292  1.0000
  H   H928      1.0  0.32390  0.42828  0.09116  1.0000
  N   N29       1.0  0.35259  0.44451  0.28040  1.0000
  H   H929      1.0  0.34971  0.47341  0.24718  1.0000
  H   H930      1.0  0.37013  0.44804  0.21368  1.0000
  H   H931      1.0  0.48200  0.56708  0.04640  1.0000
  H   H932      1.0  0.02211  0.55996  0.31937  1.0000
  N   N30       1.0  0.02013  0.57353  0.28717  1.0000
  C   C540      1.0  0.32213  0.43109  0.29697  1.0000
  H   H933      1.0  0.26898  0.48794  0.18575  1.0000
  H   H934      1.0  0.32553  0.44495  0.26553  1.0000
  C   C541      1.0  0.38503  0.43127  0.29401  1.0000
  H   H935      1.0  0.47048  0.51263  0.48924  1.0000
  Fe  Fe69      1.0  0.11890  0.59331  0.37544  1.0000
  C   C542      1.0  0.21145  0.59367  0.36949  1.0000
  H   H936      1.0  0.00804  0.60176  0.28937  1.0000
  C   C543      1.0  0.21168  0.59946  0.34740  1.0000
  H   H937      1.0  0.46750  0.55879  0.08236  1.0000
  H   H938      1.0  0.33626  0.48364  0.04561  1.0000
  C   C544      1.0  0.02174  0.50630  0.19282  1.0000
  C   C545      1.0  0.33439  0.43575  0.27627  1.0000
  C   C546      1.0  0.03877  0.56540  0.27920  1.0000
  S   S130      1.0  0.37909  0.43310  0.02433  1.0000
  C   C547      1.0  0.31195  0.42468  0.08123  1.0000
  C   C548      1.0  0.41446  0.54160  0.06808  1.0000
  S   S131      1.0  0.32418  0.59513  0.33149  1.0000
  H   H939      1.0  0.01465  0.46994  0.19869  1.0000
  C   C549      1.0  0.04173  0.56359  0.25421  1.0000
  C   C550      1.0  0.06042  0.55343  0.24885  1.0000
  H   H940      1.0  0.06143  0.45080  0.13630  1.0000
  H   H941      1.0  0.27817  0.43395  0.12240  1.0000
  C   C551      1.0  0.31858  0.45035  0.05545  1.0000
  S   S132      1.0  0.41990  0.58473  0.00930  1.0000
  H   H942      1.0  0.00383  0.55931  0.26404  1.0000
  H   H943      1.0  0.02622  0.49898  0.20831  1.0000
  H   H944      1.0  0.04136  0.55130  0.28696  1.0000
  H   H945      1.0  0.26038  0.42751  0.21979  1.0000
  H   H946      1.0  0.42045  0.51466  0.08466  1.0000
  C   C552      1.0  0.32633  0.45797  0.03299  1.0000
  C   C553      1.0  0.40956  0.52961  0.00886  1.0000
  H   H947      1.0  0.03067  0.55566  0.24721  1.0000
  H   H948      1.0  0.25868  0.44652  0.18636  1.0000
  S   S133      1.0  0.29907  0.41359  0.23381  1.0000
  C   C554      1.0  0.25262  0.51382  0.22623  1.0000
  H   H949      1.0  0.01764  0.54575  0.19523  1.0000
  H   H950      1.0  0.35838  0.47033  0.20799  1.0000
  H   H951      1.0  0.46849  0.55021  0.03330  1.0000
  H   H952      1.0  0.25131  0.41058  0.16149  1.0000
  H   H953      1.0  0.07208  0.56109  0.25517  1.0000
  H   H954      1.0  0.06088  0.53907  0.25624  1.0000
  H   H955      1.0  0.05028  0.57396  0.28418  1.0000
  C   C555      1.0  0.30542  0.42010  0.29115  1.0000
  C   C556      1.0  0.37940  0.60000  0.47832  1.0000
  H   H956      1.0  0.28176  0.48067  0.14891  1.0000
  H   H957      1.0  0.32812  0.45463  0.06818  1.0000
  H   H958      1.0  0.40906  0.57818  0.05370  1.0000
  S   S134      1.0  0.46989  0.60174  0.02146  1.0000
  C   C557      1.0  0.27945  0.46932  0.16137  1.0000
  H   H959      1.0  0.26832  0.48774  0.22307  1.0000
  H   H960      1.0  0.22830  0.44021  0.19755  1.0000
  H   H961      1.0  0.33706  0.42272  0.26713  1.0000
  H   H962      1.0  0.35038  0.59950  0.48960  1.0000
  H   H963      1.0  0.21720  0.47929  0.17897  1.0000
  H   H964      1.0  0.48574  0.54257  0.05283  1.0000
  H   H965      1.0  0.49701  0.40361  0.44420  1.0000
  H   H966      1.0  0.03528  0.45487  0.16189  1.0000
  H   H967      1.0  0.25532  0.51857  0.20897  1.0000
  H   H968      1.0  0.39323  0.57361  0.44459  1.0000
  S   S135      1.0  0.19067  0.59471  0.38645  1.0000
  C   C558      1.0  0.22588  0.45532  0.20071  1.0000
  H   H969      1.0  0.35921  0.43416  0.31319  1.0000
  H   H970      1.0  0.29532  0.44953  0.09190  1.0000
  H   H971      1.0  0.03225  0.47130  0.13914  1.0000
  C   C559      1.0  0.42976  0.56323  0.43409  1.0000
  H   H972      1.0  0.12736  0.40428  0.22497  1.0000
  C   C560      1.0  0.34805  0.46312  0.29056  1.0000
  N   N31       1.0  0.42912  0.57213  0.07892  1.0000
  C   C561      1.0  0.42151  0.55370  0.08645  1.0000
  C   C562      1.0  0.43708  0.58119  0.09827  1.0000
  Fe  Fe70      1.0  0.15906  0.60275  0.38717  1.0000
  C   C563      1.0  0.44445  0.56953  0.06171  1.0000
  H   H973      1.0  0.31663  0.44410  0.30466  1.0000
  C   C564      1.0  0.26408  0.47553  0.17771  1.0000
  S   S136      1.0  0.37704  0.47821  0.01290  1.0000
  H   H974      1.0  0.34618  0.42776  0.05467  1.0000
  H   H975      1.0  0.38098  0.58457  0.47973  1.0000
  C   C565      1.0  0.40234  0.58565  0.44266  1.0000
  H   H976      1.0  0.37523  0.42599  0.07986  1.0000
  H   H977      1.0  0.04218  0.54952  0.19655  1.0000
  H   H978      1.0  0.40949  0.55598  0.09812  1.0000
  H   H979      1.0  0.43202  0.54520  0.09596  1.0000
  H   H980      1.0  0.44747  0.57150  0.10636  1.0000
  H   H981      1.0  0.40881  0.58638  0.45884  1.0000
  C   C566      1.0  0.03309  0.58910  0.34544  1.0000
  H   H982      1.0  0.29646  0.42840  0.27962  1.0000
  H   H983      1.0  0.43868  0.56571  0.04591  1.0000
  H   H984      1.0  0.45111  0.58296  0.05801  1.0000
  C   C567      1.0  0.21938  0.46393  0.17852  1.0000
  C   C568      1.0  0.36297  0.44648  0.25862  1.0000
  H   H985      1.0  0.37868  0.46905  0.22466  1.0000
  H   H986      1.0  0.28165  0.43106  0.08251  1.0000
  H   H987      1.0  0.26427  0.56314  0.27287  1.0000
  H   H988      1.0  0.25104  0.54260  0.27078  1.0000
  H   H989      1.0  0.48527  0.54607  0.45713  1.0000
  C   C569      1.0  0.22867  0.60007  0.33520  1.0000
  C   C570      1.0  0.24892  0.43151  0.23149  1.0000
  C   C571      1.0  0.36345  0.43142  0.29586  1.0000
  H   H990      1.0  0.03735  0.59949  0.31236  1.0000
  H   H991      1.0  0.26632  0.42934  0.26025  1.0000
  H   H992      1.0  0.31289  0.48581  0.03527  1.0000
  H   H993      1.0  0.37358  0.46951  0.30673  1.0000
  C   C572      1.0  0.40850  0.52266  0.07723  1.0000
  H   H994      1.0  0.46092  0.46373  0.49747  1.0000
  H   H995      1.0  0.42190  0.60231  0.14693  1.0000
  H   H996      1.0  0.36553  0.43244  0.25148  1.0000
  C   C573      1.0  0.36600  0.46179  0.22063  1.0000
  H   H997      1.0  0.22306  0.41400  0.13883  1.0000
  H   H998      1.0  0.18974  0.45970  0.18446  1.0000
  H   H999      1.0  0.42782  0.59191  0.42331  1.0000
  H   H1000     1.0  0.23708  0.49196  0.19947  1.0000
  C   C574      1.0  0.03920  0.48397  0.17020  1.0000
  H   H1001     1.0  0.06241  0.55246  0.23083  1.0000
  H   H1002     1.0  0.42534  0.53887  0.05518  1.0000
  C   C575      1.0  0.03590  0.52161  0.18739  1.0000
  H   H1003     1.0  0.27261  0.45755  0.20467  1.0000
  H   H1004     1.0  0.37695  0.45192  0.26060  1.0000
  H   H1005     1.0  0.20239  0.44062  0.17115  1.0000
  C   C576      1.0  0.02070  0.57433  0.31186  1.0000
  H   H1006     1.0  0.00734  0.58051  0.31863  1.0000
  C   C577      1.0  0.06067  0.46339  0.14642  1.0000
  H   H1007     1.0  0.33333  0.44513  0.14219  1.0000
  C   C578      1.0  0.34253  0.44092  0.12873  1.0000
  H   H1008     1.0  0.27554  0.45675  0.15284  1.0000
  C   C579      1.0  0.44738  0.45895  0.50252  1.0000
  H   H1009     1.0  0.04580  0.47862  0.18562  1.0000
  H   H1010     1.0  0.04844  0.49481  0.16325  1.0000
  H   H1011     1.0  0.33742  0.47129  0.28090  1.0000
  H   H1012     1.0  0.34070  0.45229  0.02959  1.0000
  H   H1013     1.0  0.19682  0.46198  0.15598  1.0000
  H   H1014     1.0  0.23604  0.42496  0.22679  1.0000
  H   H1015     1.0  0.05008  0.51620  0.19185  1.0000
  H   H1016     1.0  0.03640  0.52557  0.16968  1.0000
  C   C580      1.0  0.41824  0.58035  0.42595  1.0000
  C   C581      1.0  0.24626  0.45303  0.23192  1.0000
  C   C582      1.0  0.24548  0.58807  0.36660  1.0000
  S   S137      1.0  0.34914  0.59739  0.26997  1.0000
  C   C583      1.0  0.41351  0.58417  0.06912  1.0000
  H   H1017     1.0  0.22974  0.46024  0.16536  1.0000
  H   H1018     1.0  0.24188  0.42588  0.26599  1.0000
  C   C584      1.0  0.47193  0.54754  0.46669  1.0000
  H   H1019     1.0  0.02333  0.50602  0.14302  1.0000
  H   H1020     1.0  0.00809  0.51316  0.19727  1.0000
  H   H1021     1.0  0.29701  0.41683  0.30622  1.0000
  H   H1022     1.0  0.30297  0.43073  0.12548  1.0000
  C   C585      1.0  0.29416  0.43419  0.09163  1.0000
  H   H1023     1.0  0.22553  0.48538  0.22409  1.0000
  H   H1024     1.0  0.06618  0.47524  0.13646  1.0000
  H   H1025     1.0  0.06962  0.46054  0.16077  1.0000
  N   N32       1.0  0.24294  0.46311  0.21013  1.0000
  C   C586      1.0  0.23903  0.48348  0.21480  1.0000
  H   H1026     1.0  0.49600  0.58838  0.07754  1.0000
  H   H1027     1.0  0.03171  0.57564  0.35475  1.0000
  S   S138      1.0  0.43641  0.49587  0.50166  1.0000
  H   H1028     1.0  0.33506  0.41932  0.03170  1.0000
  C   C587      1.0  0.48197  0.52151  0.49373  1.0000
  H   H1029     1.0  0.46676  0.56236  0.46533  1.0000
  C   C588      1.0  0.47476  0.54213  0.49078  1.0000
  H   H1030     1.0  0.41673  0.57498  0.12486  1.0000
  H   H1031     1.0  0.49319  0.51927  0.48101  1.0000
  H   H1032     1.0  0.47152  0.60264  0.48508  1.0000
  H   H1033     1.0  0.28795  0.43470  0.04641  1.0000
  H   H1034     1.0  0.49761  0.48772  0.48208  1.0000
  H   H1035     1.0  0.44366  0.58951  0.14157  1.0000
  H   H1036     1.0  0.00940  0.54588  0.28765  1.0000
  H   H1037     1.0  0.05068  0.41614  0.17501  1.0000
  S   S139      1.0  0.33924  0.40442  0.14452  1.0000
  S   S140      1.0  0.11954  0.59899  0.46060  1.0000
  H   H1038     1.0  0.34911  0.59904  0.39066  1.0000
  S   S141      1.0  0.43779  0.58520  0.49917  1.0000
  H   H1039     1.0  0.33000  0.42253  0.30932  1.0000
  H   H1040     1.0  0.39796  0.52100  0.01304  1.0000
  H   H1041     1.0  0.01197  0.58529  0.24324  1.0000
  C   C589      1.0  0.40777  0.54906  0.01125  1.0000
  H   H1042     1.0  0.33273  0.48423  0.01655  1.0000
  H   H1043     1.0  0.00566  0.53091  0.16090  1.0000
  H   H1044     1.0  0.18118  0.41518  0.02988  1.0000
  H   H1045     1.0  0.04514  0.59614  0.35180  1.0000
  S   S142      1.0  0.26680  0.59647  0.32861  1.0000
  Fe  Fe71      1.0  0.40809  0.47576  0.00727  1.0000
  C   C590      1.0  0.00603  0.59489  0.25568  1.0000
  H   H1046     1.0  0.36296  0.59789  0.45037  1.0000
  H   H1047     1.0  0.48469  0.55177  0.49726  1.0000
  H   H1048     1.0  0.02031  0.59811  0.34820  1.0000
  H   H1049     1.0  0.39473  0.55535  0.01733  1.0000
  C   C591      1.0  0.23856  0.40436  0.16717  1.0000
  H   H1050     1.0  0.48620  0.60252  0.09930  1.0000
  H   H1051     1.0  0.26439  0.41184  0.04010  1.0000
  H   H1052     1.0  0.27739  0.40842  0.01454  1.0000
  C   C592      1.0  0.49241  0.60290  0.08243  1.0000
  H   H1053     1.0  0.38936  0.40486  0.31236  1.0000
  C   C593      1.0  0.27581  0.40346  0.03190  1.0000
  C   C594      1.0  0.17830  0.40343  0.01931  1.0000
  C   C595      1.0  0.42268  0.56042  0.00566  1.0000
  H   H1054     1.0  0.49488  0.53932  0.00529  1.0000
  H   H1055     1.0  0.49946  0.45799  0.50447  1.0000
  H   H1056     1.0  0.44354  0.41575  0.92445  1.0000
  S   S143      1.0  0.35123  0.44807  0.97265  1.0000
  S   S144      1.0  0.29680  0.41753  0.80020  1.0000
  H   H1057     1.0  0.23200  0.58010  0.73243  1.0000
  Fe  Fe72      1.0  0.31572  0.43876  0.81219  1.0000
  H   H1058     1.0  0.37874  0.46920  0.86489  1.0000
  S   S145      1.0  0.32528  0.46691  0.79816  1.0000
  S   S146      1.0  0.30441  0.43655  0.84689  1.0000
  H   H1059     1.0  0.00593  0.58726  0.68415  1.0000
  H   H1060     1.0  0.44831  0.50977  0.56583  1.0000
  C   C596      1.0  0.00887  0.53073  0.83056  1.0000
  Fe  Fe73      1.0  0.29889  0.55516  0.71659  1.0000
  S   S147      1.0  0.29378  0.58312  0.73196  1.0000
  S   S148      1.0  0.28772  0.52830  0.73244  1.0000
  Fe  Fe74      1.0  0.31205  0.57362  0.67251  1.0000
  H   H1061     1.0  0.32644  0.46988  0.85722  1.0000
  S   S149      1.0  0.31858  0.57184  0.63578  1.0000
  Fe  Fe75      1.0  0.32114  0.59107  0.71577  1.0000
  Fe  Fe76      1.0  0.28027  0.59217  0.70003  1.0000
  H   H1062     1.0  0.45401  0.44720  0.93068  1.0000
  S   S150      1.0  0.32702  0.56217  0.70220  1.0000
  S   S151      1.0  0.28440  0.56414  0.68547  1.0000
  C   C597      1.0  0.45851  0.42311  0.00199  1.0000
  S   S152      1.0  0.42482  0.53886  0.53411  1.0000
  H   H1063     1.0  0.01179  0.56018  0.83677  1.0000
  H   H1064     1.0  0.00958  0.50173  0.92820  1.0000
  C   C598      1.0  0.00865  0.52358  0.85481  1.0000
  Fe  Fe77      1.0  0.39461  0.54206  0.54476  1.0000
  S   S153      1.0  0.39023  0.54038  0.58198  1.0000
  C   C599      1.0  0.06624  0.41968  0.84873  1.0000
  H   H1065     1.0  0.06042  0.41100  0.79596  1.0000
  S   S154      1.0  0.38927  0.56686  0.52201  1.0000
  H   H1066     1.0  0.41548  0.41874  0.95139  1.0000
  S   S155      1.0  0.13233  0.58859  0.61996  1.0000
  S   S156      1.0  0.08371  0.57575  0.65140  1.0000
  C   C600      1.0  0.17056  0.56429  0.59023  1.0000
  H   H1067     1.0  0.22991  0.58142  0.60418  1.0000
  Fe  Fe78      1.0  0.02263  0.47484  0.78237  1.0000
  S   S157      1.0  0.02997  0.47357  0.74627  1.0000
  S   S158      1.0  0.03291  0.45523  0.81101  1.0000
  Fe  Fe79      1.0  0.02830  0.50527  0.74525  1.0000
  S   S159      1.0  0.05136  0.52489  0.73226  1.0000
  S   S160      1.0  0.02270  0.50630  0.78195  1.0000
  C   C601      1.0  0.05310  0.44252  0.82156  1.0000
  C   C602      1.0  0.07106  0.44411  0.81229  1.0000
  C   C603      1.0  0.08640  0.43355  0.82115  1.0000
  C   C604      1.0  0.08421  0.42123  0.83948  1.0000
  H   H1068     1.0  0.46259  0.51435  0.58858  1.0000
  C   C605      1.0  0.05090  0.43023  0.83987  1.0000
  H   H1069     1.0  0.07319  0.45351  0.79833  1.0000
  H   H1070     1.0  0.10015  0.43499  0.81379  1.0000
  H   H1071     1.0  0.03718  0.42879  0.84730  1.0000
  C   C606      1.0  0.07537  0.56136  0.67408  1.0000
  C   C607      1.0  0.08335  0.56071  0.69476  1.0000
  C   C608      1.0  0.07582  0.54955  0.71218  1.0000
  C   C609      1.0  0.06017  0.53880  0.70941  1.0000
  C   C610      1.0  0.05218  0.53950  0.68874  1.0000
  C   C611      1.0  0.05973  0.55062  0.67131  1.0000
  H   H1072     1.0  0.09537  0.56874  0.69734  1.0000
  H   H1073     1.0  0.08224  0.54918  0.72797  1.0000
  H   H1074     1.0  0.04023  0.53137  0.68612  1.0000
  H   H1075     1.0  0.05337  0.55088  0.65549  1.0000
  H   H1076     1.0  0.29474  0.45965  0.88568  1.0000
  C   C612      1.0  0.44505  0.43978  0.50620  1.0000
  C   C613      1.0  0.44122  0.53278  0.99524  1.0000
  H   H1077     1.0  0.35854  0.42029  0.75379  1.0000
  H   H1078     1.0  0.37762  0.57525  0.65475  1.0000
  Fe  Fe80      1.0  0.37619  0.45173  0.99415  1.0000
  C   C614      1.0  0.23495  0.59459  0.59660  1.0000
  C   C615      1.0  0.33866  0.56291  0.62128  1.0000
  C   C616      1.0  0.33996  0.56592  0.59843  1.0000
  C   C617      1.0  0.35565  0.55916  0.58618  1.0000
  C   C618      1.0  0.37024  0.54931  0.59669  1.0000
  C   C619      1.0  0.36904  0.54646  0.61960  1.0000
  C   C620      1.0  0.35331  0.55316  0.63184  1.0000
  H   H1079     1.0  0.32870  0.57343  0.59011  1.0000
  H   H1080     1.0  0.35636  0.56145  0.56859  1.0000
  H   H1081     1.0  0.38023  0.53880  0.62788  1.0000
  H   H1082     1.0  0.35235  0.55060  0.64936  1.0000
  H   H1083     1.0  0.37363  0.47433  0.93854  1.0000
  N   N33       1.0  0.48901  0.51570  0.51615  1.0000
  H   H1084     1.0  0.45416  0.52653  0.98883  1.0000
  H   H1085     1.0  0.02824  0.41438  0.72460  1.0000
  H   H1086     1.0  0.34615  0.60112  0.66579  1.0000
  H   H1087     1.0  0.39321  0.55569  0.69370  1.0000
  H   H1088     1.0  0.41499  0.44329  0.61823  1.0000
  C   C621      1.0  0.42654  0.41048  0.58463  1.0000
  C   C622      1.0  0.25380  0.40714  0.77590  1.0000
  H   H1089     1.0  0.43031  0.40975  0.60211  1.0000
  C   C623      1.0  0.31451  0.48373  0.77982  1.0000
  C   C624      1.0  0.32411  0.49977  0.77341  1.0000
  C   C625      1.0  0.31622  0.51350  0.75890  1.0000
  C   C626      1.0  0.29852  0.51140  0.75066  1.0000
  C   C627      1.0  0.28888  0.49541  0.75718  1.0000
  C   C628      1.0  0.29681  0.48164  0.77162  1.0000
  H   H1090     1.0  0.33780  0.50156  0.77963  1.0000
  H   H1091     1.0  0.32380  0.52570  0.75409  1.0000
  H   H1092     1.0  0.27520  0.49362  0.75096  1.0000
  H   H1093     1.0  0.28923  0.46944  0.77640  1.0000
  H   H1094     1.0  0.49885  0.48965  0.53211  1.0000
  C   C629      1.0  0.35093  0.43838  0.94631  1.0000
  C   C630      1.0  0.36727  0.43249  0.93503  1.0000
  H   H1095     1.0  0.15543  0.41855  0.97014  1.0000
  H   H1096     1.0  0.20044  0.41950  0.95937  1.0000
  C   C631      1.0  0.33280  0.42922  0.91539  1.0000
  C   C632      1.0  0.33373  0.43683  0.93630  1.0000
  H   H1097     1.0  0.02771  0.59971  0.70980  1.0000
  H   H1098     1.0  0.32102  0.44145  0.94483  1.0000
  S   S161      1.0  0.40694  0.45067  0.98612  1.0000
  H   H1099     1.0  0.01727  0.53290  0.86412  1.0000
  H   H1100     1.0  0.23749  0.41525  0.93343  1.0000
  C   C633      1.0  0.04052  0.40452  0.72430  1.0000
  H   H1101     1.0  0.02310  0.52964  0.82305  1.0000
  H   H1102     1.0  0.04337  0.43433  0.74564  1.0000
  C   C634      1.0  0.04785  0.48532  0.85825  1.0000
  C   C635      1.0  0.25147  0.60006  0.60976  1.0000
  H   H1103     1.0  0.37370  0.44218  0.81479  1.0000
  C   C636      1.0  0.11318  0.59682  0.50583  1.0000
  C   C637      1.0  0.41250  0.44635  0.51540  1.0000
  C   C638      1.0  0.29650  0.47481  0.88260  1.0000
  H   H1104     1.0  0.48802  0.52384  0.56319  1.0000
  H   H1105     1.0  0.24385  0.58278  0.66469  1.0000
  H   H1106     1.0  0.34815  0.58088  0.82983  1.0000
  H   H1107     1.0  0.06845  0.44907  0.72460  1.0000
  H   H1108     1.0  0.07310  0.45906  0.75058  1.0000
  H   H1109     1.0  0.02735  0.41924  0.79242  1.0000
  H   H1110     1.0  0.39969  0.40412  0.65135  1.0000
  C   C639      1.0  0.20315  0.40555  0.95240  1.0000
  C   C640      1.0  0.38771  0.59772  0.61916  1.0000
  H   H1111     1.0  0.19793  0.58474  0.60696  1.0000
  H   H1112     1.0  0.04965  0.43784  0.77266  1.0000
  H   H1113     1.0  0.36616  0.49927  0.85912  1.0000
  C   C641      1.0  0.00211  0.55122  0.82864  1.0000
  N   N34       1.0  0.04531  0.40899  0.76607  1.0000
  C   C642      1.0  0.37589  0.44475  0.83233  1.0000
  H   H1114     1.0  0.07383  0.49741  0.84681  1.0000
  C   C643      1.0  0.34389  0.51986  0.83323  1.0000
  H   H1115     1.0  0.19696  0.41578  0.91872  1.0000
  H   H1116     1.0  0.31687  0.49527  0.88698  1.0000
  H   H1117     1.0  0.36670  0.60179  0.51096  1.0000
  H   H1118     1.0  0.44427  0.44660  0.95815  1.0000
  H   H1119     1.0  0.37377  0.60168  0.82276  1.0000
  C   C644      1.0  0.06644  0.48430  0.84540  1.0000
  C   C645      1.0  0.20178  0.49958  0.73967  1.0000
  H   H1120     1.0  0.37138  0.55011  0.68203  1.0000
  H   H1121     1.0  0.21897  0.59669  0.55535  1.0000
  H   H1122     1.0  0.21494  0.42017  0.84022  1.0000
  H   H1123     1.0  0.35823  0.51846  0.82601  1.0000
  H   H1124     1.0  0.38523  0.47067  0.90001  1.0000
  C   C646      1.0  0.41484  0.46559  0.51172  1.0000
  C   C647      1.0  0.01565  0.49976  0.88311  1.0000
  H   H1125     1.0  0.34609  0.48882  0.90745  1.0000
  H   H1126     1.0  0.35788  0.58685  0.85538  1.0000
  H   H1127     1.0  0.36377  0.47237  0.82970  1.0000
  H   H1128     1.0  0.02017  0.48502  0.88696  1.0000
  C   C648      1.0  0.45968  0.51831  0.57126  1.0000
  H   H1129     1.0  0.44924  0.43479  0.99735  1.0000
  H   H1130     1.0  0.33177  0.45480  0.87954  1.0000
  H   H1131     1.0  0.00685  0.41165  0.75021  1.0000
  H   H1132     1.0  0.34294  0.53160  0.84466  1.0000
  C   C649      1.0  0.44437  0.42013  0.94160  1.0000
  C   C650      1.0  0.11601  0.60084  0.52806  1.0000
  S   S162      1.0  0.17791  0.59482  0.64693  1.0000
  H   H1133     1.0  0.04949  0.59406  0.66583  1.0000
  C   C651      1.0  0.03452  0.50087  0.84842  1.0000
  N   N35       1.0  0.01511  0.50339  0.85868  1.0000
  H   H1134     1.0  0.49219  0.42789  0.55830  1.0000
  H   H1135     1.0  0.40726  0.40740  0.92084  1.0000
  C   C652      1.0  0.46362  0.57515  0.53047  1.0000
  N   N36       1.0  0.22582  0.54414  0.71538  1.0000
  C   C653      1.0  0.23484  0.54936  0.73616  1.0000
  C   C654      1.0  0.21886  0.52458  0.71776  1.0000
  C   C655      1.0  0.24066  0.54423  0.69731  1.0000
  C   C656      1.0  0.21041  0.55802  0.70877  1.0000
  C   C657      1.0  0.19427  0.56137  0.72565  1.0000
  H   H1136     1.0  0.21164  0.48860  0.73311  1.0000
  C   C658      1.0  0.23509  0.53681  0.67491  1.0000
  C   C659      1.0  0.21129  0.51809  0.74072  1.0000
  H   H1137     1.0  0.25542  0.41504  0.79100  1.0000
  C   C660      1.0  0.18145  0.57786  0.71825  1.0000
  H   H1138     1.0  0.42280  0.45460  0.65415  1.0000
  C   C661      1.0  0.25147  0.53679  0.65837  1.0000
  H   H1139     1.0  0.39769  0.40404  0.59253  1.0000
  C   C662      1.0  0.43948  0.55220  0.99782  1.0000
  H   H1140     1.0  0.20792  0.52263  0.70563  1.0000
  H   H1141     1.0  0.23036  0.51410  0.71386  1.0000
  H   H1142     1.0  0.25335  0.53592  0.70265  1.0000
  H   H1143     1.0  0.24516  0.55863  0.69381  1.0000
  H   H1144     1.0  0.21619  0.57173  0.70415  1.0000
  H   H1145     1.0  0.20378  0.55365  0.69370  1.0000
  H   H1146     1.0  0.19936  0.56456  0.74197  1.0000
  H   H1147     1.0  0.18571  0.54893  0.72707  1.0000
  S   S163      1.0  0.42897  0.49720  0.99629  1.0000
  H   H1148     1.0  0.48170  0.50005  0.55923  1.0000
  H   H1149     1.0  0.22367  0.54570  0.66769  1.0000
  H   H1150     1.0  0.23052  0.52228  0.67660  1.0000
  C   C663      1.0  0.42763  0.43340  0.51280  1.0000
  H   H1151     1.0  0.20116  0.52839  0.74793  1.0000
  H   H1152     1.0  0.02360  0.57023  0.67498  1.0000
  H   H1153     1.0  0.48222  0.43714  0.53316  1.0000
  H   H1154     1.0  0.24025  0.59175  0.57977  1.0000
  H   H1155     1.0  0.16947  0.57954  0.73003  1.0000
  H   H1156     1.0  0.18909  0.59097  0.71759  1.0000
  H   H1157     1.0  0.17599  0.57558  0.70177  1.0000
  H   H1158     1.0  0.07659  0.60101  0.68758  1.0000
  C   C664      1.0  0.21793  0.40791  0.85056  1.0000
  C   C665      1.0  0.20868  0.40895  0.92783  1.0000
  H   H1159     1.0  0.25579  0.55123  0.65469  1.0000
  H   H1160     1.0  0.26352  0.52823  0.66477  1.0000
  H   H1161     1.0  0.24732  0.53081  0.64283  1.0000
  H   H1162     1.0  0.05099  0.48819  0.87545  1.0000
  C   C666      1.0  0.17479  0.58481  0.58629  1.0000
  C   C667      1.0  0.36632  0.42487  0.91415  1.0000
  S   S164      1.0  0.10427  0.40813  0.84985  1.0000
  C   C668      1.0  0.33133  0.46981  0.87425  1.0000
  C   C669      1.0  0.49582  0.58450  0.52850  1.0000
  H   H1163     1.0  0.09166  0.44746  0.73502  1.0000
  H   H1164     1.0  0.31779  0.47569  0.90614  1.0000
  H   H1165     1.0  0.42912  0.44672  0.93502  1.0000
  H   H1166     1.0  0.45264  0.56780  0.53896  1.0000
  C   C670      1.0  0.38146  0.58580  0.66651  1.0000
  H   H1167     1.0  0.22145  0.43552  0.93201  1.0000
  H   H1168     1.0  0.39244  0.48923  0.93126  1.0000
  C   C671      1.0  0.47681  0.42188  0.99325  1.0000
  H   H1169     1.0  0.37228  0.55483  0.71070  1.0000
  C   C672      1.0  0.48147  0.57487  0.53924  1.0000
  C   C673      1.0  0.16165  0.41991  0.95334  1.0000
  Fe  Fe81      1.0  0.41540  0.51968  0.50892  1.0000
  Fe  Fe82      1.0  0.41876  0.56197  0.50958  1.0000
  H   H1170     1.0  0.16646  0.59299  0.59847  1.0000
  H   H1171     1.0  0.43078  0.41613  0.97333  1.0000
  H   H1172     1.0  0.48414  0.56722  0.55447  1.0000
  C   C674      1.0  0.36164  0.45973  0.84022  1.0000
  H   H1173     1.0  0.01452  0.56898  0.70275  1.0000
  H   H1174     1.0  0.39897  0.44150  0.52044  1.0000
  C   C675      1.0  0.37792  0.55874  0.69412  1.0000
  C   C676      1.0  0.37770  0.48655  0.92811  1.0000
  H   H1175     1.0  0.36492  0.45037  0.87395  1.0000
  H   H1176     1.0  0.06422  0.48194  0.82782  1.0000
  H   H1177     1.0  0.49128  0.53773  0.97639  1.0000
  S   S165      1.0  0.38545  0.52114  0.52096  1.0000
  H   H1178     1.0  0.41582  0.60304  0.60689  1.0000
  C   C677      1.0  0.33868  0.50168  0.84508  1.0000
  H   H1179     1.0  0.28597  0.48261  0.89284  1.0000
  H   H1180     1.0  0.13444  0.41810  0.93901  1.0000
  C   C678      1.0  0.44276  0.44145  0.94138  1.0000
  C   C679      1.0  0.07663  0.44722  0.73971  1.0000
  C   C680      1.0  0.42878  0.41163  0.95635  1.0000
  H   H1181     1.0  0.33918  0.49071  0.83283  1.0000
  C   C681      1.0  0.14616  0.42762  0.93856  1.0000
  H   H1182     1.0  0.24644  0.53900  0.74010  1.0000
  H   H1183     1.0  0.15548  0.56249  0.58811  1.0000
  S   S166      1.0  0.34898  0.41300  0.87811  1.0000
  H   H1184     1.0  0.46063  0.51378  0.52817  1.0000
  S   S167      1.0  0.42474  0.40953  0.51933  1.0000
  C   C682      1.0  0.34993  0.59245  0.84109  1.0000
  C   C683      1.0  0.49216  0.59458  0.50898  1.0000
  C   C684      1.0  0.48899  0.40677  0.99906  1.0000
  H   H1185     1.0  0.19701  0.49502  0.75639  1.0000
  H   H1186     1.0  0.07540  0.47250  0.85200  1.0000
  H   H1187     1.0  0.01480  0.46324  0.85326  1.0000
  H   H1188     1.0  0.10733  0.59477  0.54092  1.0000
  H   H1189     1.0  0.42200  0.40385  0.66444  1.0000
  H   H1190     1.0  0.04198  0.47144  0.85792  1.0000
  C   C685      1.0  0.31602  0.47990  0.88862  1.0000
  C   C686      1.0  0.47359  0.52036  0.53270  1.0000
  H   H1191     1.0  0.35823  0.58197  0.69027  1.0000
  C   C687      1.0  0.43234  0.47193  0.50540  1.0000
  H   H1192     1.0  0.34763  0.45457  0.83772  1.0000
  C   C688      1.0  0.35157  0.49677  0.86467  1.0000
  H   H1193     1.0  0.14074  0.44138  0.94440  1.0000
  H   H1194     1.0  0.22500  0.54868  0.75043  1.0000
  H   H1195     1.0  0.26208  0.56265  0.76252  1.0000
  C   C689      1.0  0.23133  0.59118  0.66829  1.0000
  H   H1196     1.0  0.04216  0.51394  0.84955  1.0000
  H   H1197     1.0  0.37362  0.59839  0.61216  1.0000
  C   C690      1.0  0.48682  0.44080  0.54960  1.0000
  H   H1198     1.0  0.21474  0.57759  0.64526  1.0000
  H   H1199     1.0  0.34771  0.41098  0.73060  1.0000
  H   H1200     1.0  0.16985  0.58927  0.56992  1.0000
  H   H1201     1.0  0.26213  0.58834  0.61041  1.0000
  H   H1202     1.0  0.35251  0.46463  0.90770  1.0000
  H   H1203     1.0  0.29393  0.47848  0.86510  1.0000
  C   C691      1.0  0.47727  0.51496  0.55696  1.0000
  S   S168      1.0  0.33890  0.41703  0.81789  1.0000
  H   H1204     1.0  0.31947  0.42795  0.90799  1.0000
  S   S169      1.0  0.25478  0.41530  0.84151  1.0000
  N   N37       1.0  0.43751  0.44435  0.57902  1.0000
  C   C692      1.0  0.42220  0.43094  0.57663  1.0000
  C   C693      1.0  0.43180  0.46339  0.56930  1.0000
  C   C694      1.0  0.45441  0.43686  0.56618  1.0000
  C   C695      1.0  0.44298  0.44568  0.60253  1.0000
  C   C696      1.0  0.42737  0.45178  0.61912  1.0000
  H   H1205     1.0  0.07674  0.41716  0.74053  1.0000
  C   C697      1.0  0.47073  0.45019  0.56265  1.0000
  C   C698      1.0  0.41092  0.46992  0.57143  1.0000
  C   C699      1.0  0.40809  0.49065  0.56515  1.0000
  C   C700      1.0  0.43411  0.44976  0.64260  1.0000
  H   H1206     1.0  0.32397  0.50352  0.85095  1.0000
  H   H1207     1.0  0.08161  0.42739  0.76608  1.0000
  H   H1208     1.0  0.41848  0.43060  0.55911  1.0000
  H   H1209     1.0  0.40915  0.43573  0.58523  1.0000
  H   H1210     1.0  0.44028  0.47431  0.57606  1.0000
  H   H1211     1.0  0.43485  0.46387  0.55131  1.0000
  H   H1212     1.0  0.45032  0.43265  0.54972  1.0000
  H   H1213     1.0  0.46044  0.42391  0.57428  1.0000
  H   H1214     1.0  0.44953  0.43219  0.60857  1.0000
  H   H1215     1.0  0.45398  0.45591  0.60378  1.0000
  H   H1216     1.0  0.39691  0.58439  0.66754  1.0000
  H   H1217     1.0  0.42329  0.46674  0.61612  1.0000
  H   H1218     1.0  0.47929  0.48768  0.51585  1.0000
  C   C701      1.0  0.42626  0.52142  0.00064  1.0000
  H   H1219     1.0  0.47621  0.45414  0.57850  1.0000
  H   H1220     1.0  0.46636  0.46312  0.55331  1.0000
  H   H1221     1.0  0.40266  0.46201  0.56015  1.0000
  H   H1222     1.0  0.40499  0.46772  0.58815  1.0000
  H   H1223     1.0  0.39298  0.49470  0.56546  1.0000
  H   H1224     1.0  0.41492  0.49936  0.57693  1.0000
  H   H1225     1.0  0.41384  0.49364  0.54838  1.0000
  H   H1226     1.0  0.22876  0.42367  0.90743  1.0000
  H   H1227     1.0  0.44634  0.45834  0.64468  1.0000
  H   H1228     1.0  0.40064  0.59460  0.58691  1.0000
  C   C702      1.0  0.37556  0.48274  0.90386  1.0000
  H   H1229     1.0  0.33415  0.52312  0.81970  1.0000
  H   H1230     1.0  0.00407  0.49155  0.82983  1.0000
  H   H1231     1.0  0.35383  0.59337  0.64009  1.0000
  H   H1232     1.0  0.18946  0.50115  0.72912  1.0000
  Fe  Fe83      1.0  0.10700  0.59602  0.64127  1.0000
  H   H1233     1.0  0.49841  0.45041  0.54739  1.0000
  H   H1234     1.0  0.36892  0.49899  0.93292  1.0000
  H   H1235     1.0  0.39929  0.41033  0.98487  1.0000
  S   S170      1.0  0.30720  0.60258  0.68533  1.0000
  H   H1236     1.0  0.25449  0.57020  0.72390  1.0000
  C   C703      1.0  0.36449  0.46394  0.86450  1.0000
  C   C704      1.0  0.35525  0.47817  0.89905  1.0000
  H   H1237     1.0  0.48151  0.43261  0.98180  1.0000
  H   H1238     1.0  0.17246  0.43039  0.95292  1.0000
  Fe  Fe84      1.0  0.32660  0.41387  0.85214  1.0000
  H   H1239     1.0  0.39029  0.44932  0.83397  1.0000
  H   H1240     1.0  0.38236  0.41029  0.72577  1.0000
  H   H1241     1.0  0.25604  0.58714  0.75799  1.0000
  H   H1242     1.0  0.15151  0.42955  0.92142  1.0000
  N   N38       1.0  0.35049  0.47741  0.87515  1.0000
  C   C705      1.0  0.01053  0.42080  0.76352  1.0000
  C   C706      1.0  0.05184  0.42801  0.75902  1.0000
  H   H1243     1.0  0.22301  0.51589  0.75212  1.0000
  H   H1244     1.0  0.01435  0.43454  0.75644  1.0000
  H   H1245     1.0  0.37421  0.43145  0.84188  1.0000
  H   H1246     1.0  0.18044  0.42028  0.98982  1.0000
  C   C707      1.0  0.07262  0.42869  0.75157  1.0000
  H   H1247     1.0  0.03378  0.49846  0.83055  1.0000
  H   H1248     1.0  0.37990  0.49516  0.89405  1.0000
  H   H1249     1.0  0.34808  0.50765  0.87690  1.0000
  H   H1250     1.0  0.37898  0.42054  0.90542  1.0000
  C   C708      1.0  0.19571  0.58800  0.58924  1.0000
  H   H1251     1.0  0.40313  0.47548  0.51383  1.0000
  H   H1252     1.0  0.45105  0.56082  0.99349  1.0000
  C   C709      1.0  0.02631  0.41127  0.77719  1.0000
  H   H1253     1.0  0.18877  0.59235  0.54181  1.0000
  H   H1254     1.0  0.47019  0.53561  0.53252  1.0000
  C   C710      1.0  0.21479  0.58838  0.65718  1.0000
  C   C711      1.0  0.19839  0.59940  0.66130  1.0000
  H   H1255     1.0  0.45496  0.53329  0.57039  1.0000
  C   C712      1.0  0.24286  0.56903  0.73610  1.0000
  H   H1256     1.0  0.17409  0.55963  0.60720  1.0000
  H   H1257     1.0  0.02638  0.50832  0.89017  1.0000
  H   H1258     1.0  0.20183  0.40870  0.99780  1.0000
  H   H1259     1.0  0.20403  0.57704  0.58027  1.0000
  Fe  Fe85      1.0  0.28669  0.41375  0.83546  1.0000
  H   H1260     1.0  0.17854  0.55544  0.57833  1.0000
  H   H1261     1.0  0.45833  0.41592  0.94782  1.0000
  C   C713      1.0  0.37347  0.57948  0.68930  1.0000
  H   H1262     1.0  0.43796  0.43492  0.64684  1.0000
  H   H1263     1.0  0.37950  0.58724  0.70256  1.0000
  H   H1264     1.0  0.39158  0.58294  0.62352  1.0000
  C   C714      1.0  0.34912  0.42307  0.90427  1.0000
  H   H1265     1.0  0.26176  0.41405  0.76231  1.0000
  C   C715      1.0  0.25054  0.57293  0.75844  1.0000
  C   C716      1.0  0.01848  0.57868  0.68901  1.0000
  H   H1266     1.0  0.04505  0.58175  0.70286  1.0000
  C   C717      1.0  0.45997  0.58504  0.51083  1.0000
  H   H1267     1.0  0.23942  0.57229  0.77143  1.0000
  C   C718      1.0  0.03364  0.59112  0.69630  1.0000
  H   H1268     1.0  0.38059  0.43394  0.94234  1.0000
  C   C719      1.0  0.22510  0.42165  0.92515  1.0000
  H   H1269     1.0  0.06418  0.41034  0.86277  1.0000
  C   C720      1.0  0.49271  0.49480  0.51651  1.0000
  H   H1270     1.0  0.05247  0.41235  0.71761  1.0000
  H   H1271     1.0  0.43809  0.40393  0.57468  1.0000
  H   H1272     1.0  0.23885  0.40770  0.77179  1.0000
  C   C721      1.0  0.18666  0.40693  0.99629  1.0000
  C   C722      1.0  0.35684  0.40742  0.74461  1.0000
  H   H1273     1.0  0.33591  0.59776  0.84680  1.0000
  H   H1274     1.0  0.21238  0.60297  0.51424  1.0000
  Fe  Fe86      1.0  0.07285  0.78244  0.29258  1.0000
  S   S171      1.0  0.10371  0.77831  0.28540  1.0000
  S   S172      1.0  0.05133  0.76990  0.27119  1.0000
  H   H1275     1.0  0.35664  0.61936  0.42030  1.0000
  H   H1276     1.0  0.40564  0.62906  0.46813  1.0000
  H   H1277     1.0  0.12783  0.64051  0.44913  1.0000
  Fe  Fe87      1.0  0.10567  0.76842  0.32092  1.0000
  S   S173      1.0  0.12516  0.74244  0.32759  1.0000
  S   S174      1.0  0.07474  0.77097  0.32731  1.0000
  H   H1278     1.0  0.46145  0.62582  0.22888  1.0000
  Fe  Fe88      1.0  0.46535  0.63272  0.02549  1.0000
  C   C723      1.0  0.07087  0.63003  0.45299  1.0000
  S   S175      1.0  0.47359  0.64712  0.05630  1.0000
  H   H1279     1.0  0.07924  0.68464  0.46734  1.0000
  C   C724      1.0  0.02958  0.74839  0.33255  1.0000
  H   H1280     1.0  0.48143  0.63995  0.22332  1.0000
  C   C725      1.0  0.32204  0.64593  0.26710  1.0000
  Fe  Fe89      1.0  0.43476  0.67444  0.17551  1.0000
  S   S176      1.0  0.41013  0.68791  0.19328  1.0000
  S   S177      1.0  0.42607  0.66022  0.14482  1.0000
  Fe  Fe90      1.0  0.46122  0.68665  0.21025  1.0000
  S   S178      1.0  0.43794  0.70147  0.22936  1.0000
  S   S179      1.0  0.49175  0.68067  0.21948  1.0000
  Fe  Fe91      1.0  0.42184  0.67568  0.22445  1.0000
  S   S180      1.0  0.40590  0.66337  0.25458  1.0000
  Fe  Fe92      1.0  0.42791  0.71260  0.19641  1.0000
  S   S181      1.0  0.41085  0.73972  0.18756  1.0000
  S   S182      1.0  0.44538  0.66053  0.20659  1.0000
  S   S183      1.0  0.45224  0.69939  0.17745  1.0000
  H   H1281     1.0  0.35437  0.65218  0.24582  1.0000
  S   S184      1.0  0.14880  0.62454  0.41118  1.0000
  H   H1282     1.0  0.15574  0.70670  0.37967  1.0000
  H   H1283     1.0  0.46760  0.75015  0.14749  1.0000
  C   C726      1.0  0.35808  0.61098  0.38703  1.0000
  Fe  Fe93      1.0  0.12788  0.63420  0.38582  1.0000
  S   S185      1.0  0.11799  0.66545  0.38401  1.0000
  S   S186      1.0  0.10640  0.61443  0.39907  1.0000
  H   H1284     1.0  0.37345  0.71065  0.13620  1.0000
  H   H1285     1.0  0.11070  0.68041  0.45596  1.0000
  C   C727      1.0  0.36640  0.61455  0.26696  1.0000
  C   C728      1.0  0.37573  0.61698  0.24650  1.0000
  C   C729      1.0  0.38846  0.63124  0.24269  1.0000
  C   C730      1.0  0.39169  0.64370  0.25913  1.0000
  C   C731      1.0  0.38274  0.64100  0.27977  1.0000
  C   C732      1.0  0.37031  0.62647  0.28373  1.0000
  C   C733      1.0  0.07731  0.65239  0.49866  1.0000
  H   H1286     1.0  0.39545  0.63280  0.22687  1.0000
  H   H1287     1.0  0.38517  0.65040  0.29273  1.0000
  H   H1288     1.0  0.36333  0.62483  0.29957  1.0000
  C   C734      1.0  0.46010  0.65076  0.08069  1.0000
  C   C735      1.0  0.44130  0.64676  0.08239  1.0000
  C   C736      1.0  0.43109  0.64976  0.10212  1.0000
  C   C737      1.0  0.43951  0.65703  0.12027  1.0000
  C   C738      1.0  0.45826  0.66135  0.11845  1.0000
  C   C739      1.0  0.46851  0.65815  0.09878  1.0000
  H   H1289     1.0  0.43462  0.64161  0.06836  1.0000
  H   H1290     1.0  0.41656  0.64652  0.10330  1.0000
  H   H1291     1.0  0.46490  0.66696  0.13227  1.0000
  H   H1292     1.0  0.48302  0.66144  0.09755  1.0000
  H   H1293     1.0  0.47258  0.66150  0.25450  1.0000
  C   C740      1.0  0.40008  0.77514  0.17199  1.0000
  C   C741      1.0  0.41528  0.76280  0.17719  1.0000
  C   C742      1.0  0.43329  0.76913  0.17386  1.0000
  H   H1294     1.0  0.39305  0.64519  0.18843  1.0000
  H   H1295     1.0  0.38607  0.77051  0.17452  1.0000
  H   H1296     1.0  0.44514  0.75998  0.17794  1.0000
  H   H1297     1.0  0.48654  0.74109  0.13042  1.0000
  C   C743      1.0  0.03023  0.78016  0.26094  1.0000
  C   C744      1.0  0.05091  0.76464  0.20229  1.0000
  H   H1298     1.0  0.38301  0.71865  0.16114  1.0000
  S   S187      1.0  0.13954  0.61380  0.36088  1.0000
  C   C745      1.0  0.41923  0.76713  0.11365  1.0000
  C   C746      1.0  0.44376  0.70042  0.06385  1.0000
  C   C747      1.0  0.12140  0.72077  0.34223  1.0000
  C   C748      1.0  0.13175  0.70455  0.33591  1.0000
  C   C749      1.0  0.13026  0.68740  0.34781  1.0000
  C   C750      1.0  0.11892  0.68625  0.36682  1.0000
  C   C751      1.0  0.10856  0.70247  0.37314  1.0000
  C   C752      1.0  0.10961  0.71952  0.36086  1.0000
  H   H1299     1.0  0.14089  0.70523  0.32154  1.0000
  H   H1300     1.0  0.13794  0.67512  0.34229  1.0000
  H   H1301     1.0  0.09969  0.70190  0.38774  1.0000
  H   H1302     1.0  0.10166  0.73181  0.36616  1.0000
  H   H1303     1.0  0.14439  0.69290  0.40101  1.0000
  H   H1304     1.0  0.43748  0.63552  0.43450  1.0000
  C   C753      1.0  0.36626  0.66821  0.20899  1.0000
  H   H1305     1.0  0.32531  0.71476  0.16526  1.0000
  C   C754      1.0  0.02257  0.77865  0.18291  1.0000
  H   H1306     1.0  0.19929  0.77991  0.31821  1.0000
  C   C755      1.0  0.32177  0.70328  0.17710  1.0000
  H   H1307     1.0  0.14222  0.76598  0.36623  1.0000
  C   C756      1.0  0.43598  0.78745  0.16544  1.0000
  H   H1308     1.0  0.02596  0.78376  0.34921  1.0000
  H   H1309     1.0  0.16839  0.78751  0.36006  1.0000
  H   H1310     1.0  0.45097  0.71928  0.27922  1.0000
  H   H1311     1.0  0.05757  0.77829  0.20087  1.0000
  H   H1312     1.0  0.31341  0.66711  0.24361  1.0000
  H   H1313     1.0  0.44300  0.70793  0.30434  1.0000
  H   H1314     1.0  0.14562  0.67865  0.44910  1.0000
  C   C757      1.0  0.40232  0.62007  0.43464  1.0000
  C   C758      1.0  0.06770  0.61456  0.43715  1.0000
  C   C759      1.0  0.01581  0.76855  0.25599  1.0000
  C   C760      1.0  0.40277  0.79348  0.16364  1.0000
  C   C761      1.0  0.44541  0.70620  0.28646  1.0000
  H   H1315     1.0  0.43115  0.69271  0.06065  1.0000
  H   H1316     1.0  0.43192  0.70389  0.27883  1.0000
  H   H1317     1.0  0.40482  0.63016  0.04974  1.0000
  C   C762      1.0  0.00647  0.61474  0.24588  1.0000
  C   C763      1.0  0.03775  0.76253  0.18345  1.0000
  H   H1318     1.0  0.35118  0.65487  0.18320  1.0000
  H   H1319     1.0  0.37828  0.63586  0.16865  1.0000
  H   H1320     1.0  0.32787  0.67098  0.19970  1.0000
  C   C764      1.0  0.33845  0.69823  0.19141  1.0000
  H   H1321     1.0  0.03940  0.75062  0.34579  1.0000
  H   H1322     1.0  0.20879  0.61833  0.42123  1.0000
  H   H1323     1.0  0.07310  0.62308  0.46928  1.0000
  H   H1324     1.0  0.43161  0.78651  0.08971  1.0000
  H   H1325     1.0  0.41337  0.71062  0.09114  1.0000
  H   H1326     1.0  0.31809  0.69107  0.16769  1.0000
  H   H1327     1.0  0.48725  0.70957  0.25267  1.0000
  C   C765      1.0  0.45916  0.73531  0.11914  1.0000
  H   H1328     1.0  0.01750  0.75368  0.25938  1.0000
  H   H1329     1.0  0.32220  0.68837  0.21884  1.0000
  C   C766      1.0  0.37520  0.60605  0.45430  1.0000
  H   H1330     1.0  0.41447  0.70664  0.14938  1.0000
  H   H1331     1.0  0.03005  0.79155  0.17883  1.0000
  C   C767      1.0  0.41456  0.62420  0.45415  1.0000
  H   H1332     1.0  0.10407  0.66199  0.49043  1.0000
  H   H1333     1.0  0.15894  0.71133  0.40805  1.0000
  C   C768      1.0  0.01449  0.78070  0.33826  1.0000
  H   H1334     1.0  0.30952  0.70808  0.18730  1.0000
  H   H1335     1.0  0.41973  0.65278  0.44307  1.0000
  N   N39       1.0  0.09175  0.65781  0.45907  1.0000
  C   C769      1.0  0.38467  0.70816  0.14818  1.0000
  H   H1336     1.0  0.38462  0.69430  0.23044  1.0000
  H   H1337     1.0  0.34291  0.69890  0.24293  1.0000
  C   C770      1.0  0.41834  0.78496  0.09923  1.0000
  H   H1338     1.0  0.40523  0.69761  0.12514  1.0000
  S   S188      1.0  0.43796  0.63472  0.00881  1.0000
  H   H1339     1.0  0.39645  0.60917  0.03910  1.0000
  C   C771      1.0  0.45939  0.68991  0.28226  1.0000
  H   H1340     1.0  0.06539  0.64561  0.49187  1.0000
  C   C772      1.0  0.34275  0.65874  0.23624  1.0000
  C   C773      1.0  0.14447  0.66425  0.44335  1.0000
  H   H1341     1.0  0.14675  0.76635  0.29194  1.0000
  H   H1342     1.0  0.22013  0.63831  0.43108  1.0000
  H   H1343     1.0  0.45891  0.74822  0.10870  1.0000
  H   H1344     1.0  0.14280  0.66477  0.42534  1.0000
  C   C774      1.0  0.47600  0.62807  0.23332  1.0000
  C   C775      1.0  0.36329  0.65184  0.19374  1.0000
  H   H1345     1.0  0.38471  0.72719  0.23964  1.0000
  H   H1346     1.0  0.14724  0.77722  0.32817  1.0000
  H   H1347     1.0  0.37562  0.71345  0.26241  1.0000
  C   C776      1.0  0.38038  0.64814  0.17871  1.0000
  H   H1348     1.0  0.08730  0.64491  0.42817  1.0000
  H   H1349     1.0  0.46240  0.68952  0.26442  1.0000
  H   H1350     1.0  0.43582  0.74032  0.14203  1.0000
  H   H1351     1.0  0.36029  0.68302  0.25366  1.0000
  H   H1352     1.0  0.16072  0.78083  0.24669  1.0000
  N   N40       1.0  0.42414  0.73108  0.11223  1.0000
  H   H1353     1.0  0.36106  0.62156  0.49308  1.0000
  H   H1354     1.0  0.47239  0.69300  0.29043  1.0000
  N   N41       1.0  0.19022  0.65894  0.37552  1.0000
  C   C777      1.0  0.18527  0.64336  0.36110  1.0000
  C   C778      1.0  0.19719  0.65047  0.39689  1.0000
  C   C779      1.0  0.17250  0.67040  0.38064  1.0000
  C   C780      1.0  0.20433  0.67153  0.36469  1.0000
  C   C781      1.0  0.21887  0.66246  0.34841  1.0000
  C   C782      1.0  0.17469  0.64959  0.34013  1.0000
  C   C783      1.0  0.17421  0.68641  0.39686  1.0000
  C   C784      1.0  0.21596  0.63902  0.39579  1.0000
  C   C785      1.0  0.21973  0.62848  0.41748  1.0000
  C   C786      1.0  0.23398  0.67594  0.34166  1.0000
  C   C787      1.0  0.17667  0.63503  0.32245  1.0000
  C   C788      1.0  0.15728  0.70013  0.39629  1.0000
  H   H1355     1.0  0.17639  0.63336  0.37043  1.0000
  H   H1356     1.0  0.19778  0.63478  0.35621  1.0000
  H   H1357     1.0  0.19938  0.66143  0.40879  1.0000
  H   H1358     1.0  0.18648  0.64141  0.40463  1.0000
  H   H1359     1.0  0.16141  0.66125  0.38731  1.0000
  H   H1360     1.0  0.16685  0.67704  0.36537  1.0000
  H   H1361     1.0  0.19721  0.68320  0.35521  1.0000
  H   H1362     1.0  0.21210  0.67842  0.37742  1.0000
  H   H1363     1.0  0.21206  0.65865  0.33325  1.0000
  H   H1364     1.0  0.22586  0.64963  0.35533  1.0000
  H   H1365     1.0  0.15965  0.65150  0.34445  1.0000
  H   H1366     1.0  0.17955  0.66298  0.33301  1.0000
  H   H1367     1.0  0.18673  0.69446  0.39299  1.0000
  H   H1368     1.0  0.17510  0.68063  0.41390  1.0000
  H   H1369     1.0  0.21628  0.62858  0.38295  1.0000
  H   H1370     1.0  0.22756  0.64848  0.39246  1.0000
  C   C789      1.0  0.15277  0.77752  0.28134  1.0000
  C   C790      1.0  0.00897  0.77905  0.10331  1.0000
  H   H1371     1.0  0.22775  0.68888  0.33385  1.0000
  H   H1372     1.0  0.24188  0.67957  0.35613  1.0000
  H   H1373     1.0  0.24389  0.66922  0.32968  1.0000
  H   H1374     1.0  0.17139  0.62152  0.32873  1.0000
  H   H1375     1.0  0.16838  0.63983  0.30812  1.0000
  H   H1376     1.0  0.19146  0.63295  0.31694  1.0000
  C   C791      1.0  0.42771  0.63978  0.44806  1.0000
  H   H1377     1.0  0.38272  0.66033  0.16745  1.0000
  H   H1378     1.0  0.14150  0.76605  0.25248  1.0000
  H   H1379     1.0  0.43605  0.64268  0.46247  1.0000
  C   C792      1.0  0.16905  0.77392  0.35205  1.0000
  H   H1380     1.0  0.15780  0.74653  0.35886  1.0000
  H   H1381     1.0  0.06284  0.66751  0.46371  1.0000
  H   H1382     1.0  0.46610  0.62579  0.30173  1.0000
  C   C793      1.0  0.17158  0.78362  0.28994  1.0000
  H   H1383     1.0  0.40412  0.73892  0.13806  1.0000
  C   C794      1.0  0.47256  0.73814  0.13754  1.0000
  H   H1384     1.0  0.01383  0.76390  0.30831  1.0000
  C   C795      1.0  0.08812  0.64104  0.44590  1.0000
  H   H1385     1.0  0.35023  0.69406  0.18024  1.0000
  H   H1386     1.0  0.17637  0.79461  0.27810  1.0000
  H   H1387     1.0  0.40663  0.78485  0.08782  1.0000
  H   H1388     1.0  0.45112  0.70339  0.04795  1.0000
  H   H1389     1.0  0.37780  0.66370  0.21994  1.0000
  H   H1390     1.0  0.22928  0.79722  0.31300  1.0000
  C   C796      1.0  0.15521  0.77002  0.25827  1.0000
  H   H1391     1.0  0.05412  0.70087  0.41682  1.0000
  H   H1392     1.0  0.44998  0.79214  0.16299  1.0000
  C   C797      1.0  0.43957  0.73079  0.12843  1.0000
  H   H1393     1.0  0.44123  0.71676  0.13654  1.0000
  C   C798      1.0  0.37288  0.71874  0.24545  1.0000
  C   C799      1.0  0.50023  0.70170  0.25531  1.0000
  C   C800      1.0  0.40605  0.72851  0.12500  1.0000
  H   H1394     1.0  0.32925  0.67450  0.26352  1.0000
  C   C801      1.0  0.19096  0.79339  0.31905  1.0000
  C   C802      1.0  0.02343  0.76697  0.32143  1.0000
  H   H1395     1.0  0.37187  0.67961  0.19854  1.0000
  C   C803      1.0  0.02789  0.79933  0.25642  1.0000
  C   C804      1.0  0.35520  0.68977  0.23807  1.0000
  C   C805      1.0  0.10939  0.66610  0.44981  1.0000
  N   N42       1.0  0.34959  0.67511  0.22256  1.0000
  H   H1396     1.0  0.31936  0.63379  0.25702  1.0000
  H   H1397     1.0  0.10890  0.66768  0.43164  1.0000
  H   H1398     1.0  0.36110  0.63877  0.20352  1.0000
  H   H1399     1.0  0.35998  0.72789  0.24547  1.0000
  N   N43       1.0  0.00546  0.79851  0.32877  1.0000
  H   H1400     1.0  0.13067  0.65429  0.47256  1.0000
  C   C806      1.0  0.43854  0.71867  0.07520  1.0000
  H   H1401     1.0  0.30952  0.64896  0.27771  1.0000
  H   H1402     1.0  0.41608  0.79726  0.10973  1.0000
  H   H1403     1.0  0.39325  0.63287  0.43188  1.0000
  C   C807      1.0  0.07623  0.67265  0.45709  1.0000
  H   H1404     1.0  0.41029  0.74932  0.08836  1.0000
  C   C808      1.0  0.42078  0.79983  0.16031  1.0000
  H   H1405     1.0  0.45154  0.72572  0.07793  1.0000
  H   H1406     1.0  0.16483  0.75744  0.25828  1.0000
  H   H1407     1.0  0.43449  0.75194  0.08876  1.0000
  H   H1408     1.0  0.43345  0.70256  0.10543  1.0000
  H   H1409     1.0  0.49232  0.64371  0.29462  1.0000
  C   C809      1.0  0.16271  0.77557  0.32796  1.0000
  C   C810      1.0  0.40383  0.70917  0.13675  1.0000
  H   H1410     1.0  0.04624  0.76266  0.16798  1.0000
  H   H1411     1.0  0.43089  0.76824  0.12491  1.0000
  H   H1412     1.0  0.08482  0.68723  0.42614  1.0000
  H   H1413     1.0  0.41654  0.61126  0.30115  1.0000
  H   H1414     1.0  0.40600  0.76688  0.12343  1.0000
  H   H1415     1.0  0.02311  0.78913  0.14066  1.0000
  H   H1416     1.0  0.05996  0.70728  0.44393  1.0000
  H   H1417     1.0  0.10199  0.63821  0.48416  1.0000
  C   C811      1.0  0.13831  0.61613  0.49408  1.0000
  H   H1418     1.0  0.34911  0.62293  0.38089  1.0000
  H   H1419     1.0  0.43012  0.72769  0.06370  1.0000
  H   H1420     1.0  0.36932  0.70839  0.21344  1.0000
  H   H1421     1.0  0.06842  0.66940  0.42278  1.0000
  H   H1422     1.0  0.46505  0.72344  0.10957  1.0000
  C   C812      1.0  0.12796  0.65497  0.45478  1.0000
  C   C813      1.0  0.32625  0.66308  0.25258  1.0000
  C   C814      1.0  0.01486  0.77659  0.14418  1.0000
  H   H1423     1.0  0.38324  0.69408  0.15592  1.0000
  H   H1424     1.0  0.15754  0.65603  0.44706  1.0000
  H   H1425     1.0  0.16193  0.75952  0.38284  1.0000
  C   C815      1.0  0.42217  0.74953  0.09963  1.0000
  C   C816      1.0  0.42703  0.71509  0.09672  1.0000
  H   H1426     1.0  0.44003  0.60331  0.30722  1.0000
  C   C817      1.0  0.07243  0.68056  0.43357  1.0000
  H   H1427     1.0  0.39403  0.73102  0.11401  1.0000
  H   H1428     1.0  0.03681  0.73931  0.32028  1.0000
  H   H1429     1.0  0.37006  0.62093  0.45414  1.0000
  N   N44       1.0  0.46425  0.65403  0.28781  1.0000
  C   C818      1.0  0.45604  0.63805  0.30088  1.0000
  C   C819      1.0  0.48356  0.65685  0.29569  1.0000
  C   C820      1.0  0.45160  0.67121  0.29084  1.0000
  C   C821      1.0  0.46569  0.65002  0.26372  1.0000
  C   C822      1.0  0.47693  0.63178  0.25770  1.0000
  C   C823      1.0  0.43724  0.63148  0.29276  1.0000
  C   C824      1.0  0.33387  0.68253  0.20844  1.0000
  H   H1430     1.0  0.49084  0.66706  0.28469  1.0000
  H   H1431     1.0  0.37508  0.62925  0.40372  1.0000
  H   H1432     1.0  0.45351  0.64194  0.31823  1.0000
  H   H1433     1.0  0.01734  0.74115  0.33953  1.0000
  H   H1434     1.0  0.43870  0.62634  0.27585  1.0000
  H   H1435     1.0  0.01690  0.78061  0.19991  1.0000
  H   H1436     1.0  0.44740  0.67274  0.30840  1.0000
  H   H1437     1.0  0.43832  0.66980  0.28229  1.0000
  H   H1438     1.0  0.45162  0.64986  0.25663  1.0000
  H   H1439     1.0  0.03596  0.77299  0.31371  1.0000
  H   H1440     1.0  0.06554  0.62045  0.42032  1.0000
  H   H1441     1.0  0.42642  0.64302  0.29296  1.0000
  H   H1442     1.0  0.00416  0.77300  0.34861  1.0000
  H   H1443     1.0  0.34168  0.71105  0.19986  1.0000
  C   C825      1.0  0.37115  0.70251  0.23024  1.0000
  H   H1444     1.0  0.47393  0.72541  0.14831  1.0000
  H   H1445     1.0  0.48055  0.65146  0.33123  1.0000
  H   H1446     1.0  0.07270  0.66704  0.50207  1.0000
  C   C826      1.0  0.05649  0.69543  0.43380  1.0000
  H   H1447     1.0  0.10007  0.63080  0.44667  1.0000
  C   C827      1.0  0.15700  0.76067  0.36578  1.0000
  H   H1448     1.0  0.33389  0.64213  0.27783  1.0000
  H   H1449     1.0  0.06201  0.75334  0.20199  1.0000
  H   H1450     1.0  0.33800  0.64767  0.22571  1.0000
  H   H1451     1.0  0.45322  0.69142  0.07417  1.0000
  C   C828      1.0  0.12426  0.60437  0.48856  1.0000
  H   H1452     1.0  0.04343  0.68942  0.44036  1.0000
  N   N45       1.0  0.17112  0.79048  0.31308  1.0000
  H   H1453     1.0  0.04322  0.76360  0.21831  1.0000
  H   H1454     1.0  0.14250  0.78951  0.28050  1.0000
  H   H1455     1.0  0.03169  0.74867  0.18567  1.0000
  H   H1456     1.0  0.18183  0.77153  0.28838  1.0000
  C   C829      1.0  0.48472  0.66292  0.31972  1.0000
  H   H1457     1.0  0.22860  0.60493  0.31825  1.0000
  H   H1458     1.0  0.16597  0.76141  0.32143  1.0000
  C   C830      1.0  0.09470  0.65226  0.48291  1.0000
  C   C831      1.0  0.36771  0.61628  0.40772  1.0000
  H   H1459     1.0  0.05804  0.63920  0.45357  1.0000
  H   H1460     1.0  0.18366  0.76817  0.35253  1.0000
  H   H1461     1.0  0.14715  0.62196  0.48124  1.0000
  H   H1462     1.0  0.47562  0.67545  0.32308  1.0000
  H   H1463     1.0  0.02493  0.76450  0.14200  1.0000
  C   C832      1.0  0.42999  0.61556  0.30737  1.0000
  S   S189      1.0  0.11040  0.79752  0.33252  1.0000
  H   H1464     1.0  0.23336  0.62056  0.41623  1.0000
  H   H1465     1.0  0.42335  0.61188  0.45948  1.0000
  H   H1466     1.0  0.38942  0.61614  0.06646  1.0000
  H   H1467     1.0  0.37297  0.60781  0.23342  1.0000
  H   H1468     1.0  0.49185  0.63284  0.26138  1.0000
  H   H1469     1.0  0.02102  0.61843  0.24182  1.0000
  H   H1470     1.0  0.41145  0.61912  0.41964  1.0000
  Fe  Fe94      1.0  0.12796  0.60408  0.42363  1.0000
  C   C833      1.0  0.40108  0.61564  0.05413  1.0000
  H   H1471     1.0  0.19175  0.79763  0.33626  1.0000
  H   H1472     1.0  0.47156  0.61943  0.26675  1.0000
  C   C834      1.0  0.36337  0.60615  0.49387  1.0000
  N   N46       1.0  0.00698  0.77663  0.16732  1.0000
  H   H1473     1.0  0.48182  0.60921  0.07123  1.0000
  H   H1474     1.0  0.01379  0.79353  0.10188  1.0000
  H   H1475     1.0  0.42758  0.62012  0.32446  1.0000
  H   H1476     1.0  0.00383  0.75215  0.20652  1.0000
  Fe  Fe95      1.0  0.07918  0.80060  0.33632  1.0000
  H   H1477     1.0  0.42210  0.61197  0.07801  1.0000
  H   H1478     1.0  0.36844  0.60709  0.37390  1.0000
  H   H1479     1.0  0.48468  0.61533  0.22943  1.0000
  H   H1480     1.0  0.43804  0.61114  0.12650  1.0000
  H   H1481     1.0  0.39234  0.60564  0.48407  1.0000
  H   H1482     1.0  0.05516  0.60702  0.44255  1.0000
  H   H1483     1.0  0.02690  0.80170  0.30346  1.0000
  H   H1484     1.0  0.42950  0.60541  0.05085  1.0000
  C   C835      1.0  0.41801  0.60471  0.06335  1.0000
  H   H1485     1.0  0.07981  0.60433  0.43693  1.0000
  H   H1486     1.0  0.02087  0.76902  0.09991  1.0000
  H   H1487     1.0  0.00594  0.74648  0.16613  1.0000
  H   H1488     1.0  0.19875  0.60356  0.33975  1.0000
  N   N47       1.0  0.39068  0.60316  0.43720  1.0000
  H   H1489     1.0  0.39092  0.80273  0.15980  1.0000
  Fe  Fe96      1.0  0.06912  0.79238  0.72737  1.0000
  S   S190      1.0  0.10017  0.78669  0.72972  1.0000
  C   C836      1.0  0.12998  0.61265  0.53359  1.0000
  H   H1490     1.0  0.37018  0.64510  0.65875  1.0000
  Fe  Fe97      1.0  0.09842  0.77323  0.69679  1.0000
  S   S191      1.0  0.11438  0.74544  0.68867  1.0000
  S   S192      1.0  0.06736  0.77732  0.69592  1.0000
  S   S193      1.0  0.44762  0.66462  0.95434  1.0000
  C   C837      1.0  0.08322  0.77253  0.62894  1.0000
  Fe  Fe98      1.0  0.41090  0.72543  0.81085  1.0000
  S   S194      1.0  0.43899  0.71126  0.81820  1.0000
  S   S195      1.0  0.40132  0.75644  0.81466  1.0000
  Fe  Fe99      1.0  0.39698  0.69026  0.78838  1.0000
  S   S196      1.0  0.42389  0.67423  0.79439  1.0000
  S   S197      1.0  0.37112  0.67953  0.77209  1.0000
  Fe  Fe100     1.0  0.42245  0.68616  0.82805  1.0000
  S   S198      1.0  0.42884  0.66277  0.85326  1.0000
  Fe  Fe101     1.0  0.43858  0.70021  0.78417  1.0000
  S   S199      1.0  0.46205  0.69730  0.75816  1.0000
  S   S200      1.0  0.39440  0.70080  0.82285  1.0000
  S   S201      1.0  0.41159  0.71579  0.77592  1.0000
  Fe  Fe102     1.0  0.11608  0.63760  0.64091  1.0000
  S   S202      1.0  0.14223  0.63286  0.61993  1.0000
  S   S203      1.0  0.09962  0.66462  0.65150  1.0000
  H   H1491     1.0  0.37597  0.63118  0.80143  1.0000
  C   C838      1.0  0.19315  0.60694  0.54222  1.0000
  H   H1492     1.0  0.45649  0.64550  0.80258  1.0000
  H   H1493     1.0  0.03422  0.66117  0.72639  1.0000
  S   S204      1.0  0.09950  0.62070  0.61851  1.0000
  H   H1494     1.0  0.49907  0.67010  0.88150  1.0000
  C   C839      1.0  0.04018  0.73754  0.80831  1.0000
  H   H1495     1.0  0.03574  0.68086  0.70735  1.0000
  H   H1496     1.0  0.39437  0.64090  0.66412  1.0000
  H   H1497     1.0  0.09386  0.64861  0.52807  1.0000
  H   H1498     1.0  0.38171  0.61495  0.74619  1.0000
  H   H1499     1.0  0.45877  0.62574  0.53506  1.0000
  H   H1500     1.0  0.48748  0.64461  0.83344  1.0000
  H   H1501     1.0  0.49519  0.76354  0.75441  1.0000
  H   H1502     1.0  0.49551  0.62086  0.90103  1.0000
  N   N48       1.0  0.37083  0.64195  0.83398  1.0000
  H   H1503     1.0  0.46908  0.72818  0.84765  1.0000
  H   H1504     1.0  0.13197  0.75898  0.62827  1.0000
  C   C840      1.0  0.35345  0.62515  0.74102  1.0000
  C   C841      1.0  0.34101  0.64066  0.74295  1.0000
  C   C842      1.0  0.34683  0.65729  0.75185  1.0000
  C   C843      1.0  0.36513  0.65872  0.75908  1.0000
  C   C844      1.0  0.37769  0.64339  0.75656  1.0000
  C   C845      1.0  0.37187  0.62674  0.74774  1.0000
  S   S205      1.0  0.48154  0.63972  0.99442  1.0000
  H   H1505     1.0  0.33697  0.66906  0.75347  1.0000
  H   H1506     1.0  0.39187  0.64436  0.76154  1.0000
  C   C846      1.0  0.47600  0.68928  0.84877  1.0000
  C   C847      1.0  0.44267  0.66383  0.92616  1.0000
  C   C848      1.0  0.43895  0.68065  0.91424  1.0000
  C   C849      1.0  0.43472  0.68064  0.89187  1.0000
  C   C850      1.0  0.43426  0.66376  0.88123  1.0000
  C   C851      1.0  0.43816  0.64696  0.89306  1.0000
  C   C852      1.0  0.44230  0.64697  0.91544  1.0000
  H   H1507     1.0  0.43914  0.69375  0.92245  1.0000
  H   H1508     1.0  0.43158  0.69364  0.88300  1.0000
  H   H1509     1.0  0.43782  0.63383  0.88495  1.0000
  H   H1510     1.0  0.44511  0.63394  0.92443  1.0000
  C   C853      1.0  0.41109  0.78596  0.86938  1.0000
  C   C854      1.0  0.41063  0.77129  0.85456  1.0000
  C   C855      1.0  0.40236  0.77434  0.83423  1.0000
  C   C856      1.0  0.39462  0.79234  0.82902  1.0000
  H   H1511     1.0  0.17431  0.65606  0.60661  1.0000
  H   H1512     1.0  0.41754  0.78336  0.88502  1.0000
  H   H1513     1.0  0.41663  0.75760  0.85890  1.0000
  H   H1514     1.0  0.38827  0.79493  0.81333  1.0000
  C   C857      1.0  0.02763  0.78540  0.76290  1.0000
  H   H1515     1.0  0.05579  0.66190  0.63744  1.0000
  H   H1516     1.0  0.38939  0.61404  0.68698  1.0000
  C   C858      1.0  0.01634  0.78142  0.74558  1.0000
  H   H1517     1.0  0.10985  0.70786  0.61806  1.0000
  C   C859      1.0  0.10183  0.73739  0.61673  1.0000
  C   C860      1.0  0.10987  0.72312  0.67814  1.0000
  C   C861      1.0  0.09222  0.71847  0.67170  1.0000
  C   C862      1.0  0.08940  0.70057  0.66371  1.0000
  C   C863      1.0  0.10421  0.68705  0.66168  1.0000
  C   C864      1.0  0.12191  0.69177  0.66790  1.0000
  C   C865      1.0  0.12466  0.70961  0.67611  1.0000
  H   H1518     1.0  0.08078  0.72871  0.67267  1.0000
  H   H1519     1.0  0.07566  0.69722  0.65884  1.0000
  H   H1520     1.0  0.13348  0.68164  0.66649  1.0000
  H   H1521     1.0  0.13843  0.71296  0.68093  1.0000
  H   H1522     1.0  0.47903  0.69802  0.88287  1.0000
  C   C866      1.0  0.48669  0.69756  0.75935  1.0000
  H   H1523     1.0  0.04177  0.65989  0.67669  1.0000
  H   H1524     1.0  0.45280  0.71745  0.86684  1.0000
  H   H1525     1.0  0.49500  0.70844  0.86333  1.0000
  H   H1526     1.0  0.47087  0.73121  0.87665  1.0000
  H   H1527     1.0  0.03039  0.74104  0.77584  1.0000
  H   H1528     1.0  0.08511  0.62738  0.51808  1.0000
  N   N49       1.0  0.05246  0.61965  0.68305  1.0000
  H   H1529     1.0  0.10509  0.60516  0.70779  1.0000
  H   H1530     1.0  0.02891  0.60855  0.66738  1.0000
  H   H1531     1.0  0.12546  0.72188  0.60175  1.0000
  H   H1532     1.0  0.34282  0.63297  0.65442  1.0000
  N   N50       1.0  0.37538  0.60526  0.65840  1.0000
  H   H1533     1.0  0.48697  0.62789  0.60531  1.0000
  H   H1534     1.0  0.18083  0.61630  0.54588  1.0000
  H   H1535     1.0  0.10883  0.77902  0.56598  1.0000
  H   H1536     1.0  0.31032  0.76990  0.83290  1.0000
  H   H1537     1.0  0.11042  0.80203  0.57673  1.0000
  H   H1538     1.0  0.02524  0.63264  0.69087  1.0000
  C   C867      1.0  0.49574  0.70316  0.77782  1.0000
  C   C868      1.0  0.49130  0.64192  0.87502  1.0000
  H   H1539     1.0  0.02228  0.78071  0.72914  1.0000
  H   H1540     1.0  0.31913  0.78375  0.81006  1.0000
  Fe  Fe103     1.0  0.45439  0.63958  0.97721  1.0000
  C   C869      1.0  0.03999  0.63330  0.69575  1.0000
  C   C870      1.0  0.03213  0.66600  0.70913  1.0000
  H   H1541     1.0  0.33274  0.63708  0.81965  1.0000
  C   C871      1.0  0.34088  0.64824  0.81150  1.0000
  H   H1542     1.0  0.06285  0.60454  0.71189  1.0000
  C   C872      1.0  0.11058  0.71992  0.60622  1.0000
  N   N51       1.0  0.09693  0.77349  0.60975  1.0000
  H   H1543     1.0  0.33464  0.77490  0.83120  1.0000
  H   H1544     1.0  0.48422  0.63281  0.64526  1.0000
  H   H1545     1.0  0.36241  0.67081  0.86749  1.0000
  H   H1546     1.0  0.11712  0.76922  0.64950  1.0000
  H   H1547     1.0  0.04960  0.77277  0.65454  1.0000
  H   H1548     1.0  0.02822  0.78932  0.79770  1.0000
  H   H1549     1.0  0.12408  0.78458  0.60270  1.0000
  H   H1550     1.0  0.09216  0.75140  0.58738  1.0000
  C   C873      1.0  0.38214  0.65145  0.85041  1.0000
  H   H1551     1.0  0.39378  0.64191  0.85614  1.0000
  N   N52       1.0  0.06523  0.72951  0.75122  1.0000
  C   C874      1.0  0.08296  0.73806  0.74286  1.0000
  C   C875      1.0  0.04946  0.73626  0.73675  1.0000
  C   C876      1.0  0.06090  0.73685  0.77385  1.0000
  C   C877      1.0  0.06689  0.70840  0.75269  1.0000
  C   C878      1.0  0.08050  0.69854  0.73591  1.0000
  C   C879      1.0  0.09969  0.73523  0.75838  1.0000
  C   C880      1.0  0.04155  0.73252  0.78419  1.0000
  C   C881      1.0  0.05100  0.73078  0.71251  1.0000
  C   C882      1.0  0.03450  0.73920  0.69972  1.0000
  C   C883      1.0  0.07903  0.67738  0.73732  1.0000
  C   C884      1.0  0.11842  0.73667  0.74611  1.0000
  H   H1552     1.0  0.06603  0.64425  0.61988  1.0000
  H   H1553     1.0  0.08049  0.75338  0.74012  1.0000
  H   H1554     1.0  0.08734  0.73298  0.72646  1.0000
  H   H1555     1.0  0.03607  0.73070  0.74293  1.0000
  H   H1556     1.0  0.04763  0.75178  0.73717  1.0000
  H   H1557     1.0  0.06191  0.75228  0.77368  1.0000
  H   H1558     1.0  0.07147  0.73130  0.78561  1.0000
  H   H1559     1.0  0.07164  0.70341  0.76916  1.0000
  H   H1560     1.0  0.05292  0.70256  0.75134  1.0000
  H   H1561     1.0  0.09514  0.70138  0.73926  1.0000
  H   H1562     1.0  0.07801  0.70331  0.71881  1.0000
  H   H1563     1.0  0.09867  0.74613  0.77092  1.0000
  H   H1564     1.0  0.09970  0.72145  0.76715  1.0000
  H   H1565     1.0  0.03878  0.71752  0.78299  1.0000
  C   C885      1.0  0.06825  0.61179  0.69682  1.0000
  H   H1566     1.0  0.06389  0.73580  0.70448  1.0000
  H   H1567     1.0  0.05065  0.71544  0.71128  1.0000
  H   H1568     1.0  0.03603  0.73525  0.68232  1.0000
  C   C886      1.0  0.10067  0.79137  0.57214  1.0000
  H   H1569     1.0  0.03383  0.75466  0.70030  1.0000
  H   H1570     1.0  0.08870  0.67085  0.72494  1.0000
  H   H1571     1.0  0.08288  0.67178  0.75382  1.0000
  H   H1572     1.0  0.06469  0.67355  0.73396  1.0000
  H   H1573     1.0  0.12989  0.73500  0.75786  1.0000
  H   H1574     1.0  0.12038  0.72556  0.73390  1.0000
  H   H1575     1.0  0.11936  0.75046  0.73752  1.0000
  H   H1576     1.0  0.20424  0.62697  0.51816  1.0000
  C   C887      1.0  0.34667  0.62308  0.64126  1.0000
  S   S206      1.0  0.13421  0.61851  0.56152  1.0000
  H   H1577     1.0  0.47485  0.66667  0.88062  1.0000
  C   C888      1.0  0.47961  0.65826  0.83367  1.0000
  C   C889      1.0  0.18783  0.62214  0.58855  1.0000
  H   H1578     1.0  0.02121  0.73391  0.70660  1.0000
  H   H1579     1.0  0.33416  0.67556  0.79617  1.0000
  C   C890      1.0  0.08191  0.62586  0.70495  1.0000
  C   C891      1.0  0.41112  0.61998  0.79748  1.0000
  C   C892      1.0  0.38002  0.63928  0.67099  1.0000
  H   H1580     1.0  0.48523  0.61344  0.55548  1.0000
  C   C893      1.0  0.48929  0.64699  0.64164  1.0000
  H   H1581     1.0  0.05917  0.65669  0.69672  1.0000
  H   H1582     1.0  0.07986  0.78967  0.54706  1.0000
  C   C894      1.0  0.04446  0.65429  0.69348  1.0000
  C   C895      1.0  0.20862  0.60821  0.55912  1.0000
  H   H1583     1.0  0.49066  0.68788  0.72646  1.0000
  H   H1584     1.0  0.08847  0.76298  0.64226  1.0000
  C   C896      1.0  0.47052  0.63490  0.53741  1.0000
  H   H1585     1.0  0.42423  0.61194  0.80144  1.0000
  H   H1586     1.0  0.06959  0.64376  0.53203  1.0000
  Fe  Fe104     1.0  0.12606  0.61442  0.59879  1.0000
  C   C897      1.0  0.49442  0.63630  0.89905  1.0000
  H   H1587     1.0  0.13674  0.79747  0.64727  1.0000
  H   H1588     1.0  0.46550  0.65491  0.84011  1.0000
  C   C898      1.0  0.01962  0.78630  0.78417  1.0000
  H   H1589     1.0  0.03261  0.63909  0.65188  1.0000
  C   C899      1.0  0.32033  0.78067  0.82792  1.0000
  H   H1590     1.0  0.05049  0.72901  0.81798  1.0000
  H   H1591     1.0  0.07581  0.77933  0.58553  1.0000
  H   H1592     1.0  0.10300  0.71663  0.59138  1.0000
  H   H1593     1.0  0.47669  0.69668  0.83250  1.0000
  H   H1594     1.0  0.47991  0.63414  0.52264  1.0000
  H   H1595     1.0  0.38771  0.64618  0.70400  1.0000
  H   H1596     1.0  0.21530  0.62662  0.70015  1.0000
  C   C900      1.0  0.12571  0.77222  0.63461  1.0000
  C   C901      1.0  0.10191  0.75457  0.60043  1.0000
  H   H1597     1.0  0.38549  0.62482  0.63324  1.0000
  H   H1598     1.0  0.22598  0.62332  0.59107  1.0000
  H   H1599     1.0  0.16405  0.65308  0.58027  1.0000
  N   N53       1.0  0.48820  0.67152  0.84869  1.0000
  C   C902      1.0  0.47012  0.64990  0.79570  1.0000
  C   C903      1.0  0.40204  0.62764  0.81846  1.0000
  S   S207      1.0  0.12294  0.61298  0.66403  1.0000
  C   C904      1.0  0.38497  0.66399  0.88855  1.0000
  H   H1600     1.0  0.36053  0.66856  0.82042  1.0000
  C   C905      1.0  0.08180  0.64246  0.52053  1.0000
  H   H1601     1.0  0.34787  0.64279  0.79651  1.0000
  C   C906      1.0  0.11411  0.78272  0.61677  1.0000
  H   H1602     1.0  0.41197  0.63710  0.82529  1.0000
  C   C907      1.0  0.36372  0.62417  0.84448  1.0000
  H   H1603     1.0  0.18420  0.62123  0.60644  1.0000
  C   C908      1.0  0.32689  0.66385  0.80447  1.0000
  C   C909      1.0  0.14188  0.78367  0.64126  1.0000
  H   H1604     1.0  0.01722  0.66504  0.70528  1.0000
  H   H1605     1.0  0.08161  0.78633  0.63671  1.0000
  H   H1606     1.0  0.49568  0.65188  0.65661  1.0000
  C   C910      1.0  0.20022  0.61222  0.51910  1.0000
  H   H1607     1.0  0.06870  0.64034  0.66535  1.0000
  H   H1608     1.0  0.41461  0.63161  0.78587  1.0000
  C   C911      1.0  0.32891  0.61958  0.62925  1.0000
  H   H1609     1.0  0.02600  0.73485  0.81506  1.0000
  H   H1610     1.0  0.18069  0.67072  0.58337  1.0000
  C   C912      1.0  0.38827  0.61029  0.63935  1.0000
  C   C913      1.0  0.49820  0.64008  0.56104  1.0000
  H   H1611     1.0  0.31678  0.79435  0.85846  1.0000
  C   C914      1.0  0.48099  0.62826  0.55785  1.0000
  H   H1612     1.0  0.31713  0.65842  0.79274  1.0000
  H   H1613     1.0  0.38680  0.65208  0.80581  1.0000
  H   H1614     1.0  0.36287  0.64722  0.87887  1.0000
  C   C915      1.0  0.19878  0.61332  0.67674  1.0000
  H   H1615     1.0  0.18898  0.61062  0.50732  1.0000
  C   C916      1.0  0.37712  0.61843  0.67699  1.0000
  H   H1616     1.0  0.46810  0.65545  0.77868  1.0000
  C   C917      1.0  0.06049  0.62811  0.66209  1.0000
  H   H1617     1.0  0.38884  0.66374  0.84253  1.0000
  C   C918      1.0  0.04117  0.60346  0.67693  1.0000
  C   C919      1.0  0.48059  0.70382  0.86587  1.0000
  H   H1618     1.0  0.49136  0.66867  0.80202  1.0000
  C   C920      1.0  0.35493  0.65536  0.82756  1.0000
  H   H1619     1.0  0.35055  0.62733  0.85399  1.0000
  H   H1620     1.0  0.48007  0.63759  0.79511  1.0000
  H   H1621     1.0  0.46786  0.67740  0.80806  1.0000
  C   C921      1.0  0.37151  0.65827  0.87138  1.0000
  H   H1622     1.0  0.03980  0.62922  0.71351  1.0000
  H   H1623     1.0  0.46483  0.64946  0.53908  1.0000
  C   C922      1.0  0.37773  0.65116  0.69131  1.0000
  H   H1624     1.0  0.10944  0.73961  0.63178  1.0000
  H   H1625     1.0  0.46114  0.68592  0.85171  1.0000
  H   H1626     1.0  0.48468  0.65168  0.59680  1.0000
  C   C923      1.0  0.05201  0.76089  0.64350  1.0000
  C   C924      1.0  0.47769  0.66506  0.80944  1.0000
  H   H1627     1.0  0.06398  0.75539  0.61156  1.0000
  H   H1628     1.0  0.31871  0.66917  0.81885  1.0000
  H   H1629     1.0  0.47111  0.62909  0.57212  1.0000
  S   S208      1.0  0.05190  0.78852  0.75913  1.0000
  C   C925      1.0  0.19293  0.64250  0.58259  1.0000
  H   H1630     1.0  0.37362  0.61818  0.85684  1.0000
  C   C926      1.0  0.08801  0.78599  0.59216  1.0000
  H   H1631     1.0  0.35615  0.62977  0.62913  1.0000
  H   H1632     1.0  0.48259  0.64157  0.90962  1.0000
  H   H1633     1.0  0.32683  0.63980  0.73779  1.0000
  H   H1634     1.0  0.15196  0.62935  0.52015  1.0000
  H   H1635     1.0  0.04261  0.75259  0.81003  1.0000
  H   H1636     1.0  0.05565  0.77908  0.61543  1.0000
  H   H1637     1.0  0.32285  0.63296  0.62239  1.0000
  H   H1638     1.0  0.07457  0.63565  0.71629  1.0000
  H   H1639     1.0  0.03824  0.75641  0.63855  1.0000
  H   H1640     1.0  0.08235  0.79927  0.59923  1.0000
  H   H1641     1.0  0.20524  0.64644  0.59154  1.0000
  C   C927      1.0  0.21526  0.61594  0.68808  1.0000
  H   H1642     1.0  0.04320  0.62155  0.63475  1.0000
  H   H1643     1.0  0.10753  0.62602  0.72281  1.0000
  H   H1644     1.0  0.39771  0.61845  0.59522  1.0000
  H   H1645     1.0  0.19582  0.64432  0.56473  1.0000
  H   H1646     1.0  0.34625  0.65938  0.84213  1.0000
  C   C928      1.0  0.06338  0.76692  0.62321  1.0000
  C   C929      1.0  0.49519  0.64039  0.60130  1.0000
  H   H1647     1.0  0.11586  0.75469  0.59199  1.0000
  H   H1648     1.0  0.08736  0.73428  0.62191  1.0000
  H   H1649     1.0  0.47862  0.63508  0.87002  1.0000
  H   H1650     1.0  0.40026  0.61589  0.83047  1.0000
  C   C930      1.0  0.17697  0.65638  0.58859  1.0000
  H   H1651     1.0  0.36334  0.65057  0.69839  1.0000
  H   H1652     1.0  0.05924  0.74906  0.65239  1.0000
  H   H1653     1.0  0.04238  0.65275  0.61615  1.0000
  H   H1654     1.0  0.38039  0.66594  0.68683  1.0000
  H   H1655     1.0  0.39346  0.67554  0.88193  1.0000
  C   C931      1.0  0.14106  0.62025  0.51631  1.0000
  C   C932      1.0  0.35540  0.60481  0.65158  1.0000
  H   H1656     1.0  0.11023  0.79702  0.62256  1.0000
  C   C933      1.0  0.38328  0.63854  0.81402  1.0000
  H   H1657     1.0  0.35222  0.61258  0.81458  1.0000
  C   C934      1.0  0.46751  0.72119  0.86406  1.0000
  H   H1658     1.0  0.14948  0.77609  0.65467  1.0000
  S   S209      1.0  0.10400  0.80039  0.67826  1.0000
  H   H1659     1.0  0.21616  0.62117  0.55544  1.0000
  C   C935      1.0  0.48843  0.66341  0.87192  1.0000
  C   C936      1.0  0.05303  0.64913  0.62855  1.0000
  H   H1660     1.0  0.15175  0.78585  0.62717  1.0000
  H   H1661     1.0  0.45782  0.79010  0.88413  1.0000
  H   H1662     1.0  0.37704  0.66891  0.90330  1.0000
  C   C937      1.0  0.04604  0.63390  0.64441  1.0000
  H   H1663     1.0  0.47730  0.65670  0.63754  1.0000
  C   C938      1.0  0.09748  0.61579  0.71789  1.0000
  H   H1664     1.0  0.39441  0.65200  0.89358  1.0000
  H   H1665     1.0  0.17457  0.62006  0.58039  1.0000
  H   H1666     1.0  0.21477  0.61225  0.61408  1.0000
  H   H1667     1.0  0.36476  0.61763  0.68842  1.0000
  H   H1668     1.0  0.08851  0.63379  0.69115  1.0000
  H   H1669     1.0  0.40289  0.60993  0.64492  1.0000
  H   H1670     1.0  0.18635  0.62194  0.68015  1.0000
  H   H1671     1.0  0.07080  0.61803  0.65440  1.0000
  H   H1672     1.0  0.48759  0.70757  0.79205  1.0000
  H   H1673     1.0  0.49292  0.65487  0.55970  1.0000
  H   H1674     1.0  0.34370  0.79827  0.87405  1.0000
  S   S210      1.0  0.25186  0.60842  0.69939  1.0000
  C   C939      1.0  0.08921  0.79999  0.55335  1.0000
  C   C940      1.0  0.31599  0.79828  0.84087  1.0000
  H   H1675     1.0  0.35142  0.79997  0.91268  1.0000
  H   H1676     1.0  0.40170  0.61059  0.78955  1.0000
  S   S211      1.0  0.45768  0.60915  0.96959  1.0000
  Fe  Fe105     1.0  0.14806  0.60715  0.64138  1.0000
  C   C941      1.0  0.36033  0.60796  0.82902  1.0000
  H   H1677     1.0  0.31840  0.61339  0.64060  1.0000
  Fe  Fe106     1.0  0.48379  0.60893  0.98907  1.0000
  C   C942      1.0  0.49751  0.69218  0.74084  1.0000
  H   H1678     1.0  0.33198  0.60999  0.61557  1.0000
  N   N54       1.0  0.20253  0.60713  0.58298  1.0000
  H   H1679     1.0  0.25800  0.61245  0.60199  1.0000
  C   C943      1.0  0.23164  0.60485  0.68405  1.0000
  C   C944      1.0  0.21926  0.61028  0.59660  1.0000
  Fe  Fe107     1.0  0.44353  0.60411  0.00247  1.0000
  H   H1680     1.0  0.09170  0.60875  0.73290  1.0000
  S   S212      1.0  0.34692  0.60347  0.73056  1.0000
  C   C945      1.0  0.40134  0.60393  0.60100  1.0000
  H   H1681     1.0  0.30135  0.80296  0.83776  1.0000
  H   H1682     1.0  0.24697  0.60331  0.62681  1.0000
  S   S213      1.0  0.07542  0.81211  0.30191  1.0000
  S   S214      1.0  0.08159  0.83894  0.45758  1.0000
  Fe  Fe108     1.0  0.20653  0.93567  0.22298  1.0000
  S   S215      1.0  0.22643  0.91046  0.22720  1.0000
  S   S216      1.0  0.19745  0.95768  0.24823  1.0000
  Fe  Fe109     1.0  0.19225  0.92162  0.17920  1.0000
  S   S217      1.0  0.21148  0.89597  0.18048  1.0000
  S   S218      1.0  0.16733  0.92675  0.15685  1.0000
  Fe  Fe110     1.0  0.20275  0.89335  0.21642  1.0000
  S   S219      1.0  0.19388  0.86465  0.23056  1.0000
  Fe  Fe111     1.0  0.23360  0.91490  0.19099  1.0000
  S   S220      1.0  0.26262  0.91777  0.17375  1.0000
  S   S221      1.0  0.18282  0.91808  0.21447  1.0000
  S   S222      1.0  0.21450  0.94103  0.18747  1.0000
  H   H1683     1.0  0.44300  0.97375  0.32618  1.0000
  H   H1684     1.0  0.41917  0.93956  0.21887  1.0000
  N   N55       1.0  0.49916  0.99357  0.35495  1.0000
  Fe  Fe112     1.0  0.13987  0.93380  0.03083  1.0000
  H   H1685     1.0  0.49994  0.00184  0.38854  1.0000
  S   S223      1.0  0.16538  0.93131  0.05230  1.0000
  H   H1686     1.0  0.01711  0.80372  0.37334  1.0000
  H   H1687     1.0  0.09346  0.80719  0.38825  1.0000
  H   H1688     1.0  0.14432  0.85867  0.14393  1.0000
  C   C946      1.0  0.20141  0.80814  0.30483  1.0000
  H   H1689     1.0  0.12643  0.93752  0.50400  1.0000
  H   H1690     1.0  0.12562  0.97870  0.43108  1.0000
  S   S224      1.0  0.10949  0.93275  0.04001  1.0000
  Fe  Fe113     1.0  0.37141  0.87429  0.14220  1.0000
  S   S225      1.0  0.38370  0.89737  0.12151  1.0000
  S   S226      1.0  0.34141  0.87303  0.15682  1.0000
  Fe  Fe114     1.0  0.40807  0.84978  0.13987  1.0000
  S   S227      1.0  0.42256  0.87188  0.11902  1.0000
  S   S228      1.0  0.42523  0.82277  0.14947  1.0000
  Fe  Fe115     1.0  0.40937  0.89294  0.14247  1.0000
  S   S229      1.0  0.42160  0.91984  0.15604  1.0000
  Fe  Fe116     1.0  0.39617  0.87482  0.09954  1.0000
  S   S230      1.0  0.39381  0.87244  0.06155  1.0000
  S   S231      1.0  0.39632  0.87065  0.16407  1.0000
  S   S232      1.0  0.38247  0.85183  0.11956  1.0000
  C   C947      1.0  0.07681  0.95971  0.49701  1.0000
  H   H1691     1.0  0.46062  0.98136  0.30674  1.0000
  S   S233      1.0  0.48038  0.95260  0.22195  1.0000
  C   C948      1.0  0.43805  0.92853  0.17461  1.0000
  C   C949      1.0  0.44944  0.91682  0.18794  1.0000
  C   C950      1.0  0.46203  0.92441  0.20232  1.0000
  C   C951      1.0  0.46356  0.94387  0.20388  1.0000
  C   C952      1.0  0.45208  0.95559  0.19065  1.0000
  C   C953      1.0  0.43957  0.94800  0.17617  1.0000
  H   H1692     1.0  0.44862  0.90185  0.18713  1.0000
  H   H1693     1.0  0.47073  0.91506  0.21231  1.0000
  H   H1694     1.0  0.45289  0.97054  0.19149  1.0000
  H   H1695     1.0  0.43095  0.95732  0.16606  1.0000
  C   C954      1.0  0.12955  0.88565  0.14677  1.0000
  C   C955      1.0  0.00925  0.81555  0.36523  1.0000
  H   H1696     1.0  0.40221  0.94698  0.23966  1.0000
  C   C956      1.0  0.39714  0.89617  0.02401  1.0000
  C   C957      1.0  0.39361  0.87823  0.03246  1.0000
  C   C958      1.0  0.38965  0.86456  0.01740  1.0000
  H   H1697     1.0  0.01931  0.82538  0.35788  1.0000
  H   H1698     1.0  0.40021  0.90694  0.03512  1.0000
  H   H1699     1.0  0.38690  0.85062  0.02348  1.0000
  C   C959      1.0  0.16499  0.00138  0.41693  1.0000
  H   H1700     1.0  0.11838  0.89922  0.38103  1.0000
  H   H1701     1.0  0.17715  0.96687  0.43377  1.0000
  C   C960      1.0  0.10938  0.96294  0.50475  1.0000
  H   H1702     1.0  0.06832  0.92026  0.42872  1.0000
  C   C961      1.0  0.19838  0.99237  0.19577  1.0000
  H   H1703     1.0  0.15575  0.98430  0.03655  1.0000
  H   H1704     1.0  0.09984  0.91947  0.42045  1.0000
  H   H1705     1.0  0.03537  0.89433  0.43212  1.0000
  C   C962      1.0  0.34586  0.90926  0.07862  1.0000
  H   H1706     1.0  0.12703  0.90150  0.44237  1.0000
  C   C963      1.0  0.20814  0.97664  0.26014  1.0000
  C   C964      1.0  0.19835  0.98633  0.27689  1.0000
  H   H1707     1.0  0.03938  0.91240  0.41137  1.0000
  C   C965      1.0  0.22561  0.98267  0.25309  1.0000
  H   H1708     1.0  0.18491  0.98171  0.28261  1.0000
  H   H1709     1.0  0.23336  0.97534  0.24031  1.0000
  C   C966      1.0  0.28445  0.90503  0.16946  1.0000
  C   C967      1.0  0.28875  0.88774  0.17987  1.0000
  C   C968      1.0  0.30625  0.87835  0.17592  1.0000
  C   C969      1.0  0.31977  0.88599  0.16150  1.0000
  C   C970      1.0  0.31541  0.90320  0.15093  1.0000
  C   C971      1.0  0.29798  0.91266  0.15502  1.0000
  H   H1710     1.0  0.27859  0.88159  0.19098  1.0000
  H   H1711     1.0  0.30928  0.86498  0.18408  1.0000
  H   H1712     1.0  0.32522  0.90904  0.13921  1.0000
  H   H1713     1.0  0.29483  0.92593  0.14671  1.0000
  C   C972      1.0  0.16717  0.92798  0.12777  1.0000
  C   C973      1.0  0.14999  0.93026  0.11735  1.0000
  C   C974      1.0  0.14915  0.93109  0.09429  1.0000
  C   C975      1.0  0.16555  0.92994  0.08139  1.0000
  C   C976      1.0  0.18273  0.92790  0.09183  1.0000
  C   C977      1.0  0.18356  0.92684  0.11488  1.0000
  H   H1714     1.0  0.13724  0.93121  0.12717  1.0000
  H   H1715     1.0  0.13585  0.93256  0.08648  1.0000
  H   H1716     1.0  0.19550  0.92704  0.08201  1.0000
  H   H1717     1.0  0.19687  0.92516  0.12265  1.0000
  C   C978      1.0  0.17341  0.85630  0.24440  1.0000
  C   C979      1.0  0.15957  0.86820  0.25374  1.0000
  C   C980      1.0  0.14395  0.86077  0.26503  1.0000
  C   C981      1.0  0.14178  0.84136  0.26707  1.0000
  C   C982      1.0  0.15540  0.82952  0.25724  1.0000
  C   C983      1.0  0.17113  0.83691  0.24624  1.0000
  H   H1718     1.0  0.16105  0.88313  0.25259  1.0000
  H   H1719     1.0  0.31336  0.86923  0.02882  1.0000
  H   H1720     1.0  0.15376  0.81468  0.25799  1.0000
  H   H1721     1.0  0.18161  0.82752  0.23897  1.0000
  H   H1722     1.0  0.35593  0.88879  0.05491  1.0000
  C   C984      1.0  0.07503  0.83204  0.43138  1.0000
  C   C985      1.0  0.05804  0.83797  0.42232  1.0000
  C   C986      1.0  0.05390  0.83285  0.40099  1.0000
  C   C987      1.0  0.06662  0.82173  0.38853  1.0000
  C   C988      1.0  0.08357  0.81578  0.39761  1.0000
  C   C989      1.0  0.08776  0.82097  0.41889  1.0000
  H   H1723     1.0  0.04813  0.84653  0.43171  1.0000
  H   H1724     1.0  0.47380  0.96507  0.34017  1.0000
  H   H1725     1.0  0.14357  0.89138  0.11516  1.0000
  H   H1726     1.0  0.10095  0.81636  0.42574  1.0000
  H   H1727     1.0  0.12488  0.84461  0.17232  1.0000
  H   H1728     1.0  0.12856  0.87692  0.43648  1.0000
  H   H1729     1.0  0.11197  0.97366  0.06293  1.0000
  C   C990      1.0  0.12123  0.88772  0.44645  1.0000
  H   H1730     1.0  0.14471  0.80584  0.30955  1.0000
  H   H1731     1.0  0.06780  0.87705  0.42767  1.0000
  C   C991      1.0  0.16071  0.85075  0.18108  1.0000
  C   C992      1.0  0.14806  0.88171  0.19223  1.0000
  C   C993      1.0  0.13036  0.89290  0.20061  1.0000
  C   C994      1.0  0.18047  0.85689  0.17425  1.0000
  C   C995      1.0  0.13523  0.91091  0.21119  1.0000
  C   C996      1.0  0.19524  0.84144  0.17935  1.0000
  H   H1732     1.0  0.16159  0.84607  0.19858  1.0000
  H   H1733     1.0  0.15587  0.87719  0.20711  1.0000
  H   H1734     1.0  0.15733  0.89163  0.18335  1.0000
  H   H1735     1.0  0.11158  0.85148  0.21514  1.0000
  H   H1736     1.0  0.18371  0.86942  0.18320  1.0000
  H   H1737     1.0  0.18181  0.86005  0.15640  1.0000
  H   H1738     1.0  0.14260  0.92011  0.19916  1.0000
  H   H1739     1.0  0.12229  0.91852  0.21697  1.0000
  H   H1740     1.0  0.14410  0.90774  0.22553  1.0000
  H   H1741     1.0  0.20930  0.84665  0.17552  1.0000
  H   H1742     1.0  0.19457  0.83707  0.19695  1.0000
  H   H1743     1.0  0.19328  0.82912  0.16930  1.0000
  N   N56       1.0  0.09371  0.89030  0.41959  1.0000
  C   C997      1.0  0.10075  0.87304  0.40786  1.0000
  C   C998      1.0  0.07267  0.89048  0.42034  1.0000
  C   C999      1.0  0.48952  0.00057  0.37561  1.0000
  H   H1744     1.0  0.06298  0.96600  0.49487  1.0000
  C   C1000     1.0  0.09241  0.87039  0.38508  1.0000
  H   H1745     1.0  0.06406  0.90392  0.45097  1.0000
  C   C1001     1.0  0.10452  0.85684  0.37135  1.0000
  H   H1746     1.0  0.09779  0.86033  0.41806  1.0000
  H   H1747     1.0  0.11610  0.87247  0.40575  1.0000
  H   H1748     1.0  0.28199  0.88121  0.01923  1.0000
  H   H1749     1.0  0.03899  0.80836  0.25974  1.0000
  H   H1750     1.0  0.49233  0.98135  0.19074  1.0000
  C   C1002     1.0  0.35453  0.82763  0.06529  1.0000
  H   H1751     1.0  0.13020  0.90105  0.40612  1.0000
  H   H1752     1.0  0.07842  0.86454  0.38730  1.0000
  H   H1753     1.0  0.36195  0.83004  0.04929  1.0000
  H   H1754     1.0  0.12274  0.88458  0.21327  1.0000
  C   C1003     1.0  0.12465  0.92707  0.38873  1.0000
  C   C1004     1.0  0.16006  0.98345  0.14521  1.0000
  H   H1755     1.0  0.36388  0.81884  0.07598  1.0000
  H   H1756     1.0  0.09727  0.85390  0.35614  1.0000
  H   H1757     1.0  0.11803  0.86294  0.36674  1.0000
  H   H1758     1.0  0.10716  0.84343  0.38058  1.0000
  H   H1759     1.0  0.17524  0.97161  0.04880  1.0000
  N   N57       1.0  0.36725  0.92751  0.19295  1.0000
  C   C1005     1.0  0.36444  0.90697  0.19093  1.0000
  C   C1006     1.0  0.37030  0.93632  0.17038  1.0000
  C   C1007     1.0  0.38501  0.92928  0.20522  1.0000
  C   C1008     1.0  0.35127  0.93749  0.20516  1.0000
  C   C1009     1.0  0.33158  0.92962  0.20338  1.0000
  C   C1010     1.0  0.36511  0.89522  0.21276  1.0000
  C   C1011     1.0  0.39219  0.94925  0.20626  1.0000
  C   C1012     1.0  0.35494  0.93417  0.15367  1.0000
  C   C1013     1.0  0.35996  0.94368  0.13164  1.0000
  C   C1014     1.0  0.31636  0.94302  0.21252  1.0000
  C   C1015     1.0  0.35616  0.87650  0.21092  1.0000
  H   H1760     1.0  0.37530  0.90083  0.17967  1.0000
  H   H1761     1.0  0.35119  0.90453  0.18296  1.0000
  H   H1762     1.0  0.37195  0.95159  0.17139  1.0000
  H   H1763     1.0  0.38353  0.93048  0.16285  1.0000
  H   H1764     1.0  0.39655  0.92037  0.19779  1.0000
  H   H1765     1.0  0.38327  0.92399  0.22245  1.0000
  H   H1766     1.0  0.35389  0.93749  0.22304  1.0000
  H   H1767     1.0  0.35033  0.95252  0.19996  1.0000
  H   H1768     1.0  0.33072  0.91621  0.21287  1.0000
  H   H1769     1.0  0.32810  0.92685  0.18636  1.0000
  H   H1770     1.0  0.37985  0.89227  0.21724  1.0000
  H   H1771     1.0  0.35794  0.90278  0.22637  1.0000
  H   H1772     1.0  0.38080  0.95942  0.21105  1.0000
  H   H1773     1.0  0.39815  0.95370  0.19002  1.0000
  H   H1774     1.0  0.35316  0.91925  0.15068  1.0000
  H   H1775     1.0  0.34162  0.94094  0.15942  1.0000
  H   H1776     1.0  0.37352  0.93793  0.12501  1.0000
  H   H1777     1.0  0.34906  0.94131  0.11971  1.0000
  H   H1778     1.0  0.36085  0.95895  0.13344  1.0000
  H   H1779     1.0  0.11733  0.99872  0.02503  1.0000
  H   H1780     1.0  0.06719  0.89158  0.40350  1.0000
  H   H1781     1.0  0.15424  0.84648  0.31981  1.0000
  H   H1782     1.0  0.34119  0.87865  0.20711  1.0000
  H   H1783     1.0  0.36336  0.86821  0.19789  1.0000
  H   H1784     1.0  0.35725  0.86841  0.22667  1.0000
  H   H1785     1.0  0.14703  0.96772  0.07177  1.0000
  C   C1016     1.0  0.15928  0.80841  0.31351  1.0000
  H   H1786     1.0  0.11543  0.88167  0.15217  1.0000
  H   H1787     1.0  0.09453  0.90103  0.45238  1.0000
  C   C1017     1.0  0.36280  0.92044  0.07185  1.0000
  C   C1018     1.0  0.15393  0.98116  0.07218  1.0000
  H   H1788     1.0  0.02616  0.85375  0.29293  1.0000
  H   H1789     1.0  0.10021  0.91752  0.49611  1.0000
  H   H1790     1.0  0.12614  0.93582  0.40316  1.0000
  H   H1791     1.0  0.16426  0.98673  0.48580  1.0000
  H   H1792     1.0  0.11939  0.89916  0.11677  1.0000
  C   C1019     1.0  0.16509  0.98365  0.05069  1.0000
  H   H1793     1.0  0.48763  0.94807  0.16700  1.0000
  H   H1794     1.0  0.14316  0.93838  0.44023  1.0000
  H   H1795     1.0  0.15035  0.93134  0.46735  1.0000
  H   H1796     1.0  0.48536  0.95932  0.37287  1.0000
  H   H1797     1.0  0.28639  0.85440  0.12150  1.0000
  H   H1798     1.0  0.36134  0.93454  0.07879  1.0000
  S   S234      1.0  0.12194  0.83278  0.28210  1.0000
  H   H1799     1.0  0.15032  0.81048  0.34794  1.0000
  H   H1800     1.0  0.19002  0.98204  0.18780  1.0000
  H   H1801     1.0  0.11659  0.82004  0.19931  1.0000
  H   H1802     1.0  0.13574  0.85305  0.21892  1.0000
  N   N58       1.0  0.14495  0.86526  0.17816  1.0000
  C   C1020     1.0  0.06258  0.90653  0.43314  1.0000
  C   C1021     1.0  0.12554  0.84739  0.20800  1.0000
  H   H1803     1.0  0.15811  0.83807  0.17179  1.0000
  H   H1804     1.0  0.12066  0.89668  0.18732  1.0000
  C   C1022     1.0  0.09996  0.88881  0.44301  1.0000
  H   H1805     1.0  0.36400  0.92201  0.05371  1.0000
  H   H1806     1.0  0.15809  0.87793  0.14928  1.0000
  H   H1807     1.0  0.03472  0.91844  0.43949  1.0000
  H   H1808     1.0  0.11482  0.86543  0.18212  1.0000
  C   C1023     1.0  0.12713  0.85573  0.18413  1.0000
  H   H1809     1.0  0.47959  0.99049  0.38262  1.0000
  C   C1024     1.0  0.40767  0.94994  0.22277  1.0000
  C   C1025     1.0  0.14493  0.87117  0.15418  1.0000
  H   H1810     1.0  0.13228  0.89951  0.15320  1.0000
  C   C1026     1.0  0.12740  0.82605  0.20917  1.0000
  H   H1811     1.0  0.09393  0.87639  0.45148  1.0000
  C   C1027     1.0  0.49431  0.98494  0.17295  1.0000
  H   H1812     1.0  0.12538  0.82105  0.22645  1.0000
  H   H1813     1.0  0.12559  0.87467  0.11443  1.0000
  H   H1814     1.0  0.41345  0.96402  0.22211  1.0000
  H   H1815     1.0  0.18817  0.98275  0.40495  1.0000
  S   S235      1.0  0.06065  0.81569  0.36179  1.0000
  H   H1816     1.0  0.16391  0.81834  0.30033  1.0000
  H   H1817     1.0  0.30259  0.93677  0.21134  1.0000
  C   C1028     1.0  0.12957  0.88780  0.12177  1.0000
  H   H1818     1.0  0.14090  0.88253  0.47249  1.0000
  H   H1819     1.0  0.16445  0.97001  0.15356  1.0000
  H   H1820     1.0  0.11409  0.93388  0.37779  1.0000
  H   H1821     1.0  0.05934  0.86704  0.02762  1.0000
  C   C1029     1.0  0.09980  0.90819  0.40836  1.0000
  H   H1822     1.0  0.15459  0.96752  0.42327  1.0000
  C   C1030     1.0  0.12561  0.88282  0.47034  1.0000
  C   C1031     1.0  0.03551  0.87839  0.01009  1.0000
  H   H1823     1.0  0.13353  0.87017  0.27240  1.0000
  H   H1824     1.0  0.20749  0.99903  0.18308  1.0000
  C   C1032     1.0  0.10356  0.97605  0.07822  1.0000
  Fe  Fe117     1.0  0.10726  0.91515  0.01060  1.0000
  H   H1825     1.0  0.15544  0.99631  0.40473  1.0000
  H   H1826     1.0  0.34411  0.90943  0.09676  1.0000
  H   H1827     1.0  0.19831  0.99177  0.49047  1.0000
  H   H1828     1.0  0.44831  0.99802  0.32414  1.0000
  H   H1829     1.0  0.30901  0.89899  0.06410  1.0000
  H   H1830     1.0  0.19386  0.82199  0.30507  1.0000
  Fe  Fe118     1.0  0.49434  0.97704  0.23867  1.0000
  C   C1033     1.0  0.05430  0.87775  0.01610  1.0000
  C   C1034     1.0  0.33679  0.85899  0.06163  1.0000
  H   H1831     1.0  0.12056  0.86883  0.47517  1.0000
  S   S236      1.0  0.06093  0.92665  0.48959  1.0000
  H   H1832     1.0  0.14740  0.84500  0.34845  1.0000
  H   H1833     1.0  0.04079  0.83758  0.39408  1.0000
  C   C1035     1.0  0.22086  0.81061  0.31334  1.0000
  H   H1834     1.0  0.31871  0.94566  0.23000  1.0000
  H   H1835     1.0  0.12567  0.96672  0.09900  1.0000
  C   C1036     1.0  0.34971  0.84619  0.07614  1.0000
  H   H1836     1.0  0.48315  0.97800  0.16457  1.0000
  H   H1837     1.0  0.29347  0.87197  0.08700  1.0000
  H   H1838     1.0  0.13823  0.92614  0.37956  1.0000
  H   H1839     1.0  0.03915  0.83239  0.28693  1.0000
  H   H1840     1.0  0.13287  0.83572  0.32843  1.0000
  H   H1841     1.0  0.09080  0.88384  0.37568  1.0000
  H   H1842     1.0  0.11897  0.89334  0.48133  1.0000
  H   H1843     1.0  0.02618  0.86824  0.01699  1.0000
  H   H1844     1.0  0.13424  0.97278  0.13592  1.0000
  C   C1037     1.0  0.46902  0.97998  0.34085  1.0000
  H   H1845     1.0  0.31599  0.95645  0.20292  1.0000
  C   C1038     1.0  0.14752  0.83762  0.33277  1.0000
  S   S237      1.0  0.13582  0.95947  0.00895  1.0000
  C   C1039     1.0  0.08754  0.00267  0.02739  1.0000
  H   H1846     1.0  0.14138  0.82090  0.20325  1.0000
  H   H1847     1.0  0.08953  0.91331  0.39597  1.0000
  C   C1040     1.0  0.04175  0.90795  0.42868  1.0000
  C   C1041     1.0  0.03100  0.83992  0.29987  1.0000
  H   H1848     1.0  0.17716  0.00286  0.37312  1.0000
  H   H1849     1.0  0.08294  0.96099  0.09785  1.0000
  H   H1850     1.0  0.17209  0.82139  0.34130  1.0000
  H   H1851     1.0  0.31852  0.89071  0.09919  1.0000
  C   C1042     1.0  0.11900  0.90750  0.39599  1.0000
  H   H1852     1.0  0.32453  0.85072  0.05889  1.0000
  H   H1853     1.0  0.10146  0.94627  0.08595  1.0000
  H   H1854     1.0  0.00999  0.82154  0.24289  1.0000
  H   H1855     1.0  0.30781  0.85065  0.08994  1.0000
  C   C1043     1.0  0.15427  0.93952  0.45228  1.0000
  C   C1044     1.0  0.09218  0.95889  0.08316  1.0000
  H   H1856     1.0  0.08329  0.95654  0.06905  1.0000
  H   H1857     1.0  0.17294  0.99660  0.05063  1.0000
  H   H1858     1.0  0.36303  0.85264  0.07870  1.0000
  Fe  Fe119     1.0  0.06470  0.85584  0.48304  1.0000
  H   H1859     1.0  0.14262  0.96494  0.46495  1.0000
  H   H1860     1.0  0.34391  0.86073  0.04523  1.0000
  H   H1861     1.0  0.33351  0.91669  0.07148  1.0000
  N   N59       1.0  0.16110  0.99265  0.43940  1.0000
  H   H1862     1.0  0.16763  0.93343  0.44548  1.0000
  H   H1863     1.0  0.04017  0.84216  0.31377  1.0000
  H   H1864     1.0  0.15295  0.96994  0.11616  1.0000
  H   H1865     1.0  0.29474  0.87702  0.12649  1.0000
  H   H1866     1.0  0.37582  0.91333  0.07781  1.0000
  S   S238      1.0  0.08287  0.97935  0.02280  1.0000
  C   C1045     1.0  0.30497  0.87709  0.04136  1.0000
  C   C1046     1.0  0.45440  0.98352  0.32337  1.0000
  C   C1047     1.0  0.23302  0.99830  0.26254  1.0000
  C   C1048     1.0  0.13900  0.99834  0.11599  1.0000
  H   H1867     1.0  0.09535  0.99564  0.43267  1.0000
  C   C1049     1.0  0.15811  0.81872  0.33536  1.0000
  S   S239      1.0  0.49450  0.97796  0.27574  1.0000
  H   H1868     1.0  0.16690  0.96000  0.47065  1.0000
  H   H1869     1.0  0.29788  0.89989  0.01808  1.0000
  H   H1870     1.0  0.28149  0.89752  0.04103  1.0000
  H   H1871     1.0  0.46192  0.98255  0.35686  1.0000
  C   C1050     1.0  0.30514  0.86494  0.09596  1.0000
  C   C1051     1.0  0.34855  0.88877  0.07126  1.0000
  C   C1052     1.0  0.32267  0.87657  0.09325  1.0000
  H   H1872     1.0  0.35851  0.88200  0.08294  1.0000
  C   C1053     1.0  0.31795  0.88859  0.05496  1.0000
  H   H1873     1.0  0.32591  0.89694  0.04243  1.0000
  H   H1874     1.0  0.33321  0.87097  0.10508  1.0000
  C   C1054     1.0  0.29073  0.88978  0.02922  1.0000
  C   C1055     1.0  0.16252  0.97171  0.43752  1.0000
  C   C1056     1.0  0.29874  0.86309  0.11997  1.0000
  H   H1875     1.0  0.30995  0.85631  0.13002  1.0000
  H   H1876     1.0  0.29722  0.86696  0.05171  1.0000
  N   N60       1.0  0.33112  0.87795  0.07039  1.0000
  S   S240      1.0  0.04242  0.87838  0.47755  1.0000
  H   H1877     1.0  0.34176  0.81999  0.06275  1.0000
  C   C1057     1.0  0.02047  0.80953  0.31738  1.0000
  H   H1878     1.0  0.01158  0.99940  0.02528  1.0000
  C   C1058     1.0  0.15624  0.95990  0.45792  1.0000
  H   H1879     1.0  0.10755  0.97962  0.11285  1.0000
  C   C1059     1.0  0.17037  0.99968  0.47935  1.0000
  C   C1060     1.0  0.48582  0.99241  0.33652  1.0000
  C   C1061     1.0  0.09777  0.93236  0.49774  1.0000
  H   H1880     1.0  0.00765  0.83017  0.39581  1.0000
  H   H1881     1.0  0.17631  0.99928  0.21867  1.0000
  Fe  Fe120     1.0  0.10660  0.80747  0.29727  1.0000
  H   H1882     1.0  0.16414  0.98060  0.08540  1.0000
  H   H1883     1.0  0.49317  0.98685  0.32174  1.0000
  Fe  Fe121     1.0  0.10529  0.95690  0.01595  1.0000
  C   C1062     1.0  0.14609  0.97984  0.12767  1.0000
  C   C1063     1.0  0.11637  0.97947  0.09752  1.0000
  C   C1064     1.0  0.14186  0.99965  0.44678  1.0000
  H   H1884     1.0  0.21999  0.81567  0.33034  1.0000
  H   H1885     1.0  0.15371  0.99288  0.15770  1.0000
  H   H1886     1.0  0.09336  0.98782  0.07518  1.0000
  C   C1065     1.0  0.50019  0.96110  0.37605  1.0000
  C   C1066     1.0  0.12558  0.99404  0.43263  1.0000
  C   C1067     1.0  0.01424  0.82892  0.30764  1.0000
  H   H1887     1.0  0.20719  0.98471  0.20806  1.0000
  C   C1068     1.0  0.07984  0.94033  0.49521  1.0000
  H   H1888     1.0  0.13851  0.99487  0.46383  1.0000
  H   H1889     1.0  0.34296  0.84305  0.09233  1.0000
  H   H1890     1.0  0.13075  0.99865  0.06059  1.0000
  H   H1891     1.0  0.10490  0.99386  0.45959  1.0000
  C   C1069     1.0  0.18502  0.99785  0.40718  1.0000
  H   H1892     1.0  0.18877  0.99052  0.45264  1.0000
  S   S241      1.0  0.09025  0.88940  0.01469  1.0000
  C   C1070     1.0  0.13950  0.99757  0.07526  1.0000
  N   N61       1.0  0.12741  0.99686  0.09582  1.0000
  C   C1071     1.0  0.17557  0.99913  0.45456  1.0000
  H   H1893     1.0  0.18195  0.96413  0.00996  1.0000
  Fe  Fe122     1.0  0.05891  0.89589  0.49907  1.0000
  C   C1072     1.0  0.06657  0.89093  0.00737  1.0000
  H   H1894     1.0  0.22806  0.82109  0.30277  1.0000
  H   H1895     1.0  0.17267  0.98968  0.13768  1.0000
  H   H1896     1.0  0.08893  0.98584  0.50379  1.0000
  S   S242      1.0  0.08211  0.87418  0.50249  1.0000
  C   C1073     1.0  0.09148  0.97097  0.50203  1.0000
  C   C1074     1.0  0.20570  0.00201  0.28623  1.0000
  H   H1897     1.0  0.03218  0.81119  0.32853  1.0000
  H   H1898     1.0  0.00558  0.82721  0.29319  1.0000
  H   H1899     1.0  0.00629  0.83747  0.31979  1.0000
  H   H1900     1.0  0.50109  0.96628  0.39291  1.0000
  H   H1901     1.0  0.01304  0.81534  0.16710  1.0000
  C   C1075     1.0  0.01148  0.80672  0.24670  1.0000
  H   H1902     1.0  0.24225  0.90893  0.01156  1.0000
  C   C1076     1.0  0.11253  0.94368  0.50221  1.0000
  H   H1903     1.0  0.49571  0.91477  0.16665  1.0000
  H   H1904     1.0  0.24653  0.00283  0.25692  1.0000
  C   C1077     1.0  0.10671  0.00020  0.44285  1.0000
  H   H1905     1.0  0.12645  0.00075  0.41603  1.0000
  H   H1906     1.0  0.20322  0.80387  0.28760  1.0000
  C   C1078     1.0  0.18742  0.00308  0.49274  1.0000
  H   H1907     1.0  0.32458  0.85073  0.82072  1.0000
  C   C1079     1.0  0.02901  0.89196  0.99483  1.0000
  Fe  Fe123     1.0  0.06621  0.86347  0.53237  1.0000
  H   H1908     1.0  0.27806  0.98822  0.79511  1.0000
  S   S243      1.0  0.08334  0.85634  0.56262  1.0000
  H   H1909     1.0  0.08069  0.81236  0.55890  1.0000
  H   H1910     1.0  0.34377  0.80745  0.83235  1.0000
  C   C1080     1.0  0.04273  0.89401  0.91934  1.0000
  S   S244      1.0  0.04426  0.88685  0.53045  1.0000
  H   H1911     1.0  0.35494  0.83287  0.81102  1.0000
  H   H1912     1.0  0.05846  0.89344  0.63032  1.0000
  S   S245      1.0  0.14728  0.94795  0.94972  1.0000
  Fe  Fe124     1.0  0.19587  0.88711  0.79680  1.0000
  S   S246      1.0  0.17647  0.90831  0.81293  1.0000
  S   S247      1.0  0.18646  0.86095  0.78013  1.0000
  Fe  Fe125     1.0  0.23069  0.90356  0.81725  1.0000
  S   S248      1.0  0.21305  0.92545  0.83497  1.0000
  S   S249      1.0  0.26282  0.90337  0.81588  1.0000
  Fe  Fe126     1.0  0.19317  0.90273  0.84305  1.0000
  S   S250      1.0  0.17796  0.89407  0.87482  1.0000
  Fe  Fe127     1.0  0.19774  0.92945  0.80326  1.0000
  S   S251      1.0  0.18717  0.95905  0.79327  1.0000
  S   S252      1.0  0.21190  0.88049  0.82756  1.0000
  S   S253      1.0  0.21619  0.90862  0.78493  1.0000
  H   H1913     1.0  0.40700  0.85762  0.79068  1.0000
  H   H1914     1.0  0.01586  0.84496  0.99028  1.0000
  H   H1915     1.0  0.41019  0.83459  0.80319  1.0000
  S   S254      1.0  0.11968  0.83959  0.71951  1.0000
  S   S255      1.0  0.07221  0.82041  0.71064  1.0000
  Fe  Fe128     1.0  0.36051  0.88112  0.88485  1.0000
  S   S256      1.0  0.37799  0.90440  0.89545  1.0000
  S   S257      1.0  0.32843  0.88225  0.88274  1.0000
  Fe  Fe129     1.0  0.39383  0.85244  0.88658  1.0000
  S   S258      1.0  0.41316  0.87384  0.89791  1.0000
  S   S259      1.0  0.40516  0.82204  0.88330  1.0000
  Fe  Fe130     1.0  0.38963  0.88349  0.92109  1.0000
  S   S260      1.0  0.39358  0.89280  0.95695  1.0000
  Fe  Fe131     1.0  0.40051  0.89322  0.87175  1.0000
  S   S261      1.0  0.41755  0.90677  0.84266  1.0000
  S   S262      1.0  0.37126  0.86085  0.91128  1.0000
  S   S263      1.0  0.38204  0.87112  0.85975  1.0000
  C   C1081     1.0  0.08768  0.87057  0.85600  1.0000
  H   H1916     1.0  0.10149  0.84564  0.60258  1.0000
  S   S264      1.0  0.47679  0.96786  0.81014  1.0000
  C   C1082     1.0  0.43381  0.92410  0.83397  1.0000
  C   C1083     1.0  0.44127  0.92407  0.81231  1.0000
  C   C1084     1.0  0.45437  0.93716  0.80472  1.0000
  C   C1085     1.0  0.46023  0.95073  0.81863  1.0000
  C   C1086     1.0  0.45267  0.95084  0.84023  1.0000
  C   C1087     1.0  0.43966  0.93768  0.84785  1.0000
  H   H1917     1.0  0.43699  0.91369  0.80132  1.0000
  H   H1918     1.0  0.46005  0.93662  0.78816  1.0000
  H   H1919     1.0  0.45699  0.96116  0.85127  1.0000
  H   H1920     1.0  0.43418  0.93804  0.86453  1.0000
  N   N62       1.0  0.45185  0.84903  0.84620  1.0000
  C   C1088     1.0  0.02256  0.84565  0.95530  1.0000
  C   C1089     1.0  0.21452  0.98351  0.74095  1.0000
  H   H1921     1.0  0.18343  0.99301  0.61318  1.0000
  H   H1922     1.0  0.39925  0.85341  0.81865  1.0000
  C   C1090     1.0  0.19558  0.97537  0.77324  1.0000
  H   H1923     1.0  0.46202  0.95957  0.72346  1.0000
  C   C1091     1.0  0.03281  0.87616  0.91521  1.0000
  C   C1092     1.0  0.20766  0.96999  0.75600  1.0000
  H   H1924     1.0  0.39753  0.96075  0.81373  1.0000
  H   H1925     1.0  0.21153  0.95538  0.75415  1.0000
  C   C1093     1.0  0.28077  0.89772  0.83493  1.0000
  C   C1094     1.0  0.27699  0.89187  0.85663  1.0000
  C   C1095     1.0  0.29174  0.88748  0.87098  1.0000
  C   C1096     1.0  0.31049  0.88896  0.86399  1.0000
  C   C1097     1.0  0.31427  0.89500  0.84235  1.0000
  C   C1098     1.0  0.29952  0.89926  0.82795  1.0000
  H   H1926     1.0  0.26270  0.89060  0.86231  1.0000
  H   H1927     1.0  0.28859  0.88280  0.88764  1.0000
  H   H1928     1.0  0.32855  0.89629  0.83666  1.0000
  H   H1929     1.0  0.30267  0.90381  0.81124  1.0000
  C   C1099     1.0  0.16791  0.85540  0.76301  1.0000
  C   C1100     1.0  0.15677  0.86909  0.75218  1.0000
  C   C1101     1.0  0.14222  0.86393  0.73891  1.0000
  C   C1102     1.0  0.13839  0.84505  0.73644  1.0000
  C   C1103     1.0  0.14947  0.83135  0.74736  1.0000
  C   C1104     1.0  0.16419  0.83650  0.76040  1.0000
  H   H1930     1.0  0.15950  0.88365  0.75380  1.0000
  H   H1931     1.0  0.13384  0.87467  0.73048  1.0000
  H   H1932     1.0  0.14685  0.81678  0.74558  1.0000
  H   H1933     1.0  0.17274  0.82575  0.76857  1.0000
  C   C1105     1.0  0.15443  0.93303  0.92821  1.0000
  C   C1106     1.0  0.14997  0.91428  0.92845  1.0000
  C   C1107     1.0  0.15702  0.90260  0.91176  1.0000
  C   C1108     1.0  0.16832  0.90962  0.89448  1.0000
  C   C1109     1.0  0.17235  0.92849  0.89391  1.0000
  C   C1110     1.0  0.16549  0.94010  0.91076  1.0000
  H   H1934     1.0  0.14126  0.90874  0.94162  1.0000
  H   H1935     1.0  0.15381  0.88802  0.91231  1.0000
  H   H1936     1.0  0.18101  0.93406  0.88070  1.0000
  H   H1937     1.0  0.16893  0.95461  0.91037  1.0000
  H   H1938     1.0  0.13909  0.88842  0.82218  1.0000
  H   H1939     1.0  0.42855  0.87028  0.81609  1.0000
  C   C1111     1.0  0.07514  0.84473  0.58687  1.0000
  C   C1112     1.0  0.08735  0.84118  0.60422  1.0000
  C   C1113     1.0  0.08139  0.83199  0.62378  1.0000
  C   C1114     1.0  0.06312  0.82620  0.62611  1.0000
  C   C1115     1.0  0.05095  0.82968  0.60871  1.0000
  C   C1116     1.0  0.05690  0.83890  0.58919  1.0000
  H   H1940     1.0  0.43871  0.95214  0.71980  1.0000
  Fe  Fe132     1.0  0.49535  0.97979  0.78164  1.0000
  H   H1941     1.0  0.04737  0.84150  0.57594  1.0000
  C   C1117     1.0  0.44263  0.96493  0.75112  1.0000
  H   H1942     1.0  0.31140  0.84717  0.86977  1.0000
  H   H1943     1.0  0.04283  0.89648  0.93720  1.0000
  H   H1944     1.0  0.20600  0.93590  0.92531  1.0000
  H   H1945     1.0  0.07834  0.88092  0.61832  1.0000
  H   H1946     1.0  0.30507  0.82393  0.86814  1.0000
  C   C1118     1.0  0.17822  0.84357  0.84144  1.0000
  H   H1947     1.0  0.24051  0.90846  0.96138  1.0000
  C   C1119     1.0  0.39699  0.90024  0.00110  1.0000
  H   H1948     1.0  0.14511  0.90983  0.77994  1.0000
  H   H1949     1.0  0.12147  0.91821  0.77572  1.0000
  H   H1950     1.0  0.20257  0.96823  0.83569  1.0000
  H   H1951     1.0  0.16973  0.91069  0.96568  1.0000
  H   H1952     1.0  0.15456  0.85951  0.85378  1.0000
  H   H1953     1.0  0.13078  0.91821  0.80279  1.0000
  H   H1954     1.0  0.35699  0.87534  0.81538  1.0000
  S   S265      1.0  0.05502  0.81415  0.65010  1.0000
  H   H1955     1.0  0.36811  0.81187  0.89554  1.0000
  H   H1956     1.0  0.17384  0.83004  0.84872  1.0000
  H   H1957     1.0  0.28725  0.97189  0.83006  1.0000
  C   C1120     1.0  0.10149  0.97282  0.58663  1.0000
  H   H1958     1.0  0.15057  0.88212  0.96778  1.0000
  H   H1959     1.0  0.42216  0.84560  0.84706  1.0000
  C   C1121     1.0  0.19610  0.93306  0.96916  1.0000
  Fe  Fe133     1.0  0.13235  0.93960  0.98176  1.0000
  H   H1960     1.0  0.10521  0.83075  0.81844  1.0000
  C   C1122     1.0  0.24751  0.90487  0.99503  1.0000
  H   H1961     1.0  0.34574  0.86404  0.79365  1.0000
  C   C1123     1.0  0.18196  0.90289  0.97284  1.0000
  H   H1962     1.0  0.16213  0.99106  0.64935  1.0000
  C   C1124     1.0  0.14767  0.84849  0.82174  1.0000
  C   C1125     1.0  0.39325  0.88657  0.98597  1.0000
  H   H1963     1.0  0.22307  0.95522  0.66368  1.0000
  H   H1964     1.0  0.45361  0.96438  0.76348  1.0000
  C   C1126     1.0  0.05992  0.90468  0.99243  1.0000
  C   C1127     1.0  0.45745  0.80540  0.88643  1.0000
  H   H1965     1.0  0.32561  0.81802  0.81660  1.0000
  H   H1966     1.0  0.23574  0.96801  0.84428  1.0000
  H   H1967     1.0  0.09089  0.82946  0.63706  1.0000
  H   H1968     1.0  0.10827  0.85952  0.79294  1.0000
  H   H1969     1.0  0.03571  0.90621  0.91085  1.0000
  S   S266      1.0  0.05042  0.84359  0.51324  1.0000
  H   H1970     1.0  0.18326  0.97555  0.67143  1.0000
  C   C1128     1.0  0.16264  0.87413  0.97496  1.0000
  C   C1129     1.0  0.02187  0.83548  0.97766  1.0000
  H   H1971     1.0  0.00772  0.86568  0.87986  1.0000
  H   H1972     1.0  0.37047  0.86072  0.79677  1.0000
  C   C1130     1.0  0.35692  0.86245  0.80582  1.0000
  C   C1131     1.0  0.43747  0.98527  0.74353  1.0000
  C   C1132     1.0  0.04130  0.90505  0.98602  1.0000
  H   H1973     1.0  0.46674  0.83238  0.82192  1.0000
  C   C1133     1.0  0.12757  0.89581  0.53277  1.0000
  H   H1974     1.0  0.17641  0.96561  0.98141  1.0000
  C   C1134     1.0  0.47538  0.86079  0.81584  1.0000
  H   H1975     1.0  0.01151  0.82337  0.87202  1.0000
  C   C1135     1.0  0.41232  0.99165  0.77160  1.0000
  N   N63       1.0  0.19969  0.91239  0.96619  1.0000
  C   C1136     1.0  0.46478  0.89695  0.86854  1.0000
  H   H1976     1.0  0.49510  0.86537  0.78883  1.0000
  H   H1977     1.0  0.21163  0.89471  0.94076  1.0000
  H   H1978     1.0  0.19979  0.93434  0.00484  1.0000
  H   H1979     1.0  0.38658  0.85788  0.98326  1.0000
  C   C1137     1.0  0.35398  0.84546  0.82111  1.0000
  C   C1138     1.0  0.00276  0.85144  0.94750  1.0000
  H   H1980     1.0  0.00510  0.90368  0.50628  1.0000
  N   N64       1.0  0.32925  0.83084  0.84775  1.0000
  C   C1139     1.0  0.45446  0.81570  0.86442  1.0000
  S   S267      1.0  0.10128  0.93919  0.98701  1.0000
  H   H1981     1.0  0.09865  0.80461  0.53971  1.0000
  H   H1982     1.0  0.16666  0.87020  0.83083  1.0000
  H   H1983     1.0  0.05739  0.89263  0.91312  1.0000
  H   H1984     1.0  0.43955  0.85138  0.80068  1.0000
  H   H1985     1.0  0.03681  0.82520  0.61035  1.0000
  N   N65       1.0  0.25482  0.97063  0.80099  1.0000
  H   H1986     1.0  0.12661  0.98859  0.94364  1.0000
  C   C1140     1.0  0.26598  0.95629  0.81461  1.0000
  C   C1141     1.0  0.25572  0.96451  0.77752  1.0000
  C   C1142     1.0  0.23467  0.97159  0.80865  1.0000
  C   C1143     1.0  0.23054  0.97861  0.83203  1.0000
  C   C1144     1.0  0.10368  0.82392  0.78465  1.0000
  C   C1145     1.0  0.24996  0.94434  0.77375  1.0000
  C   C1146     1.0  0.27546  0.96312  0.83517  1.0000
  C   C1147     1.0  0.28337  0.94666  0.84908  1.0000
  H   H1987     1.0  0.38439  0.98011  0.80118  1.0000
  C   C1148     1.0  0.18952  0.93905  0.99242  1.0000
  C   C1149     1.0  0.25270  0.93940  0.74969  1.0000
  C   C1150     1.0  0.20251  0.97148  0.64454  1.0000
  H   H1988     1.0  0.19104  0.96826  0.63378  1.0000
  H   H1989     1.0  0.25713  0.94451  0.81988  1.0000
  H   H1990     1.0  0.27765  0.94981  0.80459  1.0000
  H   H1991     1.0  0.27010  0.96580  0.77044  1.0000
  H   H1992     1.0  0.24647  0.97371  0.76717  1.0000
  H   H1993     1.0  0.22616  0.98033  0.79703  1.0000
  H   H1994     1.0  0.22874  0.95760  0.80842  1.0000
  H   H1995     1.0  0.16215  0.85938  0.97017  1.0000
  H   H1996     1.0  0.11275  0.96867  0.59810  1.0000
  C   C1151     1.0  0.22232  0.91580  0.90682  1.0000
  H   H1997     1.0  0.23690  0.99208  0.83456  1.0000
  H   H1998     1.0  0.23510  0.94289  0.77830  1.0000
  H   H1999     1.0  0.25829  0.93384  0.78345  1.0000
  H   H2000     1.0  0.20339  0.99185  0.82454  1.0000
  H   H2001     1.0  0.15469  0.00281  0.68419  1.0000
  H   H2002     1.0  0.29394  0.93834  0.83945  1.0000
  H   H2003     1.0  0.29015  0.95184  0.86362  1.0000
  H   H2004     1.0  0.27211  0.93745  0.85486  1.0000
  H   H2005     1.0  0.11589  0.97540  0.96574  1.0000
  H   H2006     1.0  0.12664  0.82129  0.80608  1.0000
  H   H2007     1.0  0.42691  0.98402  0.73082  1.0000
  C   C1152     1.0  0.29491  0.84227  0.84182  1.0000
  H   H2008     1.0  0.21346  0.97855  0.63471  1.0000
  C   C1153     1.0  0.06635  0.89079  0.61474  1.0000
  H   H2009     1.0  0.24450  0.94932  0.73901  1.0000
  H   H2010     1.0  0.26765  0.93965  0.74464  1.0000
  H   H2011     1.0  0.24792  0.92512  0.74742  1.0000
  H   H2012     1.0  0.23355  0.92794  0.97840  1.0000
  H   H2013     1.0  0.46386  0.86741  0.80635  1.0000
  H   H2014     1.0  0.03393  0.87371  0.89737  1.0000
  H   H2015     1.0  0.12430  0.88386  0.77575  1.0000
  H   H2016     1.0  0.47080  0.80905  0.89346  1.0000
  C   C1154     1.0  0.45326  0.83718  0.86710  1.0000
  H   H2017     1.0  0.21059  0.91111  0.89731  1.0000
  H   H2018     1.0  0.15023  0.98581  0.61199  1.0000
  H   H2019     1.0  0.10609  0.88723  0.55505  1.0000
  H   H2020     1.0  0.41756  0.98703  0.80679  1.0000
  H   H2021     1.0  0.25368  0.00245  0.76981  1.0000
  H   H2022     1.0  0.09120  0.86714  0.82146  1.0000
  H   H2023     1.0  0.43016  0.95807  0.75797  1.0000
  H   H2024     1.0  0.29544  0.83376  0.82700  1.0000
  H   H2025     1.0  0.09944  0.80949  0.78864  1.0000
  H   H2026     1.0  0.22790  0.00027  0.66056  1.0000
  H   H2027     1.0  0.18762  0.84985  0.85293  1.0000
  C   C1155     1.0  0.41409  0.97878  0.79259  1.0000
  H   H2028     1.0  0.34352  0.84122  0.87516  1.0000
  S   S268      1.0  0.13824  0.91404  0.00315  1.0000
  H   H2029     1.0  0.04243  0.00003  0.51986  1.0000
  H   H2030     1.0  0.27225  0.82675  0.85688  1.0000
  H   H2031     1.0  0.44992  0.99107  0.73487  1.0000
  H   H2032     1.0  0.38946  0.82076  0.83936  1.0000
  H   H2033     1.0  0.27451  0.84974  0.86758  1.0000
  H   H2034     1.0  0.10124  0.88768  0.83179  1.0000
  C   C1156     1.0  0.11358  0.98713  0.95368  1.0000
  H   H2035     1.0  0.36561  0.84455  0.83256  1.0000
  H   H2036     1.0  0.07417  0.87858  0.85429  1.0000
  C   C1157     1.0  0.39587  0.96945  0.79844  1.0000
  C   C1158     1.0  0.44981  0.95328  0.73185  1.0000
  H   H2037     1.0  0.26392  0.99453  0.81806  1.0000
  H   H2038     1.0  0.45414  0.93901  0.73793  1.0000
  H   H2039     1.0  0.23253  0.90387  0.90936  1.0000
  N   N66       1.0  0.13049  0.86052  0.81622  1.0000
  Fe  Fe134     1.0  0.10325  0.81405  0.71122  1.0000
  C   C1159     1.0  0.19477  0.98346  0.66363  1.0000
  H   H2040     1.0  0.10553  0.98563  0.57727  1.0000
  H   H2041     1.0  0.13864  0.89444  0.54507  1.0000
  H   H2042     1.0  0.17587  0.93332  0.99712  1.0000
  H   H2043     1.0  0.48144  0.87193  0.82514  1.0000
  N   N67       1.0  0.08974  0.92268  0.56910  1.0000
  C   C1160     1.0  0.09315  0.93901  0.58316  1.0000
  C   C1161     1.0  0.08462  0.90577  0.58315  1.0000
  C   C1162     1.0  0.10782  0.91782  0.55682  1.0000
  C   C1163     1.0  0.07503  0.92752  0.55248  1.0000
  C   C1164     1.0  0.05554  0.93387  0.56169  1.0000
  C   C1165     1.0  0.09871  0.95728  0.57072  1.0000
  H   H2044     1.0  0.05705  0.88418  0.60340  1.0000
  C   C1166     1.0  0.07313  0.90916  0.60468  1.0000
  C   C1167     1.0  0.04287  0.94132  0.54344  1.0000
  C   C1168     1.0  0.26329  0.98948  0.80118  1.0000
  H   H2045     1.0  0.08075  0.94281  0.59356  1.0000
  H   H2046     1.0  0.07706  0.89594  0.57327  1.0000
  H   H2047     1.0  0.46167  0.87049  0.88500  1.0000
  C   C1169     1.0  0.46477  0.87570  0.86800  1.0000
  H   H2048     1.0  0.11121  0.92905  0.54461  1.0000
  H   H2049     1.0  0.07986  0.93845  0.54062  1.0000
  H   H2050     1.0  0.07274  0.91537  0.54228  1.0000
  H   H2051     1.0  0.05630  0.94513  0.57350  1.0000
  H   H2052     1.0  0.04872  0.92178  0.56971  1.0000
  H   H2053     1.0  0.11198  0.95522  0.56120  1.0000
  H   H2054     1.0  0.08773  0.96244  0.55935  1.0000
  H   H2055     1.0  0.09795  0.90009  0.53126  1.0000
  H   H2056     1.0  0.03638  0.91558  0.97421  1.0000
  H   H2057     1.0  0.06083  0.91873  0.60222  1.0000
  Fe  Fe135     1.0  0.07293  0.80512  0.67911  1.0000
  H   H2058     1.0  0.04898  0.95341  0.53451  1.0000
  H   H2059     1.0  0.04064  0.93025  0.53169  1.0000
  H   H2060     1.0  0.02908  0.94594  0.55055  1.0000
  H   H2061     1.0  0.09092  0.83287  0.78165  1.0000
  H   H2062     1.0  0.44974  0.87876  0.83779  1.0000
  H   H2063     1.0  0.44120  0.84059  0.87844  1.0000
  C   C1170     1.0  0.39516  0.80702  0.84382  1.0000
  C   C1171     1.0  0.20962  0.98160  0.83658  1.0000
  H   H2064     1.0  0.19113  0.90778  0.93320  1.0000
  C   C1172     1.0  0.11445  0.83113  0.80358  1.0000
  C   C1173     1.0  0.18695  0.96027  0.99329  1.0000
  S   S269      1.0  0.49119  0.97848  0.74529  1.0000
  C   C1174     1.0  0.20420  0.90861  0.94232  1.0000
  H   H2065     1.0  0.21628  0.94436  0.63919  1.0000
  C   C1175     1.0  0.10854  0.89946  0.54402  1.0000
  H   H2066     1.0  0.03037  0.83929  0.87030  1.0000
  H   H2067     1.0  0.46592  0.84031  0.87601  1.0000
  H   H2068     1.0  0.12587  0.86966  0.84939  1.0000
  H   H2069     1.0  0.18611  0.84111  0.82579  1.0000
  H   H2070     1.0  0.47537  0.90113  0.88002  1.0000
  C   C1176     1.0  0.13080  0.91045  0.78736  1.0000
  H   H2071     1.0  0.43609  0.87212  0.86055  1.0000
  H   H2072     1.0  0.22927  0.92692  0.89701  1.0000
  H   H2073     1.0  0.13010  0.85046  0.78343  1.0000
  H   H2074     1.0  0.48479  0.84298  0.78908  1.0000
  H   H2075     1.0  0.08839  0.97616  0.59611  1.0000
  H   H2076     1.0  0.02320  0.84228  0.90969  1.0000
  S   S270      1.0  0.00600  0.89256  0.98538  1.0000
  H   H2077     1.0  0.09504  0.87614  0.86993  1.0000
  H   H2078     1.0  0.40435  0.98429  0.75946  1.0000
  H   H2079     1.0  0.48115  0.84089  0.84190  1.0000
  C   C1177     1.0  0.46889  0.84485  0.83174  1.0000
  H   H2080     1.0  0.20706  0.98698  0.85327  1.0000
  Fe  Fe136     1.0  0.02938  0.86785  0.50918  1.0000
  H   H2081     1.0  0.18532  0.93850  0.95758  1.0000
  C   C1178     1.0  0.21112  0.95287  0.65317  1.0000
  H   H2082     1.0  0.20062  0.94491  0.66281  1.0000
  H   H2083     1.0  0.39218  0.96021  0.78519  1.0000
  H   H2084     1.0  0.13073  0.90726  0.52080  1.0000
  H   H2085     1.0  0.03011  0.83620  0.94377  1.0000
  C   C1179     1.0  0.44989  0.86922  0.85243  1.0000
  H   H2086     1.0  0.12755  0.88257  0.52387  1.0000
  H   H2087     1.0  0.03620  0.83101  0.98248  1.0000
  H   H2088     1.0  0.15578  0.84497  0.80648  1.0000
  H   H2089     1.0  0.26496  0.84732  0.84099  1.0000
  C   C1180     1.0  0.16134  0.85688  0.83757  1.0000
  H   H2090     1.0  0.09576  0.00238  0.97598  1.0000
  H   H2091     1.0  0.20033  0.96696  0.98956  1.0000
  H   H2092     1.0  0.01162  0.84185  0.85134  1.0000
  H   H2093     1.0  0.17233  0.99075  0.70038  1.0000
  C   C1181     1.0  0.43429  0.84401  0.83530  1.0000
  C   C1182     1.0  0.42925  0.85500  0.81392  1.0000
  C   C1183     1.0  0.41025  0.84977  0.80618  1.0000
  C   C1184     1.0  0.19012  0.99438  0.77493  1.0000
  H   H2094     1.0  0.10431  0.93498  0.59492  1.0000
  C   C1185     1.0  0.11855  0.86211  0.83687  1.0000
  H   H2095     1.0  0.22393  0.97920  0.72773  1.0000
  C   C1186     1.0  0.12404  0.89078  0.79174  1.0000
  H   H2096     1.0  0.17952  0.90315  0.99092  1.0000
  H   H2097     1.0  0.04059  0.86450  0.92360  1.0000
  H   H2098     1.0  0.43506  0.82914  0.83078  1.0000
  H   H2099     1.0  0.08199  0.91534  0.61686  1.0000
  H   H2100     1.0  0.15637  0.00203  0.59003  1.0000
  C   C1187     1.0  0.13672  0.87946  0.80809  1.0000
  H   H2101     1.0  0.15045  0.87795  0.79919  1.0000
  N   N68       1.0  0.43023  0.99835  0.76101  1.0000
  H   H2102     1.0  0.11957  0.91673  0.56837  1.0000
  H   H2103     1.0  0.39994  0.91415  0.99502  1.0000
  H   H2104     1.0  0.18159  0.88069  0.94853  1.0000
  C   C1188     1.0  0.21485  0.90432  0.98071  1.0000
  H   H2105     1.0  0.03061  0.85826  0.95733  1.0000
  H   H2106     1.0  0.14379  0.83493  0.82946  1.0000
  H   H2107     1.0  0.42512  0.96759  0.79099  1.0000
  H   H2108     1.0  0.26578  0.97151  0.84572  1.0000
  H   H2109     1.0  0.09741  0.89772  0.58861  1.0000
  C   C1189     1.0  0.18093  0.88215  0.96656  1.0000
  H   H2110     1.0  0.33507  0.86007  0.84367  1.0000
  H   H2111     1.0  0.10938  0.89204  0.79763  1.0000
  C   C1190     1.0  0.27549  0.84141  0.85256  1.0000
  H   H2112     1.0  0.46815  0.90305  0.85201  1.0000
  C   C1191     1.0  0.33491  0.84744  0.83361  1.0000
  C   C1192     1.0  0.01200  0.87794  0.92285  1.0000
  H   H2113     1.0  0.08481  0.85570  0.85964  1.0000
  H   H2114     1.0  0.21709  0.88912  0.97823  1.0000
  H   H2115     1.0  0.29676  0.85702  0.83645  1.0000
  H   H2116     1.0  0.01118  0.88502  0.93883  1.0000
  C   C1193     1.0  0.23425  0.91254  0.97744  1.0000
  C   C1194     1.0  0.09934  0.87255  0.83476  1.0000
  C   C1195     1.0  0.21527  0.92336  0.92881  1.0000
  C   C1196     1.0  0.40336  0.80393  0.86417  1.0000
  C   C1197     1.0  0.31033  0.83574  0.85801  1.0000
  H   H2117     1.0  0.22739  0.92800  0.93747  1.0000
  H   H2118     1.0  0.44850  0.98711  0.78630  1.0000
  H   H2119     1.0  0.20855  0.94099  0.96466  1.0000
  C   C1198     1.0  0.20930  0.00255  0.74283  1.0000
  H   H2120     1.0  0.10216  0.98359  0.94296  1.0000
  C   C1199     1.0  0.12077  0.85117  0.79828  1.0000
  H   H2121     1.0  0.11639  0.84804  0.84446  1.0000
  H   H2122     1.0  0.20548  0.98351  0.67642  1.0000
  H   H2123     1.0  0.11248  0.82366  0.76938  1.0000
  H   H2124     1.0  0.06922  0.91481  0.98546  1.0000
  H   H2125     1.0  0.00528  0.88825  0.91119  1.0000
  C   C1200     1.0  0.34319  0.82818  0.86574  1.0000
  H   H2126     1.0  0.35751  0.82571  0.85884  1.0000
  H   H2127     1.0  0.01344  0.82294  0.97721  1.0000
  H   H2128     1.0  0.19244  0.87337  0.97372  1.0000
  C   C1201     1.0  0.38947  0.86865  0.99443  1.0000
  H   H2129     1.0  0.45093  0.90271  0.87429  1.0000
  H   H2130     1.0  0.47893  0.87030  0.86304  1.0000
  H   H2131     1.0  0.32600  0.81168  0.88930  1.0000
  H   H2132     1.0  0.21049  0.90541  0.99828  1.0000
  H   H2133     1.0  0.35032  0.82509  0.91083  1.0000
  H   H2134     1.0  0.44142  0.81074  0.85805  1.0000
  H   H2135     1.0  0.18068  0.99869  0.78813  1.0000
  H   H2136     1.0  0.46613  0.81146  0.85308  1.0000
  H   H2137     1.0  0.26144  0.91067  0.99205  1.0000
  H   H2138     1.0  0.24909  0.88941  0.99457  1.0000
  C   C1202     1.0  0.35337  0.81226  0.90146  1.0000
  C   C1203     1.0  0.00811  0.84583  0.90837  1.0000
  C   C1204     1.0  0.00419  0.85109  0.88404  1.0000
  C   C1205     1.0  0.01516  0.83808  0.86854  1.0000
  S   S271      1.0  0.12814  0.97634  0.51162  1.0000
  C   C1206     1.0  0.32936  0.81389  0.83372  1.0000
  C   C1207     1.0  0.15459  0.00021  0.60810  1.0000
  C   C1208     1.0  0.49039  0.85361  0.79957  1.0000
  C   C1209     1.0  0.44525  0.00044  0.77731  1.0000
  C   C1210     1.0  0.34035  0.81164  0.88225  1.0000
  H   H2139     1.0  0.44728  0.99903  0.82376  1.0000
  H   H2140     1.0  0.44579  0.80898  0.89815  1.0000
  H   H2141     1.0  0.16141  0.87456  0.99311  1.0000
  S   S272      1.0  0.90054  0.02486  0.04541  1.0000
  H   H2142     1.0  0.91545  0.19247  0.48817  1.0000
  Fe  Fe137     1.0  0.87204  0.03828  0.04007  1.0000
  S   S273      1.0  0.84875  0.03509  0.06605  1.0000
  H   H2143     1.0  0.57251  0.19327  0.18970  1.0000
  H   H2144     1.0  0.90291  0.11090  0.34770  1.0000
  S   S274      1.0  0.93590  0.20083  0.34706  1.0000
  S   S275      1.0  0.96520  0.14684  0.46453  1.0000
  Fe  Fe138     1.0  0.91955  0.17504  0.34953  1.0000
  H   H2145     1.0  0.83750  0.01248  0.18264  1.0000
  S   S276      1.0  0.91417  0.15796  0.38124  1.0000
  H   H2146     1.0  0.97089  0.04795  0.49854  1.0000
  Fe  Fe139     1.0  0.90554  0.18047  0.30233  1.0000
  S   S277      1.0  0.88720  0.17093  0.27455  1.0000
  S   S278      1.0  0.93015  0.16422  0.31695  1.0000
  Fe  Fe140     1.0  0.81949  0.08905  0.23013  1.0000
  S   S279      1.0  0.83558  0.06637  0.21198  1.0000
  S   S280      1.0  0.83532  0.10218  0.25780  1.0000
  Fe  Fe141     1.0  0.78345  0.08179  0.20525  1.0000
  S   S281      1.0  0.79791  0.05899  0.18567  1.0000
  S   S282      1.0  0.75144  0.08571  0.20377  1.0000
  Fe  Fe142     1.0  0.81073  0.04880  0.21732  1.0000
  S   S283      1.0  0.81472  0.01704  0.22150  1.0000
  Fe  Fe143     1.0  0.82160  0.07807  0.18194  1.0000
  S   S284      1.0  0.84054  0.08310  0.15199  1.0000
  S   S285      1.0  0.79519  0.07047  0.23738  1.0000
  S   S286      1.0  0.80661  0.10192  0.19951  1.0000
  Fe  Fe144     1.0  0.61933  0.13965  0.13542  1.0000
  S   S287      1.0  0.60299  0.11805  0.11923  1.0000
  S   S288      1.0  0.60569  0.16912  0.13953  1.0000
  Fe  Fe145     1.0  0.65528  0.11384  0.13598  1.0000
  S   S289      1.0  0.64106  0.09058  0.12006  1.0000
  S   S290      1.0  0.68688  0.11680  0.13979  1.0000
  Fe  Fe146     1.0  0.62832  0.11271  0.09677  1.0000
  S   S291      1.0  0.63113  0.11492  0.05850  1.0000
  Fe  Fe147     1.0  0.61641  0.09731  0.14346  1.0000
  S   S292      1.0  0.60169  0.07602  0.16719  1.0000
  S   S293      1.0  0.64361  0.13549  0.11190  1.0000
  S   S294      1.0  0.63174  0.11944  0.16050  1.0000
  Fe  Fe148     1.0  0.89936  0.01541  0.01096  1.0000
  H   H2147     1.0  0.75330  0.04407  0.10098  1.0000
  S   S295      1.0  0.53014  0.03216  0.20563  1.0000
  C   C1211     1.0  0.58158  0.06392  0.17755  1.0000
  C   C1212     1.0  0.56439  0.06521  0.16723  1.0000
  C   C1213     1.0  0.54897  0.05555  0.17612  1.0000
  C   C1214     1.0  0.55030  0.04428  0.19547  1.0000
  C   C1215     1.0  0.56749  0.04297  0.20580  1.0000
  C   C1216     1.0  0.58290  0.05268  0.19693  1.0000
  H   H2148     1.0  0.56299  0.07349  0.15222  1.0000
  H   H2149     1.0  0.53589  0.05672  0.16780  1.0000
  H   H2150     1.0  0.56896  0.03442  0.22062  1.0000
  H   H2151     1.0  0.59601  0.05141  0.20518  1.0000
  C   C1217     1.0  0.61437  0.09589  0.02526  1.0000
  C   C1218     1.0  0.62674  0.10943  0.03058  1.0000
  H   H2152     1.0  0.95041  0.19499  0.38953  1.0000
  H   H2153     1.0  0.60726  0.08822  0.03829  1.0000
  H   H2154     1.0  0.64536  0.12967  0.01688  1.0000
  C   C1219     1.0  0.61285  0.18598  0.17896  1.0000
  C   C1220     1.0  0.60645  0.18818  0.15757  1.0000
  C   C1221     1.0  0.66905  0.15085  0.17850  1.0000
  H   H2155     1.0  0.61777  0.17235  0.18499  1.0000
  H   H2156     1.0  0.88632  0.10055  0.36660  1.0000
  C   C1222     1.0  0.73369  0.09494  0.18602  1.0000
  C   C1223     1.0  0.73751  0.10646  0.16765  1.0000
  C   C1224     1.0  0.72305  0.11283  0.15371  1.0000
  C   C1225     1.0  0.70446  0.10816  0.15811  1.0000
  C   C1226     1.0  0.70057  0.09690  0.17667  1.0000
  C   C1227     1.0  0.71509  0.09032  0.19045  1.0000
  H   H2157     1.0  0.75160  0.11051  0.16426  1.0000
  H   H2158     1.0  0.72628  0.12146  0.13938  1.0000
  H   H2159     1.0  0.68640  0.09317  0.18038  1.0000
  H   H2160     1.0  0.71187  0.08153  0.20467  1.0000
  H   H2161     1.0  0.56281  0.12713  0.11611  1.0000
  C   C1228     1.0  0.87238  0.15190  0.27091  1.0000
  C   C1229     1.0  0.87283  0.13572  0.28441  1.0000
  C   C1230     1.0  0.86137  0.12082  0.28018  1.0000
  C   C1231     1.0  0.84932  0.12168  0.26235  1.0000
  C   C1232     1.0  0.84867  0.13798  0.24905  1.0000
  C   C1233     1.0  0.86011  0.15289  0.25329  1.0000
  H   H2162     1.0  0.88205  0.13466  0.29809  1.0000
  H   H2163     1.0  0.86190  0.10845  0.29082  1.0000
  H   H2164     1.0  0.83903  0.13927  0.23582  1.0000
  H   H2165     1.0  0.85926  0.16546  0.24303  1.0000
  C   C1234     1.0  0.95085  0.14986  0.44152  1.0000
  C   C1235     1.0  0.93179  0.14696  0.44313  1.0000
  C   C1236     1.0  0.92067  0.15006  0.42466  1.0000
  C   C1237     1.0  0.92857  0.15555  0.40426  1.0000
  C   C1238     1.0  0.94769  0.15820  0.40258  1.0000
  C   C1239     1.0  0.95870  0.15570  0.42122  1.0000
  H   H2166     1.0  0.92556  0.14268  0.45872  1.0000
  H   H2167     1.0  0.90586  0.14809  0.42617  1.0000
  H   H2168     1.0  0.95403  0.16194  0.38685  1.0000
  H   H2169     1.0  0.97347  0.15789  0.41980  1.0000
  C   C1240     1.0  0.84213  0.06995  0.12794  1.0000
  C   C1241     1.0  0.85613  0.07378  0.11208  1.0000
  C   C1242     1.0  0.85822  0.06337  0.09295  1.0000
  C   C1243     1.0  0.84634  0.04898  0.08951  1.0000
  C   C1244     1.0  0.83224  0.04527  0.10529  1.0000
  C   C1245     1.0  0.83009  0.05570  0.12442  1.0000
  H   H2170     1.0  0.86547  0.08482  0.11461  1.0000
  H   H2171     1.0  0.86911  0.06641  0.08091  1.0000
  H   H2172     1.0  0.82302  0.03416  0.10270  1.0000
  H   H2173     1.0  0.81924  0.05268  0.13645  1.0000
  H   H2174     1.0  0.69681  0.18523  0.13689  1.0000
  H   H2175     1.0  0.59472  0.13403  0.00898  1.0000
  H   H2176     1.0  0.96919  0.07558  0.06436  1.0000
  C   C1246     1.0  0.95607  0.09176  0.43046  1.0000
  H   H2177     1.0  0.91861  0.08875  0.37428  1.0000
  C   C1247     1.0  0.84185  0.01725  0.16585  1.0000
  C   C1248     1.0  0.98475  0.14976  0.20935  1.0000
  H   H2178     1.0  0.97497  0.15531  0.19672  1.0000
  H   H2179     1.0  0.69162  0.16215  0.14490  1.0000
  H   H2180     1.0  0.77654  0.03402  0.07181  1.0000
  H   H2181     1.0  0.80133  0.02565  0.26607  1.0000
  H   H2182     1.0  0.98181  0.15752  0.22460  1.0000
  H   H2183     1.0  0.66122  0.14635  0.16445  1.0000
  C   C1249     1.0  0.82924  0.00717  0.15031  1.0000
  H   H2184     1.0  0.73762  0.16761  0.16977  1.0000
  C   C1250     1.0  0.54979  0.12839  0.19828  1.0000
  C   C1251     1.0  0.55165  0.12000  0.12560  1.0000
  N   N69       1.0  0.56584  0.13490  0.18379  1.0000
  C   C1252     1.0  0.58335  0.12272  0.18639  1.0000
  H   H2185     1.0  0.54458  0.11070  0.15805  1.0000
  H   H2186     1.0  0.68875  0.09390  0.01122  1.0000
  C   C1253     1.0  0.95876  0.06732  0.01184  1.0000
  C   C1254     1.0  0.54936  0.10707  0.20390  1.0000
  C   C1255     1.0  0.59238  0.12316  0.20915  1.0000
  C   C1256     1.0  0.55670  0.11703  0.14964  1.0000
  C   C1257     1.0  0.91473  0.09649  0.44271  1.0000
  C   C1258     1.0  0.60452  0.10554  0.21410  1.0000
  H   H2187     1.0  0.86921  0.04070  0.17442  1.0000
  H   H2188     1.0  0.59406  0.12693  0.17390  1.0000
  H   H2189     1.0  0.58097  0.10803  0.18281  1.0000
  H   H2190     1.0  0.75077  0.01149  0.17216  1.0000
  C   C1259     1.0  0.92797  0.03771  0.42622  1.0000
  H   H2191     1.0  0.57199  0.14228  0.14980  1.0000
  C   C1260     1.0  0.78249  0.04902  0.10110  1.0000
  H   H2192     1.0  0.88509  0.10490  0.44088  1.0000
  H   H2193     1.0  0.56030  0.10275  0.21570  1.0000
  H   H2194     1.0  0.53629  0.13295  0.19090  1.0000
  H   H2195     1.0  0.60131  0.13536  0.20950  1.0000
  H   H2196     1.0  0.58171  0.12459  0.22256  1.0000
  H   H2197     1.0  0.56901  0.10713  0.15028  1.0000
  H   H2198     1.0  0.90631  0.11777  0.40874  1.0000
  H   H2199     1.0  0.92314  0.08838  0.45495  1.0000
  H   H2200     1.0  0.93970  0.11520  0.41682  1.0000
  H   H2201     1.0  0.61110  0.10663  0.23018  1.0000
  H   H2202     1.0  0.59599  0.09303  0.21479  1.0000
  H   H2203     1.0  0.61570  0.10365  0.20135  1.0000
  C   C1261     1.0  0.99047  0.07787  0.01378  1.0000
  C   C1262     1.0  0.69234  0.17647  0.15128  1.0000
  N   N70       1.0  0.92128  0.09230  0.41961  1.0000
  H   H2204     1.0  0.99924  0.08380  0.04605  1.0000
  H   H2205     1.0  0.94936  0.02671  0.00654  1.0000
  C   C1263     1.0  0.90821  0.10290  0.40416  1.0000
  H   H2206     1.0  0.66888  0.14500  0.21378  1.0000
  H   H2207     1.0  0.73074  0.17535  0.14267  1.0000
  H   H2208     1.0  0.77170  0.02150  0.18149  1.0000
  C   C1264     1.0  0.95631  0.06857  0.03453  1.0000
  H   H2209     1.0  0.99309  0.05686  0.44376  1.0000
  H   H2210     1.0  0.58327  0.15707  0.03632  1.0000
  S   S296      1.0  0.89405  0.18953  0.33514  1.0000
  H   H2211     1.0  0.99938  0.14664  0.16841  1.0000
  H   H2212     1.0  0.50657  0.02080  0.34178  1.0000
  H   H2213     1.0  0.80018  0.04101  0.07317  1.0000
  H   H2214     1.0  0.61727  0.19951  0.20935  1.0000
  H   H2215     1.0  0.97719  0.02604  0.03460  1.0000
  H   H2216     1.0  0.89409  0.09720  0.40553  1.0000
  H   H2217     1.0  0.75021  0.02428  0.19710  1.0000
  C   C1265     1.0  0.89803  0.11009  0.36512  1.0000
  H   H2218     1.0  0.95232  0.09318  0.44807  1.0000
  H   H2219     1.0  0.88957  0.08004  0.44129  1.0000
  H   H2220     1.0  0.88946  0.04357  0.11113  1.0000
  H   H2221     1.0  0.71136  0.19081  0.17193  1.0000
  C   C1266     1.0  0.97406  0.10193  0.42595  1.0000
  H   H2222     1.0  0.95928  0.07689  0.42693  1.0000
  C   C1267     1.0  0.70841  0.17637  0.16768  1.0000
  H   H2223     1.0  0.99641  0.07159  0.46646  1.0000
  C   C1268     1.0  0.89388  0.09324  0.44810  1.0000
  H   H2224     1.0  0.59917  0.17380  0.02453  1.0000
  H   H2225     1.0  0.80441  0.02456  0.15796  1.0000
  H   H2226     1.0  0.54954  0.13525  0.21438  1.0000
  H   H2227     1.0  0.55186  0.09844  0.18940  1.0000
  Fe  Fe149     1.0  0.91105  0.05149  0.03033  1.0000
  N   N71       1.0  0.87964  0.12564  0.19276  1.0000
  C   C1269     1.0  0.85939  0.12472  0.18711  1.0000
  C   C1270     1.0  0.88385  0.11352  0.21295  1.0000
  C   C1271     1.0  0.88292  0.14566  0.19801  1.0000
  C   C1272     1.0  0.89250  0.12038  0.17377  1.0000
  C   C1273     1.0  0.89094  0.10054  0.16508  1.0000
  C   C1274     1.0  0.85298  0.13673  0.16686  1.0000
  C   C1275     1.0  0.90157  0.14923  0.20908  1.0000
  C   C1276     1.0  0.87348  0.09516  0.21620  1.0000
  C   C1277     1.0  0.88082  0.08356  0.23582  1.0000
  C   C1278     1.0  0.90171  0.09826  0.14330  1.0000
  C   C1279     1.0  0.83204  0.13578  0.16385  1.0000
  C   C1280     1.0  0.90325  0.17001  0.21292  1.0000
  H   H2228     1.0  0.85038  0.12891  0.20143  1.0000
  H   H2229     1.0  0.85565  0.11026  0.18401  1.0000
  H   H2230     1.0  0.89909  0.11009  0.21377  1.0000
  H   H2231     1.0  0.88003  0.12130  0.22805  1.0000
  H   H2232     1.0  0.87150  0.15126  0.20900  1.0000
  H   H2233     1.0  0.88259  0.15476  0.18292  1.0000
  H   H2234     1.0  0.89063  0.13063  0.15984  1.0000
  H   H2235     1.0  0.90726  0.12129  0.17828  1.0000
  H   H2236     1.0  0.87636  0.09733  0.16224  1.0000
  H   H2237     1.0  0.89704  0.09007  0.17692  1.0000
  H   H2238     1.0  0.85577  0.15164  0.16855  1.0000
  H   H2239     1.0  0.86016  0.13161  0.15172  1.0000
  H   H2240     1.0  0.91372  0.14453  0.19875  1.0000
  H   H2241     1.0  0.90253  0.14194  0.22535  1.0000
  H   H2242     1.0  0.85850  0.09855  0.21959  1.0000
  H   H2243     1.0  0.87458  0.08639  0.20167  1.0000
  H   H2244     1.0  0.88007  0.09194  0.25081  1.0000
  H   H2245     1.0  0.87209  0.07136  0.23899  1.0000
  H   H2246     1.0  0.89544  0.07850  0.23261  1.0000
  H   H2247     1.0  0.90064  0.08379  0.13773  1.0000
  H   H2248     1.0  0.89575  0.10799  0.13052  1.0000
  H   H2249     1.0  0.91665  0.10094  0.14511  1.0000
  H   H2250     1.0  0.82413  0.14093  0.17853  1.0000
  H   H2251     1.0  0.82781  0.14461  0.14941  1.0000
  H   H2252     1.0  0.82833  0.12126  0.16102  1.0000
  H   H2253     1.0  0.89154  0.17532  0.22363  1.0000
  H   H2254     1.0  0.91644  0.17216  0.22128  1.0000
  H   H2255     1.0  0.90330  0.17817  0.19715  1.0000
  C   C1281     1.0  0.66126  0.19405  0.12168  1.0000
  H   H2256     1.0  0.66747  0.08462  0.02214  1.0000
  C   C1282     1.0  0.97101  0.07452  0.04680  1.0000
  H   H2257     1.0  0.53275  0.02943  0.31668  1.0000
  H   H2258     1.0  0.89295  0.12430  0.36989  1.0000
  H   H2259     1.0  0.68376  0.14569  0.17633  1.0000
  N   N72       1.0  0.67349  0.18343  0.15993  1.0000
  C   C1283     1.0  0.92528  0.05762  0.43424  1.0000
  S   S297      1.0  0.88250  0.06564  0.02691  1.0000
  C   C1284     1.0  0.56072  0.13574  0.15997  1.0000
  H   H2260     1.0  0.64605  0.17649  0.10067  1.0000
  C   C1285     1.0  0.94042  0.09974  0.41554  1.0000
  H   H2261     1.0  0.51925  0.10511  0.20287  1.0000
  H   H2262     1.0  0.54983  0.10628  0.11828  1.0000
  C   C1286     1.0  0.78538  0.04535  0.07670  1.0000
  H   H2263     1.0  0.66281  0.12581  0.19759  1.0000
  H   H2264     1.0  0.54793  0.14479  0.15754  1.0000
  H   H2265     1.0  0.98513  0.09595  0.43672  1.0000
  S   S298      1.0  0.93420  0.06439  0.49244  1.0000
  H   H2266     1.0  0.86828  0.20083  0.40022  1.0000
  C   C1287     1.0  0.88976  0.09258  0.47279  1.0000
  S   S299      1.0  0.93522  0.06266  0.04815  1.0000
  C   C1288     1.0  0.92111  0.02927  0.49620  1.0000
  H   H2267     1.0  0.78650  0.03596  0.11037  1.0000
  H   H2268     1.0  0.98642  0.03047  0.46838  1.0000
  H   H2269     1.0  0.83801  0.03250  0.16475  1.0000
  H   H2270     1.0  0.75816  0.06771  0.09579  1.0000
  H   H2271     1.0  0.53842  0.12855  0.12420  1.0000
  H   H2272     1.0  0.89780  0.02400  0.14353  1.0000
  H   H2273     1.0  0.66033  0.16659  0.13667  1.0000
  H   H2274     1.0  0.97889  0.10052  0.40862  1.0000
  H   H2275     1.0  0.90648  0.02547  0.10405  1.0000
  H   H2276     1.0  0.87429  0.02919  0.23538  1.0000
  C   C1289     1.0  0.91407  0.10295  0.37948  1.0000
  H   H2277     1.0  0.93783  0.06077  0.44313  1.0000
  H   H2278     1.0  0.79670  0.00533  0.29933  1.0000
  H   H2279     1.0  0.91532  0.03359  0.41796  1.0000
  H   H2280     1.0  0.79220  0.05985  0.10513  1.0000
  C   C1290     1.0  0.66757  0.17239  0.18022  1.0000
  H   H2281     1.0  0.98233  0.13479  0.21297  1.0000
  H   H2282     1.0  0.93246  0.19098  0.43004  1.0000
  H   H2283     1.0  0.78199  0.05821  0.06669  1.0000
  C   C1291     1.0  0.54073  0.01687  0.32305  1.0000
  N   N73       1.0  0.75740  0.05931  0.13021  1.0000
  C   C1292     1.0  0.75921  0.04121  0.14351  1.0000
  C   C1293     1.0  0.76196  0.05534  0.10651  1.0000
  C   C1294     1.0  0.77064  0.07272  0.13900  1.0000
  C   C1295     1.0  0.73787  0.06787  0.13199  1.0000
  C   C1296     1.0  0.72224  0.05563  0.12441  1.0000
  C   C1297     1.0  0.75141  0.04176  0.16748  1.0000
  C   C1298     1.0  0.77281  0.09133  0.12568  1.0000
  H   H2284     1.0  0.99178  0.05849  0.50493  1.0000
  C   C1299     1.0  0.86603  0.02239  0.20289  1.0000
  C   C1300     1.0  0.70301  0.06478  0.12935  1.0000
  C   C1301     1.0  0.75636  0.02359  0.18021  1.0000
  C   C1302     1.0  0.78796  0.10263  0.13517  1.0000
  H   H2285     1.0  0.77410  0.03641  0.14436  1.0000
  H   H2286     1.0  0.75238  0.02983  0.13535  1.0000
  H   H2287     1.0  0.89712  0.08026  0.48063  1.0000
  H   H2288     1.0  0.89201  0.00325  0.12964  1.0000
  H   H2289     1.0  0.78475  0.06587  0.14070  1.0000
  H   H2290     1.0  0.76619  0.07668  0.15587  1.0000
  H   H2291     1.0  0.73448  0.07196  0.14909  1.0000
  H   H2292     1.0  0.73666  0.08111  0.12204  1.0000
  H   H2293     1.0  0.72278  0.04166  0.13271  1.0000
  H   H2294     1.0  0.72346  0.05381  0.10645  1.0000
  H   H2295     1.0  0.75714  0.05322  0.17640  1.0000
  H   H2296     1.0  0.73601  0.04377  0.16793  1.0000
  H   H2297     1.0  0.75963  0.10000  0.12618  1.0000
  H   H2298     1.0  0.77678  0.08901  0.10830  1.0000
  H   H2299     1.0  0.54881  0.02062  0.33733  1.0000
  H   H2300     1.0  0.97357  0.06315  0.46173  1.0000
  C   C1303     1.0  0.92301  0.19008  0.47232  1.0000
  H   H2301     1.0  0.67470  0.19106  0.11281  1.0000
  C   C1304     1.0  0.72633  0.16750  0.15778  1.0000
  H   H2302     1.0  0.69205  0.05612  0.12315  1.0000
  H   H2303     1.0  0.70063  0.06607  0.14729  1.0000
  H   H2304     1.0  0.70162  0.07886  0.12127  1.0000
  H   H2305     1.0  0.65282  0.17621  0.18481  1.0000
  Fe  Fe150     1.0  0.51945  0.01171  0.23337  1.0000
  H   H2306     1.0  0.94558  0.09699  0.39856  1.0000
  H   H2307     1.0  0.54797  0.19885  0.19292  1.0000
  H   H2308     1.0  0.93805  0.18737  0.47550  1.0000
  H   H2309     1.0  0.93145  0.06841  0.40128  1.0000
  H   H2310     1.0  0.67564  0.17609  0.19458  1.0000
  H   H2311     1.0  0.86339  0.03585  0.13741  1.0000
  H   H2312     1.0  0.98634  0.00756  0.49328  1.0000
  H   H2313     1.0  0.78888  0.11618  0.12597  1.0000
  H   H2314     1.0  0.68701  0.06890  0.01555  1.0000
  C   C1305     1.0  0.57030  0.15444  0.18976  1.0000
  H   H2315     1.0  0.89348  0.02281  0.21698  1.0000
  H   H2316     1.0  0.97192  0.11694  0.42947  1.0000
  H   H2317     1.0  0.89418  0.10546  0.48031  1.0000
  Fe  Fe151     1.0  0.95870  0.12719  0.49356  1.0000
  H   H2318     1.0  0.53105  0.08669  0.21855  1.0000
  H   H2319     1.0  0.64617  0.14508  0.20163  1.0000
  H   H2320     1.0  0.96415  0.19730  0.41309  1.0000
  S   S300      1.0  0.97100  0.09785  0.49475  1.0000
  C   C1306     1.0  0.99775  0.19125  0.24365  1.0000
  H   H2321     1.0  0.72426  0.15280  0.15380  1.0000
  H   H2322     1.0  0.98741  0.00884  0.05237  1.0000
  H   H2323     1.0  0.92052  0.19816  0.39533  1.0000
  H   H2324     1.0  0.60803  0.15229  0.03727  1.0000
  C   C1307     1.0  0.66121  0.14119  0.19921  1.0000
  H   H2325     1.0  0.91698  0.11131  0.44620  1.0000
  Fe  Fe152     1.0  0.94505  0.19125  0.31328  1.0000
  H   H2326     1.0  0.88144  0.04549  0.21401  1.0000
  H   H2327     1.0  0.58307  0.15886  0.18057  1.0000
  C   C1308     1.0  0.55482  0.16988  0.18561  1.0000
  H   H2328     1.0  0.80172  0.09495  0.13379  1.0000
  C   C1309     1.0  0.80451  0.01078  0.26542  1.0000
  C   C1310     1.0  0.64568  0.19116  0.10588  1.0000
  C   C1311     1.0  0.98802  0.07923  0.03648  1.0000
  H   H2329     1.0  0.55380  0.17313  0.16777  1.0000
  H   H2330     1.0  0.54110  0.16547  0.19216  1.0000
  C   C1312     1.0  0.51348  0.00750  0.34785  1.0000
  C   C1313     1.0  0.53068  0.10192  0.21442  1.0000
  H   H2331     1.0  0.78479  0.10546  0.15269  1.0000
  C   C1314     1.0  0.99176  0.19049  0.28316  1.0000
  C   C1315     1.0  0.92128  0.07173  0.41488  1.0000
  H   H2332     1.0  0.91344  0.05780  0.44634  1.0000
  H   H2333     1.0  0.57360  0.15483  0.20741  1.0000
  C   C1316     1.0  0.65944  0.18113  0.14247  1.0000
  H   H2334     1.0  0.90755  0.06808  0.40870  1.0000
  C   C1317     1.0  0.89183  0.02826  0.10969  1.0000
  H   H2335     1.0  0.64737  0.20040  0.09108  1.0000
  H   H2336     1.0  0.94017  0.03649  0.41469  1.0000
  H   H2337     1.0  0.92568  0.11244  0.37624  1.0000
  S   S301      1.0  0.52058  0.01472  0.27004  1.0000
  H   H2338     1.0  0.93046  0.02789  0.44037  1.0000
  H   H2339     1.0  0.70507  0.16838  0.18303  1.0000
  S   S302      1.0  0.97669  0.19239  0.30680  1.0000
  H   H2340     1.0  0.86467  0.00741  0.20734  1.0000
  H   H2341     1.0  0.97027  0.19237  0.25938  1.0000
  C   C1318     1.0  0.98402  0.01174  0.03494  1.0000
  C   C1319     1.0  0.98512  0.19127  0.26184  1.0000
  C   C1320     1.0  0.87204  0.02555  0.17846  1.0000
  H   H2342     1.0  0.64501  0.18307  0.14930  1.0000
  H   H2343     1.0  0.92760  0.02728  0.48022  1.0000
  C   C1321     1.0  0.63579  0.11914  0.01315  1.0000
  C   C1322     1.0  0.98877  0.05957  0.46100  1.0000
  H   H2344     1.0  0.52783  0.10961  0.22972  1.0000
  N   N74       1.0  0.86264  0.01386  0.16239  1.0000
  H   H2345     1.0  0.88762  0.19059  0.38480  1.0000
  H   H2346     1.0  0.83037  0.01304  0.13338  1.0000
  H   H2347     1.0  0.55070  0.01200  0.30996  1.0000
  H   H2348     1.0  0.85988  0.01351  0.12707  1.0000
  C   C1323     1.0  0.67940  0.08209  0.01044  1.0000
  C   C1324     1.0  0.87973  0.03049  0.21819  1.0000
  C   C1325     1.0  0.88831  0.01827  0.13182  1.0000
  H   H2349     1.0  0.88254  0.02330  0.09712  1.0000
  C   C1326     1.0  0.86763  0.02078  0.13941  1.0000
  H   H2350     1.0  0.91748  0.17759  0.46512  1.0000
  C   C1327     1.0  0.59669  0.15873  0.02714  1.0000
  H   H2351     1.0  0.88739  0.02349  0.17713  1.0000
  C   C1328     1.0  0.61247  0.20143  0.19279  1.0000
  H   H2352     1.0  0.89597  0.19620  0.42285  1.0000
  H   H2353     1.0  0.63188  0.19466  0.11376  1.0000
  H   H2354     1.0  0.52179  0.01112  0.36209  1.0000
  H   H2355     1.0  0.93154  0.01296  0.07661  1.0000
  H   H2356     1.0  0.99243  0.19231  0.22728  1.0000
  H   H2357     1.0  0.87459  0.09139  0.47604  1.0000
  H   H2358     1.0  0.85225  0.02953  0.20610  1.0000
  C   C1329     1.0  0.98619  0.04527  0.49943  1.0000
  C   C1330     1.0  0.55914  0.18802  0.19638  1.0000
  H   H2359     1.0  0.94770  0.01482  0.04012  1.0000
  S   S303      1.0  0.86981  0.02620  0.00648  1.0000
  H   H2360     1.0  0.70557  0.01140  0.31295  1.0000
  C   C1331     1.0  0.80877  0.00954  0.15760  1.0000
  H   H2361     1.0  0.56214  0.00601  0.17266  1.0000
  C   C1332     1.0  0.99328  0.04229  0.47547  1.0000
  H   H2362     1.0  0.98352  0.19663  0.37932  1.0000
  H   H2363     1.0  0.56000  0.18590  0.21442  1.0000
  C   C1333     1.0  0.59663  0.14905  0.00526  1.0000
  C   C1334     1.0  0.81132  0.00313  0.24584  1.0000
  C   C1335     1.0  0.97581  0.07182  0.00156  1.0000
  C   C1336     1.0  0.68828  0.07670  0.97031  1.0000
  S   S304      1.0  0.87593  0.06739  0.96069  1.0000
  N   N75       1.0  0.89857  0.12291  0.65912  1.0000
  H   H2364     1.0  0.67096  0.06351  0.80998  1.0000
  H   H2365     1.0  0.76172  0.01986  0.84048  1.0000
  H   H2366     1.0  0.62977  0.05785  0.93774  1.0000
  C   C1337     1.0  0.53266  0.17268  0.94842  1.0000
  Fe  Fe153     1.0  0.90837  0.17414  0.72176  1.0000
  S   S305      1.0  0.93887  0.16538  0.71930  1.0000
  S   S306      1.0  0.88528  0.15308  0.72787  1.0000
  H   H2367     1.0  0.91081  0.12759  0.62689  1.0000
  C   C1338     1.0  0.96845  0.15164  0.78894  1.0000
  Fe  Fe154     1.0  0.93809  0.17866  0.68530  1.0000
  S   S307      1.0  0.95237  0.16118  0.65848  1.0000
  H   H2368     1.0  0.63937  0.12337  0.97796  1.0000
  Fe  Fe155     1.0  0.80447  0.05105  0.80711  1.0000
  S   S308      1.0  0.79991  0.08177  0.79800  1.0000
  S   S309      1.0  0.79560  0.03116  0.78101  1.0000
  Fe  Fe156     1.0  0.81413  0.05985  0.85430  1.0000
  S   S310      1.0  0.80972  0.09063  0.84783  1.0000
  S   S311      1.0  0.81782  0.04751  0.88905  1.0000
  Fe  Fe157     1.0  0.78400  0.08374  0.83038  1.0000
  S   S312      1.0  0.75629  0.10101  0.83327  1.0000
  Fe  Fe158     1.0  0.82605  0.08610  0.81612  1.0000
  S   S313      1.0  0.84974  0.10636  0.80953  1.0000
  S   S314      1.0  0.78737  0.05320  0.83848  1.0000
  S   S315      1.0  0.83172  0.05517  0.82350  1.0000
  Fe  Fe159     1.0  0.94108  0.12312  0.53968  1.0000
  S   S316      1.0  0.96867  0.13292  0.52715  1.0000
  S   S317      1.0  0.92422  0.14052  0.56465  1.0000
  H   H2369     1.0  0.54858  0.09980  0.96986  1.0000
  Fe  Fe160     1.0  0.97824  0.10269  0.52932  1.0000
  H   H2370     1.0  0.78022  0.10782  0.92060  1.0000
  S   S318      1.0  0.95118  0.09309  0.54404  1.0000
  N   N76       1.0  0.68358  0.07880  0.94633  1.0000
  Fe  Fe161     1.0  0.64686  0.10027  0.88067  1.0000
  S   S319      1.0  0.62660  0.08058  0.89694  1.0000
  S   S320      1.0  0.67602  0.08551  0.87715  1.0000
  Fe  Fe162     1.0  0.61787  0.13328  0.88230  1.0000
  S   S321      1.0  0.59655  0.11498  0.89864  1.0000
  S   S322      1.0  0.60774  0.16438  0.88236  1.0000
  Fe  Fe163     1.0  0.61941  0.10357  0.92052  1.0000
  S   S323      1.0  0.61465  0.09706  0.95787  1.0000
  Fe  Fe164     1.0  0.60521  0.09324  0.87387  1.0000
  S   S324      1.0  0.58100  0.07700  0.86001  1.0000
  S   S325      1.0  0.64042  0.12259  0.90534  1.0000
  S   S326      1.0  0.62567  0.11211  0.85627  1.0000
  S   S327      1.0  0.91441  0.20191  0.73554  1.0000
  H   H2371     1.0  0.51433  0.06686  0.81838  1.0000
  S   S328      1.0  0.55429  0.02143  0.78693  1.0000
  C   C1339     1.0  0.57412  0.06120  0.83969  1.0000
  C   C1340     1.0  0.55595  0.05453  0.84092  1.0000
  C   C1341     1.0  0.54968  0.04237  0.82517  1.0000
  C   C1342     1.0  0.56141  0.03669  0.80766  1.0000
  C   C1343     1.0  0.57955  0.04342  0.80635  1.0000
  C   C1344     1.0  0.58586  0.05550  0.82218  1.0000
  H   H2372     1.0  0.54666  0.05872  0.85431  1.0000
  H   H2373     1.0  0.53584  0.03722  0.82679  1.0000
  H   H2374     1.0  0.58886  0.03924  0.79299  1.0000
  H   H2375     1.0  0.59982  0.06046  0.82077  1.0000
  C   C1345     1.0  0.62003  0.10200  0.98566  1.0000
  H   H2376     1.0  0.54378  0.06407  0.71161  1.0000
  H   H2377     1.0  0.66058  0.11285  0.94723  1.0000
  H   H2378     1.0  0.71425  0.07102  0.82363  1.0000
  H   H2379     1.0  0.97040  0.19940  0.53719  1.0000
  H   H2380     1.0  0.70190  0.10151  0.93927  1.0000
  C   C1346     1.0  0.60860  0.18497  0.86497  1.0000
  H   H2381     1.0  0.99403  0.19471  0.61437  1.0000
  H   H2382     1.0  0.62214  0.17195  0.83717  1.0000
  H   H2383     1.0  0.89338  0.09799  0.59832  1.0000
  C   C1347     1.0  0.73440  0.09691  0.84674  1.0000
  C   C1348     1.0  0.71925  0.10971  0.84310  1.0000
  C   C1349     1.0  0.70141  0.10672  0.85257  1.0000
  C   C1350     1.0  0.69841  0.09074  0.86570  1.0000
  C   C1351     1.0  0.71360  0.07801  0.86949  1.0000
  C   C1352     1.0  0.73152  0.08115  0.86034  1.0000
  H   H2384     1.0  0.72128  0.12199  0.83270  1.0000
  H   H2385     1.0  0.68993  0.11665  0.84940  1.0000
  H   H2386     1.0  0.71142  0.06549  0.87934  1.0000
  H   H2387     1.0  0.74300  0.07124  0.86349  1.0000
  C   C1353     1.0  0.53616  0.05532  0.74512  1.0000
  C   C1354     1.0  0.88481  0.11095  0.67146  1.0000
  C   C1355     1.0  0.69605  0.06535  0.93334  1.0000
  C   C1356     1.0  0.94377  0.15536  0.63280  1.0000
  C   C1357     1.0  0.95328  0.14118  0.62097  1.0000
  C   C1358     1.0  0.94750  0.13653  0.60009  1.0000
  C   C1359     1.0  0.93210  0.14602  0.59079  1.0000
  C   C1360     1.0  0.92247  0.16009  0.60269  1.0000
  C   C1361     1.0  0.92827  0.16477  0.62359  1.0000
  H   H2388     1.0  0.96528  0.13381  0.62795  1.0000
  H   H2389     1.0  0.95496  0.12557  0.59119  1.0000
  H   H2390     1.0  0.91051  0.16750  0.59564  1.0000
  H   H2391     1.0  0.92090  0.17581  0.63242  1.0000
  C   C1362     1.0  0.85932  0.11919  0.78648  1.0000
  C   C1363     1.0  0.85270  0.11817  0.76525  1.0000
  C   C1364     1.0  0.86083  0.12859  0.74765  1.0000
  C   C1365     1.0  0.87566  0.14026  0.75091  1.0000
  C   C1366     1.0  0.88230  0.14126  0.77212  1.0000
  C   C1367     1.0  0.87420  0.13081  0.78970  1.0000
  H   H2392     1.0  0.84129  0.10938  0.76241  1.0000
  H   H2393     1.0  0.85549  0.12769  0.73139  1.0000
  H   H2394     1.0  0.89366  0.15010  0.77499  1.0000
  H   H2395     1.0  0.87950  0.13176  0.80597  1.0000
  C   C1368     1.0  0.85993  0.06118  0.94091  1.0000
  C   C1369     1.0  0.84464  0.05049  0.94648  1.0000
  C   C1370     1.0  0.83190  0.04647  0.93041  1.0000
  C   C1371     1.0  0.83417  0.05320  0.90864  1.0000
  C   C1372     1.0  0.84942  0.06393  0.90307  1.0000
  C   C1373     1.0  0.86218  0.06793  0.91913  1.0000
  H   H2396     1.0  0.84252  0.04550  0.96324  1.0000
  H   H2397     1.0  0.82016  0.03812  0.93489  1.0000
  H   H2398     1.0  0.85145  0.06904  0.88633  1.0000
  H   H2399     1.0  0.87389  0.07632  0.91466  1.0000
  H   H2400     1.0  0.83260  0.14223  0.88213  1.0000
  H   H2401     1.0  0.82596  0.12166  0.86900  1.0000
  H   H2402     1.0  0.85241  0.10179  0.94064  1.0000
  H   H2403     1.0  0.96649  0.01714  0.96127  1.0000
  H   H2404     1.0  0.96651  0.05725  0.57032  1.0000
  H   H2405     1.0  0.75575  0.05297  0.76542  1.0000
  H   H2406     1.0  0.91515  0.06175  0.53532  1.0000
  C   C1374     1.0  0.91111  0.01481  0.50632  1.0000
  H   H2407     1.0  0.66218  0.06943  0.98780  1.0000
  H   H2408     1.0  0.72461  0.04748  0.90918  1.0000
  H   H2409     1.0  0.76673  0.06282  0.78813  1.0000
  H   H2410     1.0  0.95798  0.17482  0.51522  1.0000
  H   H2411     1.0  0.69488  0.06791  0.77979  1.0000
  H   H2412     1.0  0.54876  0.11394  0.81812  1.0000
  H   H2413     1.0  0.53279  0.04203  0.75371  1.0000
  H   H2414     1.0  0.83400  0.14946  0.92326  1.0000
  C   C1375     1.0  0.92250  0.04630  0.50650  1.0000
  H   H2415     1.0  0.83883  0.09771  0.66885  1.0000
  C   C1376     1.0  0.61626  0.18486  0.84362  1.0000
  C   C1377     1.0  0.58098  0.15754  0.99050  1.0000
  H   H2416     1.0  0.98824  0.02558  0.55111  1.0000
  H   H2417     1.0  0.65370  0.08357  0.95150  1.0000
  H   H2418     1.0  0.81725  0.17776  0.93667  1.0000
  H   H2419     1.0  0.60949  0.17314  0.96813  1.0000
  H   H2420     1.0  0.89712  0.08799  0.63760  1.0000
  H   H2421     1.0  0.94749  0.06299  0.00219  1.0000
  H   H2422     1.0  0.69387  0.00315  0.77541  1.0000
  H   H2423     1.0  0.55790  0.09154  0.94400  1.0000
  H   H2424     1.0  0.85902  0.11113  0.86366  1.0000
  H   H2425     1.0  0.66851  0.08640  0.79700  1.0000
  S   S329      1.0  0.90763  0.18675  0.68736  1.0000
  H   H2426     1.0  0.69167  0.06535  0.91598  1.0000
  H   H2427     1.0  0.93932  0.17168  0.53538  1.0000
  H   H2428     1.0  0.87316  0.01020  0.86799  1.0000
  C   C1378     1.0  0.90225  0.01734  0.52676  1.0000
  H   H2429     1.0  0.57001  0.17490  0.95352  1.0000
  H   H2430     1.0  0.52030  0.04895  0.78609  1.0000
  H   H2431     1.0  0.57248  0.09068  0.96745  1.0000
  H   H2432     1.0  0.96572  0.01672  0.50599  1.0000
  H   H2433     1.0  0.83098  0.02791  0.70555  1.0000
  H   H2434     1.0  0.76397  0.08166  0.90628  1.0000
  H   H2435     1.0  0.80962  0.17236  0.90991  1.0000
  H   H2436     1.0  0.88783  0.15403  0.62794  1.0000
  H   H2437     1.0  0.89019  0.09616  0.67240  1.0000
  C   C1379     1.0  0.95500  0.02225  0.97240  1.0000
  H   H2438     1.0  0.99696  0.18243  0.85294  1.0000
  H   H2439     1.0  0.54927  0.06006  0.75168  1.0000
  H   H2440     1.0  0.54686  0.19311  0.83703  1.0000
  C   C1380     1.0  0.85327  0.09673  0.67486  1.0000
  H   H2441     1.0  0.91732  0.10469  0.59679  1.0000
  H   H2442     1.0  0.98099  0.17573  0.62544  1.0000
  H   H2443     1.0  0.98921  0.14979  0.84915  1.0000
  H   H2444     1.0  0.55141  0.04056  0.71929  1.0000
  H   H2445     1.0  0.91209  0.08061  0.60173  1.0000
  H   H2446     1.0  0.68461  0.09920  0.91951  1.0000
  H   H2447     1.0  0.54427  0.16812  0.98013  1.0000
  C   C1381     1.0  0.65885  0.05381  0.94680  1.0000
  H   H2448     1.0  0.76334  0.09449  0.77041  1.0000
  H   H2449     1.0  0.63357  0.05894  0.96676  1.0000
  H   H2450     1.0  0.59942  0.17579  0.94152  1.0000
  H   H2451     1.0  0.69455  0.05081  0.93981  1.0000
  C   C1382     1.0  0.67766  0.07705  0.80729  1.0000
  H   H2452     1.0  0.75066  0.03678  0.85867  1.0000
  H   H2453     1.0  0.66294  0.04548  0.93226  1.0000
  H   H2454     1.0  0.70628  0.02178  0.80423  1.0000
  C   C1383     1.0  0.68022  0.13321  0.93705  1.0000
  H   H2455     1.0  0.85713  0.02915  0.87536  1.0000
  C   C1384     1.0  0.67575  0.11451  0.94826  1.0000
  C   C1385     1.0  0.97984  0.18936  0.61629  1.0000
  H   H2456     1.0  0.85049  0.00386  0.93828  1.0000
  H   H2457     1.0  0.98231  0.15145  0.59252  1.0000
  Fe  Fe165     1.0  0.88222  0.05262  0.99363  1.0000
  H   H2458     1.0  0.95914  0.17758  0.59681  1.0000
  H   H2459     1.0  0.88738  0.12143  0.62655  1.0000
  H   H2460     1.0  0.82413  0.04377  0.74056  1.0000
  C   C1386     1.0  0.69674  0.07422  0.79584  1.0000
  H   H2461     1.0  0.86613  0.13178  0.87687  1.0000
  H   H2462     1.0  0.79575  0.13197  0.92729  1.0000
  H   H2463     1.0  0.86781  0.14488  0.64163  1.0000
  C   C1387     1.0  0.91416  0.04868  0.52725  1.0000
  N   N77       1.0  0.72761  0.05417  0.79857  1.0000
  H   H2464     1.0  0.74383  0.05525  0.92410  1.0000
  H   H2465     1.0  0.96140  0.03306  0.57612  1.0000
  H   H2466     1.0  0.74558  0.05752  0.82568  1.0000
  C   C1388     1.0  0.83443  0.03175  0.73963  1.0000
  C   C1389     1.0  0.74103  0.04615  0.81538  1.0000
  H   H2467     1.0  0.67902  0.08360  0.82335  1.0000
  C   C1390     1.0  0.86479  0.11150  0.66291  1.0000
  H   H2468     1.0  0.69337  0.03606  0.78506  1.0000
  H   H2469     1.0  0.56052  0.10670  0.79311  1.0000
  H   H2470     1.0  0.85405  0.13385  0.85139  1.0000
  C   C1391     1.0  0.73685  0.07022  0.78666  1.0000
  S   S330      1.0  0.91172  0.04115  0.99626  1.0000
  C   C1392     1.0  0.53341  0.08329  0.77975  1.0000
  H   H2471     1.0  0.96453  0.20029  0.58829  1.0000
  H   H2472     1.0  0.51815  0.17335  0.95522  1.0000
  C   C1393     1.0  0.53982  0.05125  0.72093  1.0000
  H   H2473     1.0  0.53955  0.14724  0.96626  1.0000
  H   H2474     1.0  0.92824  0.05001  0.92197  1.0000
  H   H2475     1.0  0.99925  0.19541  0.82749  1.0000
  H   H2476     1.0  0.86330  0.17828  0.63825  1.0000
  C   C1394     1.0  0.98060  0.01274  0.50916  1.0000
  H   H2477     1.0  0.98202  0.16757  0.54398  1.0000
  C   C1395     1.0  0.71719  0.06896  0.93284  1.0000
  C   C1396     1.0  0.51971  0.06992  0.74793  1.0000
  H   H2478     1.0  0.94264  0.01383  0.97051  1.0000
  C   C1397     1.0  0.56462  0.19007  0.80780  1.0000
  C   C1398     1.0  0.77665  0.08661  0.89754  1.0000
  C   C1399     1.0  0.95843  0.04543  0.56515  1.0000
  H   H2479     1.0  0.58182  0.17254  0.82991  1.0000
  C   C1400     1.0  0.90740  0.09521  0.60519  1.0000
  H   H2480     1.0  0.83669  0.08572  0.97297  1.0000
  H   H2481     1.0  0.97760  0.07075  0.98400  1.0000
  H   H2482     1.0  0.86297  0.02281  0.91463  1.0000
  H   H2483     1.0  0.83391  0.02386  0.75557  1.0000
  C   C1401     1.0  0.76249  0.08171  0.76078  1.0000
  H   H2484     1.0  0.85935  0.08251  0.67179  1.0000
  H   H2485     1.0  0.53738  0.18715  0.94617  1.0000
  C   C1402     1.0  0.94912  0.18181  0.52803  1.0000
  H   H2486     1.0  0.58294  0.17278  0.98824  1.0000
  H   H2487     1.0  0.95119  0.03699  0.96765  1.0000
  C   C1403     1.0  0.74828  0.02477  0.84828  1.0000
  H   H2488     1.0  0.86014  0.01058  0.63884  1.0000
  C   C1404     1.0  0.68710  0.09825  0.93745  1.0000
  H   H2489     1.0  0.94082  0.19345  0.52008  1.0000
  C   C1405     1.0  0.70641  0.01129  0.77181  1.0000
  N   N78       1.0  0.51559  0.07640  0.77094  1.0000
  H   H2490     1.0  0.66644  0.04755  0.96098  1.0000
  H   H2491     1.0  0.67947  0.11543  0.96565  1.0000
  H   H2492     1.0  0.86458  0.10887  0.64516  1.0000
  C   C1406     1.0  0.50896  0.05998  0.78461  1.0000
  C   C1407     1.0  0.70654  0.02759  0.78725  1.0000
  C   C1408     1.0  0.91739  0.11895  0.66909  1.0000
  C   C1409     1.0  0.91929  0.12491  0.69308  1.0000
  C   C1410     1.0  0.93883  0.11974  0.70118  1.0000
  H   H2493     1.0  0.88692  0.14599  0.67805  1.0000
  C   C1411     1.0  0.57794  0.00550  0.72859  1.0000
  H   H2494     1.0  0.92839  0.12591  0.65900  1.0000
  H   H2495     1.0  0.92124  0.10377  0.66915  1.0000
  H   H2496     1.0  0.88318  0.11520  0.68878  1.0000
  H   H2497     1.0  0.90935  0.11783  0.70440  1.0000
  H   H2498     1.0  0.91678  0.14018  0.69443  1.0000
  H   H2499     1.0  0.79518  0.16730  0.93402  1.0000
  H   H2500     1.0  0.94206  0.10451  0.70007  1.0000
  H   H2501     1.0  0.94940  0.12747  0.69137  1.0000
  H   H2502     1.0  0.93967  0.12346  0.71860  1.0000
  N   N79       1.0  0.57929  0.14858  0.96870  1.0000
  H   H2503     1.0  0.95149  0.19686  0.55728  1.0000
  C   C1412     1.0  0.56566  0.16024  0.95512  1.0000
  C   C1413     1.0  0.56122  0.09895  0.95896  1.0000
  C   C1414     1.0  0.59775  0.14745  0.95626  1.0000
  H   H2504     1.0  0.69505  0.13621  0.93917  1.0000
  C   C1415     1.0  0.99627  0.16062  0.81029  1.0000
  H   H2505     1.0  0.72189  0.07260  0.94920  1.0000
  C   C1416     1.0  0.91542  0.04514  0.93047  1.0000
  C   C1417     1.0  0.97107  0.18672  0.59377  1.0000
  C   C1418     1.0  0.62685  0.16294  0.94176  1.0000
  Fe  Fe166     1.0  0.52936  0.00552  0.77454  1.0000
  H   H2506     1.0  0.97289  0.03037  0.99738  1.0000
  C   C1419     1.0  0.80152  0.00712  0.77674  1.0000
  H   H2507     1.0  0.62562  0.15704  0.92537  1.0000
  H   H2508     1.0  0.56582  0.15533  0.93800  1.0000
  H   H2509     1.0  0.75277  0.08457  0.74717  1.0000
  C   C1420     1.0  0.91403  0.02421  0.92761  1.0000
  H   H2510     1.0  0.60755  0.13722  0.96442  1.0000
  H   H2511     1.0  0.59607  0.14190  0.93969  1.0000
  H   H2512     1.0  0.55606  0.08986  0.81507  1.0000
  C   C1421     1.0  0.96108  0.18942  0.54563  1.0000
  C   C1422     1.0  0.88027  0.15288  0.64402  1.0000
  H   H2513     1.0  0.99169  0.13482  0.88804  1.0000
  H   H2514     1.0  0.84271  0.12363  0.94949  1.0000
  H   H2515     1.0  0.69373  0.06224  0.97440  1.0000
  H   H2516     1.0  0.77224  0.09646  0.88403  1.0000
  C   C1423     1.0  0.54524  0.16128  0.96410  1.0000
  H   H2517     1.0  0.55454  0.18756  0.79502  1.0000
  H   H2518     1.0  0.77655  0.07810  0.75364  1.0000
  H   H2519     1.0  0.75393  0.04017  0.80726  1.0000
  H   H2520     1.0  0.63372  0.17643  0.93957  1.0000
  H   H2521     1.0  0.63573  0.15328  0.95203  1.0000
  H   H2522     1.0  0.62219  0.20117  0.81403  1.0000
  C   C1424     1.0  0.66370  0.07447  0.94213  1.0000
  H   H2523     1.0  0.94335  0.04946  0.56679  1.0000
  H   H2524     1.0  0.73873  0.08174  0.79808  1.0000
  H   H2525     1.0  0.80480  0.13969  0.90161  1.0000
  C   C1425     1.0  0.96331  0.04089  0.54134  1.0000
  H   H2526     1.0  0.80207  0.11110  0.88681  1.0000
  H   H2527     1.0  0.73221  0.01762  0.82140  1.0000
  H   H2528     1.0  0.69988  0.08576  0.97387  1.0000
  C   C1426     1.0  0.87332  0.01753  0.90240  1.0000
  H   H2529     1.0  0.89718  0.03631  0.55311  1.0000
  H   H2530     1.0  0.72013  0.08065  0.92101  1.0000
  H   H2531     1.0  0.81975  0.14458  0.94755  1.0000
  H   H2532     1.0  0.85770  0.12522  0.66627  1.0000
  N   N80       1.0  0.81905  0.11479  0.91490  1.0000
  C   C1427     1.0  0.83728  0.11645  0.90216  1.0000
  C   C1428     1.0  0.82219  0.10466  0.93670  1.0000
  C   C1429     1.0  0.80677  0.10314  0.90171  1.0000
  C   C1430     1.0  0.80903  0.13354  0.91780  1.0000
  C   C1431     1.0  0.81955  0.14827  0.92977  1.0000
  C   C1432     1.0  0.83631  0.12723  0.87972  1.0000
  C   C1433     1.0  0.78879  0.09618  0.91350  1.0000
  C   C1434     1.0  0.84009  0.10864  0.94898  1.0000
  C   C1435     1.0  0.83917  0.10088  0.97258  1.0000
  C   C1436     1.0  0.80974  0.16757  0.92740  1.0000
  C   C1437     1.0  0.85507  0.12590  0.86728  1.0000
  C   C1438     1.0  0.98791  0.19866  0.76119  1.0000
  H   H2533     1.0  0.84368  0.10228  0.89932  1.0000
  H   H2534     1.0  0.84768  0.12347  0.91156  1.0000
  H   H2535     1.0  0.80995  0.10724  0.94799  1.0000
  H   H2536     1.0  0.82324  0.08927  0.93447  1.0000
  H   H2537     1.0  0.81477  0.09046  0.89590  1.0000
  H   H2538     1.0  0.92110  0.09448  0.63567  1.0000
  H   H2539     1.0  0.66420  0.09388  0.98342  1.0000
  C   C1439     1.0  0.89330  0.14346  0.66147  1.0000
  C   C1440     1.0  0.90398  0.03426  0.53728  1.0000
  H   H2540     1.0  0.88354  0.02849  0.89943  1.0000
  C   C1441     1.0  0.90056  0.11836  0.63517  1.0000
  C   C1442     1.0  0.90684  0.09799  0.62992  1.0000
  H   H2541     1.0  0.95902  0.05331  0.53113  1.0000
  H   H2542     1.0  0.90601  0.15178  0.66054  1.0000
  H   H2543     1.0  0.72103  0.04644  0.76570  1.0000
  H   H2544     1.0  0.66045  0.07784  0.92467  1.0000
  C   C1443     1.0  0.72893  0.05186  0.92544  1.0000
  C   C1444     1.0  0.89687  0.01646  0.94032  1.0000
  H   H2545     1.0  0.56723  0.01305  0.73884  1.0000
  C   C1445     1.0  0.53156  0.09895  0.79672  1.0000
  C   C1446     1.0  0.63804  0.05179  0.95150  1.0000
  H   H2546     1.0  0.85266  0.09898  0.69279  1.0000
  H   H2547     1.0  0.70236  0.08827  0.79274  1.0000
  H   H2548     1.0  0.53270  0.16609  0.93222  1.0000
  C   C1447     1.0  0.98447  0.03609  0.53810  1.0000
  H   H2549     1.0  0.95843  0.15844  0.80072  1.0000
  H   H2550     1.0  0.58389  0.12018  0.98099  1.0000
  H   H2551     1.0  0.67752  0.13315  0.91926  1.0000
  H   H2552     1.0  0.54226  0.08918  0.76615  1.0000
  C   C1448     1.0  0.97278  0.17351  0.55716  1.0000
  H   H2553     1.0  0.83521  0.00833  0.63730  1.0000
  H   H2554     1.0  0.57679  0.19708  0.80024  1.0000
  N   N81       1.0  0.99074  0.02953  0.51572  1.0000
  H   H2555     1.0  0.96313  0.16238  0.56246  1.0000
  C   C1449     1.0  0.87366  0.17261  0.65015  1.0000
  H   H2556     1.0  0.63507  0.03680  0.95366  1.0000
  H   H2557     1.0  0.56078  0.12902  0.98482  1.0000
  H   H2558     1.0  0.86195  0.01651  0.95881  1.0000
  C   C1450     1.0  0.60758  0.16614  0.95255  1.0000
  C   C1451     1.0  0.57282  0.12905  0.97294  1.0000
  H   H2559     1.0  0.55609  0.12587  0.94354  1.0000
  C   C1452     1.0  0.63242  0.11556  0.99094  1.0000
  H   H2560     1.0  0.90038  0.01548  0.95799  1.0000
  H   H2561     1.0  0.78437  0.07437  0.89039  1.0000
  C   C1453     1.0  0.82974  0.01935  0.72089  1.0000
  H   H2562     1.0  0.82790  0.10829  0.98215  1.0000
  H   H2563     1.0  0.86701  0.17262  0.66681  1.0000
  C   C1454     1.0  0.96108  0.02113  0.99617  1.0000
  H   H2564     1.0  0.79231  0.08584  0.92685  1.0000
  C   C1455     1.0  0.73405  0.03027  0.83085  1.0000
  C   C1456     1.0  0.71032  0.06206  0.81023  1.0000
  H   H2565     1.0  0.98210  0.13393  0.81325  1.0000
  C   C1457     1.0  0.72355  0.03972  0.78213  1.0000
  C   C1458     1.0  0.75609  0.06549  0.77553  1.0000
  H   H2566     1.0  0.85263  0.10277  0.98049  1.0000
  C   C1459     1.0  0.56754  0.11845  0.95251  1.0000
  C   C1460     1.0  0.55039  0.10255  0.80626  1.0000
  H   H2567     1.0  0.88555  0.18191  0.64949  1.0000
  H   H2568     1.0  0.90322  0.05295  0.92334  1.0000
  H   H2569     1.0  0.84853  0.03722  0.73695  1.0000
  H   H2570     1.0  0.80811  0.00787  0.69012  1.0000
  H   H2571     1.0  0.98528  0.16943  0.81868  1.0000
  H   H2572     1.0  0.88533  0.02725  0.93955  1.0000
  H   H2573     1.0  0.67136  0.14458  0.94444  1.0000
  H   H2574     1.0  0.57900  0.16308  0.80339  1.0000
  H   H2575     1.0  0.91356  0.02168  0.90984  1.0000
  Fe  Fe167     1.0  0.94501  0.19397  0.73047  1.0000
  H   H2576     1.0  0.91601  0.04830  0.94808  1.0000
  H   H2577     1.0  0.81506  0.01552  0.72369  1.0000
  H   H2578     1.0  0.57971  0.11670  0.94118  1.0000
  H   H2579     1.0  0.56005  0.16278  0.82340  1.0000
  H   H2580     1.0  0.54197  0.07140  0.78704  1.0000
  H   H2581     1.0  0.72784  0.07631  0.77352  1.0000
  C   C1461     1.0  0.57177  0.17097  0.81673  1.0000
  H   H2582     1.0  0.72750  0.04005  0.93751  1.0000
  H   H2583     1.0  0.95485  0.02910  0.53706  1.0000
  C   C1462     1.0  0.55594  0.20204  0.82641  1.0000
  H   H2584     1.0  0.52184  0.09555  0.81049  1.0000
  H   H2585     1.0  0.70233  0.05094  0.81859  1.0000
  H   H2586     1.0  0.73605  0.03015  0.77953  1.0000
  C   C1463     1.0  0.86330  0.01540  0.88099  1.0000
  H   H2587     1.0  0.72086  0.03440  0.83962  1.0000
  S   S331      1.0  0.52689  0.00512  0.73765  1.0000
  H   H2588     1.0  0.83668  0.01151  0.67704  1.0000
  C   C1464     1.0  0.67216  0.08075  0.98733  1.0000
  C   C1465     1.0  0.50225  0.06397  0.80839  1.0000
  H   H2589     1.0  0.96162  0.13986  0.78168  1.0000
  H   H2590     1.0  0.52635  0.11223  0.78868  1.0000
  Fe  Fe168     1.0  0.94322  0.09003  0.50909  1.0000
  H   H2591     1.0  0.57398  0.00706  0.71118  1.0000
  H   H2592     1.0  0.92698  0.01711  0.93385  1.0000
  H   H2593     1.0  0.52256  0.08211  0.73671  1.0000
  H   H2594     1.0  0.59152  0.01192  0.73041  1.0000
  H   H2595     1.0  0.50743  0.06333  0.74137  1.0000
  N   N82       1.0  0.98408  0.17866  0.57629  1.0000
  H   H2596     1.0  0.52723  0.04581  0.71375  1.0000
  H   H2597     1.0  0.78185  0.00559  0.75105  1.0000
  C   C1466     1.0  0.61624  0.20150  0.83049  1.0000
  C   C1467     1.0  0.99874  0.18695  0.74754  1.0000
  H   H2598     1.0  0.50637  0.10388  0.75915  1.0000
  H   H2599     1.0  0.99237  0.18043  0.73414  1.0000
  C   C1468     1.0  0.61111  0.09221  0.00308  1.0000
  H   H2600     1.0  0.99200  0.04876  0.54200  1.0000
  H   H2601     1.0  0.56775  0.15654  0.00032  1.0000
  H   H2602     1.0  0.99725  0.14276  0.55724  1.0000
  H   H2603     1.0  0.70610  0.01647  0.75447  1.0000
  H   H2604     1.0  0.95343  0.19812  0.63224  1.0000
  H   H2605     1.0  0.00137  0.01458  0.00443  1.0000
  H   H2606     1.0  0.74303  0.01325  0.85899  1.0000
  H   H2607     1.0  0.60147  0.08172  0.99942  1.0000
  C   C1469     1.0  0.96789  0.20284  0.63031  1.0000
  C   C1470     1.0  0.99311  0.16077  0.58566  1.0000
  S   S332      1.0  0.93035  0.11923  0.50567  1.0000
  H   H2608     1.0  0.61055  0.15057  0.99730  1.0000
  H   H2609     1.0  0.97191  0.16186  0.77554  1.0000
  H   H2610     1.0  0.50287  0.03471  0.81953  1.0000
  C   C1471     1.0  0.98611  0.14440  0.80042  1.0000
  C   C1472     1.0  0.99920  0.19162  0.56897  1.0000
  H   H2611     1.0  0.85727  0.00566  0.72237  1.0000
  H   H2612     1.0  0.59518  0.20238  0.88942  1.0000
  C   C1473     1.0  0.60105  0.20202  0.87293  1.0000
  H   H2613     1.0  0.86027  0.00661  0.68250  1.0000
  H   H2614     1.0  0.99513  0.13740  0.78779  1.0000
  H   H2615     1.0  0.85184  0.00565  0.88348  1.0000
  H   H2616     1.0  0.82223  0.00384  0.80139  1.0000
  S   S333      1.0  0.96360  0.20304  0.75766  1.0000
  H   H2617     1.0  0.00164  0.16929  0.79627  1.0000
  H   H2618     1.0  0.66844  0.23630  0.18906  1.0000
  C   C1474     1.0  0.67454  0.20360  0.16573  1.0000
  Fe  Fe169     1.0  0.91112  0.21508  0.33115  1.0000
  S   S334      1.0  0.89618  0.24170  0.34488  1.0000
  C   C1475     1.0  0.89534  0.20828  0.41102  1.0000
  Fe  Fe170     1.0  0.59680  0.30655  0.17362  1.0000
  S   S335      1.0  0.62033  0.29114  0.19157  1.0000
  S   S336      1.0  0.60291  0.32072  0.14026  1.0000
  Fe  Fe171     1.0  0.56896  0.30112  0.21192  1.0000
  S   S337      1.0  0.59038  0.28507  0.23177  1.0000
  S   S338      1.0  0.54027  0.31239  0.22437  1.0000
  Fe  Fe172     1.0  0.61041  0.30730  0.22126  1.0000
  S   S339      1.0  0.62581  0.31987  0.24983  1.0000
  Fe  Fe173     1.0  0.59873  0.27010  0.20064  1.0000
  S   S340      1.0  0.60610  0.23836  0.20366  1.0000
  S   S341      1.0  0.58849  0.32390  0.20258  1.0000
  S   S342      1.0  0.57570  0.28487  0.18132  1.0000
  S   S343      1.0  0.71753  0.38101  0.32549  1.0000
  Fe  Fe174     1.0  0.70143  0.39354  0.29681  1.0000
  S   S344      1.0  0.68731  0.37998  0.26796  1.0000
  H   H2619     1.0  0.95665  0.38915  0.49873  1.0000
  H   H2620     1.0  0.54190  0.28606  0.31942  1.0000
  Fe  Fe175     1.0  0.55288  0.36141  0.03557  1.0000
  C   C1476     1.0  0.88231  0.20341  0.39301  1.0000
  S   S345      1.0  0.54736  0.33918  0.06222  1.0000
  C   C1477     1.0  0.53450  0.38194  0.09818  1.0000
  H   H2621     1.0  0.55826  0.36986  0.43648  1.0000
  C   C1478     1.0  0.93259  0.20554  0.43582  1.0000
  Fe  Fe176     1.0  0.90146  0.35051  0.38538  1.0000
  S   S346      1.0  0.89049  0.37494  0.36434  1.0000
  S   S347      1.0  0.91585  0.32474  0.36954  1.0000
  Fe  Fe177     1.0  0.89396  0.37168  0.42898  1.0000
  S   S348      1.0  0.89420  0.36691  0.46708  1.0000
  Fe  Fe178     1.0  0.86723  0.37744  0.38985  1.0000
  C   C1479     1.0  0.57899  0.32057  0.31318  1.0000
  H   H2622     1.0  0.86080  0.27664  0.33002  1.0000
  S   S349      1.0  0.87743  0.35206  0.40975  1.0000
  S   S350      1.0  0.91896  0.36837  0.40567  1.0000
  C   C1480     1.0  0.89620  0.37382  0.49509  1.0000
  S   S351      1.0  0.58168  0.36936  0.02578  1.0000
  H   H2623     1.0  0.76870  0.33177  0.34280  1.0000
  C   C1481     1.0  0.53664  0.36846  0.47120  1.0000
  H   H2624     1.0  0.83364  0.35039  0.34088  1.0000
  H   H2625     1.0  0.88540  0.34544  0.32994  1.0000
  C   C1482     1.0  0.59627  0.29723  0.04536  1.0000
  C   C1483     1.0  0.91743  0.25379  0.40838  1.0000
  H   H2626     1.0  0.56452  0.39862  0.44548  1.0000
  H   H2627     1.0  0.95245  0.33512  0.46927  1.0000
  C   C1484     1.0  0.52544  0.30283  0.24525  1.0000
  C   C1485     1.0  0.52782  0.28436  0.25309  1.0000
  S   S352      1.0  0.83545  0.38115  0.38593  1.0000
  C   C1486     1.0  0.51066  0.31411  0.25400  1.0000
  H   H2628     1.0  0.53914  0.27552  0.24659  1.0000
  H   H2629     1.0  0.86563  0.32013  0.34186  1.0000
  C   C1487     1.0  0.50511  0.37907  0.07663  1.0000
  C   C1488     1.0  0.60603  0.21937  0.18540  1.0000
  H   H2630     1.0  0.67623  0.39019  0.42300  1.0000
  C   C1489     1.0  0.59975  0.22155  0.16397  1.0000
  C   C1490     1.0  0.51526  0.27718  0.26908  1.0000
  H   H2631     1.0  0.59468  0.23516  0.15800  1.0000
  C   C1491     1.0  0.58726  0.32527  0.11865  1.0000
  C   C1492     1.0  0.56927  0.31865  0.11934  1.0000
  C   C1493     1.0  0.55729  0.32281  0.10181  1.0000
  C   C1494     1.0  0.56310  0.33374  0.08355  1.0000
  C   C1495     1.0  0.58115  0.34017  0.08277  1.0000
  C   C1496     1.0  0.59316  0.33591  0.10020  1.0000
  H   H2632     1.0  0.56461  0.31034  0.13338  1.0000
  H   H2633     1.0  0.54339  0.31767  0.10251  1.0000
  H   H2634     1.0  0.58578  0.34871  0.06897  1.0000
  H   H2635     1.0  0.60705  0.34109  0.09953  1.0000
  C   C1497     1.0  0.64282  0.33686  0.25433  1.0000
  C   C1498     1.0  0.64778  0.34017  0.27598  1.0000
  C   C1499     1.0  0.66112  0.35332  0.28054  1.0000
  C   C1500     1.0  0.66996  0.36335  0.26345  1.0000
  C   C1501     1.0  0.66501  0.36004  0.24179  1.0000
  C   C1502     1.0  0.65154  0.34701  0.23725  1.0000
  H   H2636     1.0  0.64139  0.33235  0.28938  1.0000
  H   H2637     1.0  0.66473  0.35552  0.29727  1.0000
  H   H2638     1.0  0.67176  0.36751  0.22835  1.0000
  H   H2639     1.0  0.64807  0.34467  0.22050  1.0000
  H   H2640     1.0  0.50887  0.32851  0.24835  1.0000
  S   S353      1.0  0.77125  0.39715  0.31585  1.0000
  H   H2641     1.0  0.54426  0.39632  0.41024  1.0000
  C   C1503     1.0  0.85949  0.33454  0.34264  1.0000
  C   C1504     1.0  0.61162  0.29762  0.06250  1.0000
  C   C1505     1.0  0.87042  0.34633  0.32592  1.0000
  H   H2642     1.0  0.55557  0.38068  0.37688  1.0000
  C   C1506     1.0  0.57515  0.29066  0.29456  1.0000
  C   C1507     1.0  0.90216  0.26461  0.35189  1.0000
  C   C1508     1.0  0.91985  0.27141  0.34750  1.0000
  C   C1509     1.0  0.92370  0.28978  0.35302  1.0000
  C   C1510     1.0  0.91001  0.30166  0.36302  1.0000
  C   C1511     1.0  0.89238  0.29479  0.36764  1.0000
  C   C1512     1.0  0.88855  0.27640  0.36221  1.0000
  H   H2643     1.0  0.93050  0.26258  0.33966  1.0000
  H   H2644     1.0  0.93741  0.29486  0.34941  1.0000
  H   H2645     1.0  0.88181  0.30356  0.37565  1.0000
  H   H2646     1.0  0.87494  0.27121  0.36610  1.0000
  C   C1513     1.0  0.53273  0.34735  0.47275  1.0000
  C   C1514     1.0  0.58416  0.30255  0.00869  1.0000
  H   H2647     1.0  0.53910  0.33206  0.15718  1.0000
  H   H2648     1.0  0.51201  0.36766  0.06704  1.0000
  Fe  Fe179     1.0  0.73922  0.40234  0.31817  1.0000
  H   H2649     1.0  0.99025  0.39473  0.50266  1.0000
  H   H2650     1.0  0.63210  0.32210  0.03966  1.0000
  C   C1515     1.0  0.62565  0.33003  0.02583  1.0000
  H   H2651     1.0  0.58432  0.30546  0.05278  1.0000
  H   H2652     1.0  0.96046  0.36192  0.44486  1.0000
  C   C1516     1.0  0.65582  0.21361  0.17284  1.0000
  H   H2653     1.0  0.61178  0.32392  0.33684  1.0000
  C   C1517     1.0  0.55230  0.35866  0.15177  1.0000
  C   C1518     1.0  0.81803  0.38637  0.36607  1.0000
  H   H2654     1.0  0.97878  0.24459  0.29413  1.0000
  Fe  Fe180     1.0  0.90679  0.39288  0.38575  1.0000
  C   C1519     1.0  0.54350  0.34385  0.16682  1.0000
  H   H2655     1.0  0.55572  0.33878  0.49392  1.0000
  H   H2656     1.0  0.50717  0.39625  0.41862  1.0000
  H   H2657     1.0  0.94382  0.23031  0.38859  1.0000
  H   H2658     1.0  0.74889  0.36772  0.38451  1.0000
  H   H2659     1.0  0.91374  0.22105  0.38662  1.0000
  C   C1520     1.0  0.52215  0.30746  0.32967  1.0000
  C   C1521     1.0  0.78476  0.39081  0.35805  1.0000
  H   H2660     1.0  0.53988  0.35631  0.42885  1.0000
  H   H2661     1.0  0.90618  0.24996  0.39760  1.0000
  H   H2662     1.0  0.50984  0.36596  0.10800  1.0000
  C   C1522     1.0  0.91100  0.27186  0.41947  1.0000
  H   H2663     1.0  0.92171  0.27625  0.43068  1.0000
  H   H2664     1.0  0.92994  0.25688  0.39807  1.0000
  C   C1523     1.0  0.60757  0.33611  0.32613  1.0000
  H   H2665     1.0  0.97068  0.21661  0.36796  1.0000
  H   H2666     1.0  0.60726  0.32029  0.29707  1.0000
  H   H2667     1.0  0.56697  0.39577  0.08248  1.0000
  H   H2668     1.0  0.90876  0.28318  0.40689  1.0000
  H   H2669     1.0  0.61390  0.27788  0.01478  1.0000
  H   H2670     1.0  0.86912  0.34109  0.30917  1.0000
  H   H2671     1.0  0.73286  0.39466  0.43300  1.0000
  H   H2672     1.0  0.55858  0.39893  0.47431  1.0000
  H   H2673     1.0  0.96689  0.25429  0.27025  1.0000
  H   H2674     1.0  0.84397  0.30414  0.31433  1.0000
  H   H2675     1.0  0.56661  0.34365  0.23522  1.0000
  C   C1524     1.0  0.59752  0.32977  0.30620  1.0000
  H   H2676     1.0  0.80375  0.35370  0.33233  1.0000
  C   C1525     1.0  0.73994  0.37341  0.39808  1.0000
  C   C1526     1.0  0.57064  0.35052  0.25022  1.0000
  H   H2677     1.0  0.93205  0.24308  0.43703  1.0000
  H   H2678     1.0  0.52471  0.36933  0.14238  1.0000
  H   H2679     1.0  0.59849  0.34605  0.33565  1.0000
  H   H2680     1.0  0.61540  0.26272  0.28381  1.0000
  C   C1527     1.0  0.79646  0.34289  0.34219  1.0000
  H   H2681     1.0  0.57189  0.28309  0.31025  1.0000
  N   N83       1.0  0.56894  0.31102  0.29562  1.0000
  H   H2682     1.0  0.60156  0.29379  0.27555  1.0000
  H   H2683     1.0  0.77756  0.33860  0.31574  1.0000
  C   C1528     1.0  0.56277  0.34024  0.27046  1.0000
  C   C1529     1.0  0.60580  0.28734  0.08378  1.0000
  H   H2684     1.0  0.83668  0.38881  0.33804  1.0000
  H   H2685     1.0  0.61629  0.28909  0.09644  1.0000
  H   H2686     1.0  0.53661  0.35398  0.12378  1.0000
  H   H2687     1.0  0.83696  0.33431  0.31983  1.0000
  H   H2688     1.0  0.62033  0.34328  0.32062  1.0000
  C   C1530     1.0  0.54195  0.30125  0.32239  1.0000
  C   C1531     1.0  0.99326  0.23905  0.26293  1.0000
  H   H2689     1.0  0.58656  0.32038  0.26823  1.0000
  H   H2690     1.0  0.68100  0.21182  0.15197  1.0000
  H   H2691     1.0  0.94688  0.20710  0.44182  1.0000
  H   H2692     1.0  0.54039  0.30657  0.28750  1.0000
  H   H2693     1.0  0.59473  0.20796  0.13384  1.0000
  H   H2694     1.0  0.76950  0.35607  0.33468  1.0000
  H   H2695     1.0  0.80821  0.32078  0.32278  1.0000
  H   H2696     1.0  0.64599  0.39290  0.21431  1.0000
  C   C1532     1.0  0.94295  0.34776  0.46832  1.0000
  H   H2697     1.0  0.87559  0.39416  0.32424  1.0000
  H   H2698     1.0  0.60478  0.27221  0.08110  1.0000
  H   H2699     1.0  0.86527  0.36116  0.32623  1.0000
  C   C1533     1.0  0.92166  0.23799  0.42575  1.0000
  H   H2700     1.0  0.56991  0.33193  0.32041  1.0000
  H   H2701     1.0  0.79562  0.38480  0.39024  1.0000
  H   H2702     1.0  0.72524  0.37055  0.39481  1.0000
  S   S354      1.0  0.92109  0.20726  0.29696  1.0000
  S   S355      1.0  0.54166  0.39113  0.03763  1.0000
  H   H2703     1.0  0.59262  0.26054  0.27309  1.0000
  H   H2704     1.0  0.66286  0.24141  0.16066  1.0000
  H   H2705     1.0  0.96706  0.22959  0.27671  1.0000
  C   C1534     1.0  0.51313  0.37935  0.09949  1.0000
  C   C1535     1.0  0.97543  0.24220  0.27685  1.0000
  H   H2706     1.0  0.58607  0.35075  0.25064  1.0000
  H   H2707     1.0  0.90497  0.20835  0.45327  1.0000
  H   H2708     1.0  0.59176  0.28262  0.04460  1.0000
  H   H2709     1.0  0.52147  0.32233  0.33421  1.0000
  H   H2710     1.0  0.52914  0.37507  0.48540  1.0000
  H   H2711     1.0  0.90870  0.23675  0.43585  1.0000
  H   H2712     1.0  0.61379  0.31226  0.06670  1.0000
  C   C1536     1.0  0.60504  0.32521  0.02287  1.0000
  H   H2713     1.0  0.51756  0.34525  0.47269  1.0000
  C   C1537     1.0  0.80787  0.39303  0.32873  1.0000
  H   H2714     1.0  0.89380  0.37402  0.29878  1.0000
  H   H2715     1.0  0.98452  0.21891  0.39192  1.0000
  H   H2716     1.0  0.53691  0.31650  0.00735  1.0000
  H   H2717     1.0  0.82206  0.29308  0.31828  1.0000
  C   C1538     1.0  0.91995  0.20707  0.45685  1.0000
  H   H2718     1.0  0.60415  0.29008  0.30466  1.0000
  H   H2719     1.0  0.55707  0.36971  0.16209  1.0000
  H   H2720     1.0  0.79495  0.34743  0.35935  1.0000
  C   C1539     1.0  0.95396  0.36473  0.46120  1.0000
  H   H2721     1.0  0.66193  0.40161  0.19355  1.0000
  H   H2722     1.0  0.56730  0.28386  0.28177  1.0000
  S   S356      1.0  0.88256  0.39712  0.41018  1.0000
  H   H2723     1.0  0.50266  0.32568  0.20786  1.0000
  N   N84       1.0  0.53128  0.37879  0.45018  1.0000
  H   H2724     1.0  0.59618  0.25721  0.30219  1.0000
  C   C1540     1.0  0.51092  0.37577  0.44653  1.0000
  N   N85       1.0  0.92859  0.21938  0.41706  1.0000
  C   C1541     1.0  0.83847  0.33574  0.33777  1.0000
  C   C1542     1.0  0.54031  0.33825  0.49386  1.0000
  H   H2725     1.0  0.50568  0.39087  0.10825  1.0000
  C   C1543     1.0  0.97534  0.20963  0.38349  1.0000
  H   H2726     1.0  0.51710  0.26281  0.27484  1.0000
  H   H2727     1.0  0.50932  0.36227  0.43844  1.0000
  H   H2728     1.0  0.56547  0.31167  0.26055  1.0000
  C   C1544     1.0  0.54216  0.38120  0.40919  1.0000
  C   C1545     1.0  0.95771  0.39900  0.43028  1.0000
  H   H2729     1.0  0.50315  0.37430  0.46253  1.0000
  C   C1546     1.0  0.94662  0.22252  0.40433  1.0000
  H   H2730     1.0  0.64498  0.21256  0.16050  1.0000
  H   H2731     1.0  0.64221  0.35373  0.03173  1.0000
  C   C1547     1.0  0.54826  0.31197  0.30115  1.0000
  H   H2732     1.0  0.56481  0.36513  0.24954  1.0000
  C   C1548     1.0  0.56483  0.38152  0.11502  1.0000
  H   H2733     1.0  0.79831  0.31287  0.34830  1.0000
  C   C1549     1.0  0.53422  0.39922  0.45328  1.0000
  H   H2734     1.0  0.95571  0.23137  0.41365  1.0000
  H   H2735     1.0  0.59640  0.33206  0.03599  1.0000
  H   H2736     1.0  0.81132  0.39513  0.31149  1.0000
  H   H2737     1.0  0.58194  0.31056  0.32711  1.0000
  H   H2738     1.0  0.59482  0.34229  0.29541  1.0000
  H   H2739     1.0  0.55175  0.36946  0.47407  1.0000
  H   H2740     1.0  0.56873  0.36777  0.10803  1.0000
  C   C1550     1.0  0.88500  0.40086  0.31200  1.0000
  H   H2741     1.0  0.53657  0.32341  0.49511  1.0000
  H   H2742     1.0  0.54310  0.32672  0.30287  1.0000
  H   H2743     1.0  0.56499  0.34861  0.28497  1.0000
  H   H2744     1.0  0.54750  0.33962  0.26844  1.0000
  H   H2745     1.0  0.64465  0.24107  0.18151  1.0000
  C   C1551     1.0  0.57161  0.32014  0.27318  1.0000
  C   C1552     1.0  0.79916  0.38717  0.37307  1.0000
  H   H2746     1.0  0.54158  0.39629  0.16509  1.0000
  H   H2747     1.0  0.56044  0.30413  0.03250  1.0000
  H   H2748     1.0  0.59215  0.29310  0.09014  1.0000
  H   H2749     1.0  0.53948  0.33970  0.45898  1.0000
  C   C1553     1.0  0.54340  0.37090  0.43179  1.0000
  H   H2750     1.0  0.55130  0.30344  0.33608  1.0000
  C   C1554     1.0  0.59620  0.28626  0.29033  1.0000
  C   C1555     1.0  0.77689  0.34218  0.33330  1.0000
  C   C1556     1.0  0.82230  0.38944  0.34376  1.0000
  H   H2751     1.0  0.56487  0.35197  0.14379  1.0000
  H   H2752     1.0  0.96980  0.38876  0.42952  1.0000
  H   H2753     1.0  0.96515  0.36588  0.47307  1.0000
  N   N86       1.0  0.82633  0.32230  0.35043  1.0000
  C   C1557     1.0  0.83367  0.30229  0.34883  1.0000
  C   C1558     1.0  0.82398  0.32759  0.37420  1.0000
  C   C1559     1.0  0.60026  0.26539  0.28719  1.0000
  C   C1560     1.0  0.80726  0.32368  0.34056  1.0000
  C   C1561     1.0  0.83827  0.31890  0.39060  1.0000
  C   C1562     1.0  0.83512  0.32712  0.41325  1.0000
  C   C1563     1.0  0.84611  0.27554  0.32539  1.0000
  H   H2754     1.0  0.82428  0.29291  0.35840  1.0000
  H   H2755     1.0  0.84739  0.30007  0.35655  1.0000
  H   H2756     1.0  0.82386  0.34304  0.37556  1.0000
  H   H2757     1.0  0.81017  0.32346  0.38106  1.0000
  C   C1564     1.0  0.78896  0.39366  0.33572  1.0000
  H   H2758     1.0  0.57282  0.38176  0.13021  1.0000
  H   H2759     1.0  0.86176  0.34013  0.35898  1.0000
  C   C1565     1.0  0.83590  0.29472  0.32533  1.0000
  H   H2760     1.0  0.83670  0.30361  0.39260  1.0000
  H   H2761     1.0  0.85276  0.32125  0.38515  1.0000
  H   H2762     1.0  0.82108  0.32399  0.42007  1.0000
  H   H2763     1.0  0.84572  0.32098  0.42457  1.0000
  H   H2764     1.0  0.83640  0.34250  0.41233  1.0000
  H   H2765     1.0  0.89768  0.27004  0.42881  1.0000
  H   H2766     1.0  0.83918  0.26560  0.33696  1.0000
  H   H2767     1.0  0.84617  0.26983  0.30872  1.0000
  H   H2768     1.0  0.51765  0.29884  0.34414  1.0000
  H   H2769     1.0  0.93614  0.34979  0.48471  1.0000
  H   H2770     1.0  0.97820  0.39357  0.46471  1.0000
  C   C1566     1.0  0.74222  0.39440  0.39923  1.0000
  H   H2771     1.0  0.93006  0.37989  0.44852  1.0000
  C   C1567     1.0  0.94104  0.38265  0.46019  1.0000
  H   H2772     1.0  0.65064  0.20745  0.18863  1.0000
  H   H2773     1.0  0.54089  0.37033  0.08848  1.0000
  H   H2774     1.0  0.00121  0.22693  0.27023  1.0000
  H   H2775     1.0  0.57118  0.37553  0.39901  1.0000
  C   C1568     1.0  0.65820  0.23435  0.17618  1.0000
  H   H2776     1.0  0.52846  0.37909  0.40207  1.0000
  C   C1569     1.0  0.95863  0.20476  0.39829  1.0000
  H   H2777     1.0  0.60058  0.39493  0.11244  1.0000
  H   H2778     1.0  0.51228  0.30564  0.31637  1.0000
  H   H2779     1.0  0.88896  0.22069  0.41911  1.0000
  C   C1570     1.0  0.53849  0.36624  0.13411  1.0000
  H   H2780     1.0  0.90967  0.39223  0.29246  1.0000
  H   H2781     1.0  0.93207  0.34541  0.45632  1.0000
  H   H2782     1.0  0.66033  0.20900  0.12577  1.0000
  S   S357      1.0  0.69086  0.39587  0.37919  1.0000
  H   H2783     1.0  0.74406  0.36614  0.41365  1.0000
  C   C1571     1.0  0.55701  0.37337  0.39311  1.0000
  N   N87       1.0  0.54410  0.38280  0.11979  1.0000
  H   H2784     1.0  0.62207  0.35934  0.01561  1.0000
  H   H2785     1.0  0.99720  0.26775  0.25247  1.0000
  H   H2786     1.0  0.62984  0.29441  0.02156  1.0000
  H   H2787     1.0  0.93351  0.38399  0.47626  1.0000
  H   H2788     1.0  0.62497  0.29093  0.05668  1.0000
  C   C1572     1.0  0.59983  0.20605  0.15028  1.0000
  N   N88       1.0  0.95028  0.40047  0.45358  1.0000
  H   H2789     1.0  0.75712  0.39658  0.40198  1.0000
  C   C1573     1.0  0.72968  0.40290  0.41781  1.0000
  H   H2790     1.0  0.56696  0.32641  0.02081  1.0000
  N   N89       1.0  0.60094  0.30476  0.02254  1.0000
  H   H2791     1.0  0.73250  0.39710  0.23030  1.0000
  H   H2792     1.0  0.61948  0.35482  0.04495  1.0000
  C   C1574     1.0  0.53788  0.40101  0.12992  1.0000
  H   H2793     1.0  0.90858  0.38160  0.31968  1.0000
  C   C1575     1.0  0.91509  0.21180  0.40156  1.0000
  H   H2794     1.0  0.92339  0.21960  0.46584  1.0000
  C   C1576     1.0  0.56544  0.31151  0.01734  1.0000
  H   H2795     1.0  0.88095  0.21504  0.38060  1.0000
  C   C1577     1.0  0.90022  0.38633  0.30536  1.0000
  H   H2796     1.0  0.77036  0.39111  0.36362  1.0000
  H   H2797     1.0  0.55539  0.35823  0.39100  1.0000
  H   H2798     1.0  0.73843  0.40064  0.38302  1.0000
  H   H2799     1.0  0.68395  0.20486  0.17967  1.0000
  H   H2800     1.0  0.59775  0.38027  0.08931  1.0000
  H   H2801     1.0  0.98905  0.23550  0.24630  1.0000
  H   H2802     1.0  0.71506  0.39981  0.41443  1.0000
  C   C1578     1.0  0.62736  0.35076  0.02978  1.0000
  H   H2803     1.0  0.53129  0.34993  0.17610  1.0000
  H   H2804     1.0  0.55383  0.33823  0.17877  1.0000
  H   H2805     1.0  0.50693  0.39263  0.06768  1.0000
  C   C1579     1.0  0.59386  0.39401  0.09641  1.0000
  C   C1580     1.0  0.90033  0.39198  0.50048  1.0000
  H   H2806     1.0  0.94721  0.39328  0.41968  1.0000
  H   H2807     1.0  0.53656  0.39488  0.08800  1.0000
  C   C1581     1.0  0.57270  0.39665  0.09904  1.0000
  Fe  Fe181     1.0  0.57003  0.39890  0.02530  1.0000
  H   H2808     1.0  0.52264  0.40142  0.13354  1.0000
  H   H2809     1.0  0.90197  0.40246  0.48757  1.0000
  C   C1582     1.0  0.61680  0.29296  0.01272  1.0000
  C   C1583     1.0  0.96191  0.40285  0.49321  1.0000
  H   H2810     1.0  0.58196  0.28747  0.00640  1.0000
  H   H2811     1.0  0.63413  0.32680  0.01085  1.0000
  H   H2812     1.0  0.60072  0.33263  0.00739  1.0000
  Fe  Fe182     1.0  0.91618  0.21383  0.70093  1.0000
  C   C1584     1.0  0.92900  0.24976  0.75583  1.0000
  S   S358      1.0  0.90147  0.24292  0.69657  1.0000
  H   H2813     1.0  0.86427  0.37642  0.56827  1.0000
  H   H2814     1.0  0.92800  0.25228  0.66049  1.0000
  H   H2815     1.0  0.95781  0.28040  0.75787  1.0000
  H   H2816     1.0  0.98092  0.23794  0.70289  1.0000
  Fe  Fe183     1.0  0.57211  0.36825  0.99108  1.0000
  S   S359      1.0  0.59201  0.35458  0.96589  1.0000
  H   H2817     1.0  0.89349  0.35501  0.54772  1.0000
  Fe  Fe184     1.0  0.58173  0.29979  0.85422  1.0000
  S   S360      1.0  0.61140  0.29170  0.84418  1.0000
  S   S361      1.0  0.56727  0.30619  0.88709  1.0000
  Fe  Fe185     1.0  0.56733  0.29675  0.80712  1.0000
  S   S362      1.0  0.59591  0.28823  0.79385  1.0000
  S   S363      1.0  0.54171  0.30807  0.78870  1.0000
  Fe  Fe186     1.0  0.59827  0.26962  0.82473  1.0000
  S   S364      1.0  0.60920  0.23912  0.82104  1.0000
  Fe  Fe187     1.0  0.60712  0.31071  0.81401  1.0000
  S   S365      1.0  0.62096  0.33745  0.80096  1.0000
  S   S366      1.0  0.56889  0.27694  0.83631  1.0000
  S   S367      1.0  0.57832  0.31991  0.82583  1.0000
  C   C1585     1.0  0.56188  0.37577  0.89520  1.0000
  H   H2818     1.0  0.60362  0.36669  0.55920  1.0000
  S   S368      1.0  0.69218  0.36176  0.74247  1.0000
  Fe  Fe188     1.0  0.90446  0.34950  0.64083  1.0000
  S   S369      1.0  0.92257  0.37276  0.62800  1.0000
  S   S370      1.0  0.91792  0.31971  0.64402  1.0000
  Fe  Fe189     1.0  0.86909  0.37579  0.64160  1.0000
  H   H2819     1.0  0.60392  0.30187  0.73554  1.0000
  Fe  Fe190     1.0  0.89922  0.38067  0.60464  1.0000
  H   H2820     1.0  0.62000  0.31200  0.98357  1.0000
  H   H2821     1.0  0.51362  0.25722  0.75031  1.0000
  S   S371      1.0  0.88227  0.35663  0.61628  1.0000
  S   S372      1.0  0.89021  0.36688  0.66702  1.0000
  C   C1586     1.0  0.90866  0.24791  0.76328  1.0000
  C   C1587     1.0  0.89979  0.38352  0.54006  1.0000
  H   H2822     1.0  0.54614  0.23617  0.77434  1.0000
  H   H2823     1.0  0.63208  0.30675  0.75716  1.0000
  H   H2824     1.0  0.86765  0.34208  0.57586  1.0000
  H   H2825     1.0  0.56769  0.35512  0.84574  1.0000
  H   H2826     1.0  0.54099  0.32665  0.85424  1.0000
  H   H2827     1.0  0.57501  0.24300  0.75410  1.0000
  C   C1588     1.0  0.82030  0.39611  0.67603  1.0000
  C   C1589     1.0  0.52409  0.29748  0.77427  1.0000
  C   C1590     1.0  0.52581  0.27890  0.76805  1.0000
  H   H2828     1.0  0.58833  0.23940  0.77852  1.0000
  H   H2829     1.0  0.65121  0.29607  0.98941  1.0000
  H   H2830     1.0  0.53798  0.27041  0.77251  1.0000
  H   H2831     1.0  0.90005  0.24490  0.74913  1.0000
  H   H2832     1.0  0.64244  0.29153  0.96292  1.0000
  C   C1591     1.0  0.60882  0.21857  0.83852  1.0000
  C   C1592     1.0  0.56268  0.35660  0.86300  1.0000
  C   C1593     1.0  0.60127  0.21870  0.85992  1.0000
  H   H2833     1.0  0.58913  0.34365  0.58505  1.0000
  H   H2834     1.0  0.59578  0.23168  0.86654  1.0000
  C   C1594     1.0  0.64070  0.34353  0.78411  1.0000
  C   C1595     1.0  0.64092  0.36154  0.77414  1.0000
  C   C1596     1.0  0.65628  0.36719  0.76095  1.0000
  C   C1597     1.0  0.67193  0.35509  0.75798  1.0000
  C   C1598     1.0  0.67170  0.33709  0.76792  1.0000
  C   C1599     1.0  0.65620  0.33130  0.78080  1.0000
  H   H2835     1.0  0.62910  0.37121  0.77657  1.0000
  H   H2836     1.0  0.65612  0.38097  0.75320  1.0000
  H   H2837     1.0  0.68367  0.32754  0.76573  1.0000
  H   H2838     1.0  0.65639  0.31746  0.78838  1.0000
  C   C1600     1.0  0.58487  0.34141  0.94387  1.0000
  C   C1601     1.0  0.56641  0.33650  0.94216  1.0000
  C   C1602     1.0  0.56135  0.32562  0.92474  1.0000
  C   C1603     1.0  0.57456  0.31982  0.90863  1.0000
  C   C1604     1.0  0.59297  0.32496  0.91014  1.0000
  C   C1605     1.0  0.59810  0.33559  0.92778  1.0000
  H   H2839     1.0  0.55605  0.34103  0.95429  1.0000
  H   H2840     1.0  0.54706  0.32175  0.92368  1.0000
  H   H2841     1.0  0.60328  0.32052  0.89789  1.0000
  H   H2842     1.0  0.61242  0.33932  0.92898  1.0000
  C   C1606     1.0  0.84774  0.31872  0.64045  1.0000
  H   H2843     1.0  0.53112  0.24285  0.83665  1.0000
  H   H2844     1.0  0.62840  0.35877  0.86781  1.0000
  C   C1607     1.0  0.55774  0.23320  0.80733  1.0000
  C   C1608     1.0  0.78641  0.39865  0.68338  1.0000
  H   H2845     1.0  0.62515  0.38180  0.85491  1.0000
  H   H2846     1.0  0.77013  0.38394  0.66131  1.0000
  H   H2847     1.0  0.86028  0.31845  0.67176  1.0000
  C   C1609     1.0  0.90627  0.26399  0.68148  1.0000
  C   C1610     1.0  0.89592  0.28051  0.68664  1.0000
  C   C1611     1.0  0.89924  0.29763  0.67543  1.0000
  C   C1612     1.0  0.91286  0.29846  0.65863  1.0000
  C   C1613     1.0  0.92331  0.28196  0.65355  1.0000
  C   C1614     1.0  0.92003  0.26483  0.66483  1.0000
  H   H2848     1.0  0.88527  0.28002  0.69947  1.0000
  H   H2849     1.0  0.89143  0.31022  0.67989  1.0000
  H   H2850     1.0  0.93394  0.28241  0.64065  1.0000
  N   N90       1.0  0.94981  0.26825  0.72783  1.0000
  C   C1615     1.0  0.95469  0.25108  0.71487  1.0000
  C   C1616     1.0  0.93094  0.26620  0.73896  1.0000
  C   C1617     1.0  0.94802  0.28457  0.71159  1.0000
  H   H2851     1.0  0.86430  0.38044  0.73790  1.0000
  H   H2852     1.0  0.69825  0.35174  0.80781  1.0000
  C   C1618     1.0  0.56565  0.38695  0.52298  1.0000
  H   H2853     1.0  0.50887  0.22513  0.76869  1.0000
  H   H2854     1.0  0.98479  0.24836  0.74225  1.0000
  H   H2855     1.0  0.93624  0.31709  0.68901  1.0000
  C   C1619     1.0  0.57736  0.40199  0.51996  1.0000
  H   H2856     1.0  0.67440  0.38318  0.62746  1.0000
  C   C1620     1.0  0.59112  0.37029  0.87405  1.0000
  H   H2857     1.0  0.94287  0.24799  0.70438  1.0000
  H   H2858     1.0  0.95625  0.23849  0.72579  1.0000
  C   C1621     1.0  0.51436  0.23181  0.80240  1.0000
  H   H2859     1.0  0.99572  0.24867  0.77954  1.0000
  H   H2860     1.0  0.93847  0.28140  0.69837  1.0000
  H   H2861     1.0  0.96166  0.28708  0.70323  1.0000
  C   C1622     1.0  0.54061  0.31094  0.71962  1.0000
  C   C1623     1.0  0.96940  0.25403  0.67600  1.0000
  H   H2862     1.0  0.68366  0.38084  0.79487  1.0000
  C   C1624     1.0  0.97296  0.25152  0.70052  1.0000
  S   S373      1.0  0.94686  0.20664  0.69629  1.0000
  H   H2863     1.0  0.53726  0.37814  0.52393  1.0000
  H   H2864     1.0  0.59158  0.40253  0.84733  1.0000
  C   C1625     1.0  0.50829  0.30845  0.76790  1.0000
  C   C1626     1.0  0.94346  0.31957  0.70437  1.0000
  H   H2865     1.0  0.93696  0.25228  0.77062  1.0000
  Fe  Fe191     1.0  0.53529  0.38921  0.00213  1.0000
  H   H2866     1.0  0.92559  0.30316  0.72491  1.0000
  C   C1627     1.0  0.63880  0.37984  0.56701  1.0000
  H   H2867     1.0  0.72605  0.38183  0.79478  1.0000
  H   H2868     1.0  0.52559  0.31446  0.71720  1.0000
  H   H2869     1.0  0.98820  0.21592  0.78934  1.0000
  H   H2870     1.0  0.57211  0.35763  0.56990  1.0000
  C   C1628     1.0  0.60154  0.36409  0.85266  1.0000
  C   C1629     1.0  0.55271  0.23218  0.85794  1.0000
  H   H2871     1.0  0.62952  0.36166  0.83840  1.0000
  C   C1630     1.0  0.64025  0.28903  0.98084  1.0000
  H   H2872     1.0  0.71174  0.35366  0.78242  1.0000
  N   N91       1.0  0.58150  0.33747  0.74319  1.0000
  C   C1631     1.0  0.60001  0.32913  0.75060  1.0000
  C   C1632     1.0  0.57165  0.34683  0.76237  1.0000
  C   C1633     1.0  0.56985  0.32158  0.73699  1.0000
  C   C1634     1.0  0.58340  0.35089  0.72369  1.0000
  C   C1635     1.0  0.60135  0.36217  0.72180  1.0000
  C   C1636     1.0  0.61036  0.31566  0.73448  1.0000
  H   H2873     1.0  0.87736  0.36586  0.71889  1.0000
  C   C1637     1.0  0.58083  0.36400  0.77123  1.0000
  C   C1638     1.0  0.57128  0.37016  0.79265  1.0000
  C   C1639     1.0  0.60005  0.37715  0.70345  1.0000
  H   H2874     1.0  0.52080  0.20408  0.81579  1.0000
  H   H2875     1.0  0.60613  0.37507  0.60855  1.0000
  H   H2876     1.0  0.59817  0.32119  0.76640  1.0000
  H   H2877     1.0  0.60961  0.34009  0.75443  1.0000
  H   H2878     1.0  0.55738  0.35198  0.75809  1.0000
  H   H2879     1.0  0.56985  0.33644  0.77620  1.0000
  H   H2880     1.0  0.56935  0.31080  0.75059  1.0000
  H   H2881     1.0  0.57633  0.31437  0.72263  1.0000
  H   H2882     1.0  0.58298  0.34336  0.70808  1.0000
  H   H2883     1.0  0.57118  0.36104  0.72332  1.0000
  H   H2884     1.0  0.61368  0.35284  0.71793  1.0000
  H   H2885     1.0  0.60417  0.36917  0.73711  1.0000
  C   C1640     1.0  0.55933  0.39196  0.93145  1.0000
  H   H2886     1.0  0.60960  0.32111  0.71730  1.0000
  H   H2887     1.0  0.54855  0.33938  0.71969  1.0000
  H   H2888     1.0  0.53564  0.35271  0.87981  1.0000
  H   H2889     1.0  0.59571  0.36108  0.77458  1.0000
  H   H2890     1.0  0.57947  0.37591  0.75922  1.0000
  H   H2891     1.0  0.57779  0.38279  0.79831  1.0000
  H   H2892     1.0  0.55621  0.37349  0.79032  1.0000
  H   H2893     1.0  0.57294  0.35895  0.80550  1.0000
  H   H2894     1.0  0.56801  0.20504  0.83647  1.0000
  H   H2895     1.0  0.66094  0.38152  0.86466  1.0000
  N   N92       1.0  0.54526  0.21989  0.81977  1.0000
  H   H2896     1.0  0.59966  0.34901  0.85036  1.0000
  H   H2897     1.0  0.63821  0.32562  0.73823  1.0000
  H   H2898     1.0  0.59790  0.37073  0.68749  1.0000
  C   C1641     1.0  0.65595  0.39130  0.56043  1.0000
  H   H2899     1.0  0.56476  0.36270  0.90515  1.0000
  H   H2900     1.0  0.97845  0.26659  0.78680  1.0000
  H   H2901     1.0  0.55701  0.21877  0.86637  1.0000
  H   H2902     1.0  0.90765  0.23615  0.77549  1.0000
  C   C1642     1.0  0.57445  0.24396  0.77221  1.0000
  H   H2903     1.0  0.58841  0.38746  0.70694  1.0000
  H   H2904     1.0  0.55299  0.24795  0.81009  1.0000
  H   H2905     1.0  0.79397  0.33612  0.68014  1.0000
  H   H2906     1.0  0.54749  0.30853  0.70337  1.0000
  C   C1643     1.0  0.54492  0.24523  0.87561  1.0000
  H   H2907     1.0  0.79757  0.37155  0.63960  1.0000
  H   H2908     1.0  0.56525  0.23829  0.85024  1.0000
  H   H2909     1.0  0.69904  0.39033  0.77519  1.0000
  H   H2910     1.0  0.57201  0.23183  0.81383  1.0000
  H   H2911     1.0  0.82384  0.31696  0.67501  1.0000
  H   H2912     1.0  0.92669  0.27885  0.74818  1.0000
  H   H2913     1.0  0.98095  0.21692  0.56185  1.0000
  H   H2914     1.0  0.50577  0.23469  0.81745  1.0000
  H   H2915     1.0  0.95849  0.32122  0.70047  1.0000
  H   H2916     1.0  0.84853  0.37143  0.54760  1.0000
  C   C1644     1.0  0.66837  0.39396  0.85855  1.0000
  H   H2917     1.0  0.66317  0.38895  0.82501  1.0000
  H   H2918     1.0  0.61322  0.38465  0.70218  1.0000
  H   H2919     1.0  0.50682  0.32287  0.77252  1.0000
  H   H2920     1.0  0.51962  0.33998  0.84922  1.0000
  H   H2921     1.0  0.55396  0.31793  0.98517  1.0000
  C   C1645     1.0  0.69618  0.38924  0.79322  1.0000
  C   C1646     1.0  0.64015  0.38676  0.60664  1.0000
  H   H2922     1.0  0.57581  0.36252  0.59811  1.0000
  H   H2923     1.0  0.68412  0.37797  0.83494  1.0000
  C   C1647     1.0  0.84918  0.37564  0.56490  1.0000
  H   H2924     1.0  0.53955  0.34309  0.83113  1.0000
  H   H2925     1.0  0.94809  0.30656  0.73608  1.0000
  H   H2926     1.0  0.64157  0.27376  0.98447  1.0000
  H   H2927     1.0  0.59612  0.37188  0.83803  1.0000
  H   H2928     1.0  0.62981  0.38077  0.55247  1.0000
  H   H2929     1.0  0.96603  0.24433  0.76134  1.0000
  H   H2930     1.0  0.54068  0.25912  0.86831  1.0000
  C   C1648     1.0  0.61299  0.37232  0.59232  1.0000
  C   C1649     1.0  0.66471  0.37185  0.63137  1.0000
  C   C1650     1.0  0.71287  0.37765  0.80315  1.0000
  H   H2931     1.0  0.92021  0.26501  0.72640  1.0000
  Fe  Fe192     1.0  0.90739  0.39070  0.65333  1.0000
  H   H2932     1.0  0.84328  0.36152  0.59689  1.0000
  C   C1651     1.0  0.79966  0.38042  0.65317  1.0000
  H   H2933     1.0  0.54182  0.29787  0.72984  1.0000
  C   C1652     1.0  0.84176  0.35914  0.57922  1.0000
  H   H2934     1.0  0.55095  0.39637  0.86280  1.0000
  H   H2935     1.0  0.63162  0.38965  0.62175  1.0000
  C   C1653     1.0  0.85248  0.34086  0.57384  1.0000
  H   H2936     1.0  0.97505  0.28127  0.73669  1.0000
  H   H2937     1.0  0.56806  0.34381  0.87193  1.0000
  C   C1654     1.0  0.98733  0.26095  0.77314  1.0000
  H   H2938     1.0  0.93752  0.33280  0.71117  1.0000
  H   H2939     1.0  0.56394  0.37908  0.94073  1.0000
  C   C1655     1.0  0.59761  0.37153  0.57507  1.0000
  H   H2940     1.0  0.54388  0.39271  0.93095  1.0000
  H   H2941     1.0  0.59039  0.38534  0.57213  1.0000
  H   H2942     1.0  0.71405  0.37999  0.82088  1.0000
  H   H2943     1.0  0.96166  0.26744  0.67224  1.0000
  H   H2944     1.0  0.65799  0.38135  0.52705  1.0000
  N   N93       1.0  0.62785  0.38605  0.58714  1.0000
  S   S374      1.0  0.88518  0.40035  0.62913  1.0000
  C   C1656     1.0  0.54114  0.35587  0.86296  1.0000
  H   H2945     1.0  0.77660  0.36149  0.70079  1.0000
  C   C1657     1.0  0.55943  0.23158  0.78203  1.0000
  C   C1658     1.0  0.53801  0.22895  0.84056  1.0000
  C   C1659     1.0  0.51197  0.27148  0.75544  1.0000
  H   H2946     1.0  0.57132  0.25875  0.77632  1.0000
  H   H2947     1.0  0.79566  0.32228  0.70512  1.0000
  H   H2948     1.0  0.64366  0.35696  0.61616  1.0000
  H   H2949     1.0  0.56355  0.38634  0.84056  1.0000
  H   H2950     1.0  0.52707  0.22047  0.84880  1.0000
  H   H2951     1.0  0.98289  0.25394  0.66668  1.0000
  C   C1660     1.0  0.81791  0.38465  0.65837  1.0000
  C   C1661     1.0  0.78403  0.38742  0.66548  1.0000
  H   H2952     1.0  0.58340  0.39190  0.91004  1.0000
  H   H2953     1.0  0.61059  0.29004  0.97806  1.0000
  H   H2954     1.0  0.84767  0.32946  0.58505  1.0000
  H   H2955     1.0  0.96757  0.21713  0.62274  1.0000
  H   H2956     1.0  0.96133  0.24239  0.67035  1.0000
  C   C1662     1.0  0.58281  0.35797  0.58260  1.0000
  H   H2957     1.0  0.66184  0.36517  0.59786  1.0000
  H   H2958     1.0  0.63767  0.30215  0.72883  1.0000
  H   H2959     1.0  0.83842  0.32789  0.63012  1.0000
  H   H2960     1.0  0.56290  0.21716  0.77704  1.0000
  C   C1663     1.0  0.65243  0.36892  0.61190  1.0000
  H   H2961     1.0  0.93382  0.23622  0.74906  1.0000
  H   H2962     1.0  0.84188  0.30474  0.64270  1.0000
  H   H2963     1.0  0.78097  0.39819  0.55953  1.0000
  C   C1664     1.0  0.90235  0.39666  0.52263  1.0000
  H   H2964     1.0  0.58650  0.30887  0.99197  1.0000
  H   H2965     1.0  0.55583  0.24727  0.88767  1.0000
  H   H2966     1.0  0.64337  0.36485  0.56871  1.0000
  S   S375      1.0  0.71393  0.38907  0.69040  1.0000
  H   H2967     1.0  0.65610  0.37559  0.64613  1.0000
  H   H2968     1.0  0.68021  0.39583  0.86940  1.0000
  H   H2969     1.0  0.99314  0.21748  0.58677  1.0000
  N   N94       1.0  0.83161  0.33703  0.69842  1.0000
  C   C1665     1.0  0.84652  0.35098  0.70002  1.0000
  C   C1666     1.0  0.83123  0.33023  0.67526  1.0000
  C   C1667     1.0  0.81306  0.34703  0.70365  1.0000
  C   C1668     1.0  0.83402  0.32097  0.71487  1.0000
  C   C1669     1.0  0.85269  0.30933  0.71387  1.0000
  C   C1670     1.0  0.84779  0.36036  0.72236  1.0000
  C   C1671     1.0  0.79535  0.33672  0.69815  1.0000
  C   C1672     1.0  0.85019  0.32742  0.66258  1.0000
  C   C1673     1.0  0.85460  0.29627  0.73408  1.0000
  C   C1674     1.0  0.86383  0.37361  0.72191  1.0000
  C   C1675     1.0  0.77774  0.34686  0.70727  1.0000
  H   H2970     1.0  0.84437  0.36237  0.68739  1.0000
  H   H2971     1.0  0.86054  0.34467  0.69608  1.0000
  H   H2972     1.0  0.82306  0.34048  0.66479  1.0000
  H   H2973     1.0  0.81204  0.36081  0.69476  1.0000
  H   H2974     1.0  0.81179  0.35019  0.72135  1.0000
  H   H2975     1.0  0.83179  0.32600  0.73182  1.0000
  H   H2976     1.0  0.82307  0.31080  0.71305  1.0000
  H   H2977     1.0  0.86491  0.31815  0.71316  1.0000
  H   H2978     1.0  0.85311  0.30036  0.69942  1.0000
  H   H2979     1.0  0.83486  0.36881  0.72626  1.0000
  H   H2980     1.0  0.85027  0.34978  0.73574  1.0000
  H   H2981     1.0  0.85658  0.34102  0.65921  1.0000
  H   H2982     1.0  0.82689  0.35708  0.57633  1.0000
  H   H2983     1.0  0.85464  0.30440  0.74922  1.0000
  H   H2984     1.0  0.84300  0.28658  0.73527  1.0000
  H   H2985     1.0  0.86792  0.28782  0.73290  1.0000
  H   H2986     1.0  0.66563  0.39217  0.57407  1.0000
  H   H2987     1.0  0.86187  0.38466  0.70887  1.0000
  C   C1676     1.0  0.97530  0.25508  0.75462  1.0000
  H   H2988     1.0  0.76524  0.33969  0.70238  1.0000
  H   H2989     1.0  0.77781  0.34692  0.72544  1.0000
  H   H2990     1.0  0.86088  0.39310  0.52595  1.0000
  Fe  Fe193     1.0  0.70090  0.38899  0.72464  1.0000
  H   H2991     1.0  0.59780  0.38268  0.88000  1.0000
  C   C1677     1.0  0.71137  0.35674  0.80010  1.0000
  H   H2992     1.0  0.67314  0.35885  0.63523  1.0000
  H   H2993     1.0  0.90304  0.26090  0.77093  1.0000
  H   H2994     1.0  0.98230  0.26236  0.70551  1.0000
  H   H2995     1.0  0.89060  0.34652  0.50880  1.0000
  S   S376      1.0  0.83706  0.37444  0.64290  1.0000
  H   H2996     1.0  0.54079  0.32986  0.74586  1.0000
  H   H2997     1.0  0.53462  0.36932  0.85692  1.0000
  H   H2998     1.0  0.54647  0.37768  0.89469  1.0000
  C   C1678     1.0  0.54941  0.32690  0.73088  1.0000
  H   H2999     1.0  0.65756  0.39635  0.78882  1.0000
  H   H3000     1.0  0.86151  0.31709  0.63177  1.0000
  C   C1679     1.0  0.67537  0.39113  0.83498  1.0000
  H   H3001     1.0  0.53274  0.23921  0.88435  1.0000
  H   H3002     1.0  0.59423  0.35918  0.88677  1.0000
  S   S377      1.0  0.90182  0.39080  0.56789  1.0000
  C   C1680     1.0  0.62094  0.29684  0.98789  1.0000
  C   C1681     1.0  0.55022  0.31023  0.00062  1.0000
  C   C1682     1.0  0.66701  0.38258  0.54131  1.0000
  C   C1683     1.0  0.63083  0.31239  0.74007  1.0000
  C   C1684     1.0  0.62243  0.36679  0.85359  1.0000
  H   H3003     1.0  0.67296  0.36855  0.54624  1.0000
  H   H3004     1.0  0.67863  0.39159  0.53628  1.0000
  H   H3005     1.0  0.52144  0.24475  0.79749  1.0000
  H   H3006     1.0  0.85008  0.33709  0.55671  1.0000
  H   H3007     1.0  0.72330  0.34894  0.80781  1.0000
  C   C1685     1.0  0.89542  0.36541  0.53473  1.0000
  N   N95       1.0  0.83930  0.39448  0.56800  1.0000
  N   N96       1.0  0.57033  0.37376  0.87241  1.0000
  C   C1686     1.0  0.56502  0.39052  0.85781  1.0000
  C   C1687     1.0  0.96431  0.27218  0.74426  1.0000
  C   C1688     1.0  0.53504  0.34047  0.84847  1.0000
  C   C1689     1.0  0.94076  0.30346  0.72101  1.0000
  C   C1690     1.0  0.54619  0.38978  0.52159  1.0000
  C   C1691     1.0  0.56809  0.39230  0.90834  1.0000
  C   C1692     1.0  0.52859  0.21524  0.80694  1.0000
  H   H3008     1.0  0.61937  0.35794  0.59401  1.0000
  C   C1693     1.0  0.89377  0.36063  0.51251  1.0000
  H   H3009     1.0  0.83418  0.39955  0.68029  1.0000
  H   H3010     1.0  0.99707  0.27165  0.76711  1.0000
  H   H3011     1.0  0.85243  0.39240  0.59962  1.0000
  S   S378      1.0  0.54370  0.35865  0.00080  1.0000
  H   H3012     1.0  0.54809  0.29544  0.99701  1.0000
  H   H3013     1.0  0.53429  0.34541  0.50845  1.0000
  C   C1694     1.0  0.99649  0.20695  0.77859  1.0000
  C   C1695     1.0  0.81953  0.39333  0.56074  1.0000
  H   H3014     1.0  0.97379  0.20329  0.64686  1.0000
  H   H3015     1.0  0.64947  0.39864  0.60473  1.0000
  C   C1696     1.0  0.99431  0.21293  0.56958  1.0000
  S   S379      1.0  0.56318  0.39876  0.98982  1.0000
  H   H3016     1.0  0.53288  0.20921  0.79101  1.0000
  S   S380      1.0  0.60176  0.39801  0.52082  1.0000
  C   C1697     1.0  0.83961  0.39881  0.59209  1.0000
  H   H3017     1.0  0.81177  0.38372  0.57193  1.0000
  C   C1698     1.0  0.80468  0.40293  0.68849  1.0000
  H   H3018     1.0  0.82782  0.39225  0.60120  1.0000
  H   H3019     1.0  0.57165  0.37306  0.52624  1.0000
  H   H3020     1.0  0.81929  0.38696  0.54441  1.0000
  Fe  Fe194     1.0  0.60068  0.55335  0.02804  1.0000
  S   S381      1.0  0.60912  0.52544  0.04304  1.0000
  S   S382      1.0  0.57203  0.56366  0.04005  1.0000
  Fe  Fe195     1.0  0.63706  0.53736  0.04747  1.0000
  S   S383      1.0  0.65117  0.53006  0.07978  1.0000
  S   S384      1.0  0.62793  0.56596  0.03483  1.0000
  H   H3021     1.0  0.88651  0.59971  0.20930  1.0000
  Fe  Fe196     1.0  0.70921  0.57372  0.17282  1.0000
  S   S385      1.0  0.69712  0.58141  0.13940  1.0000
  Fe  Fe197     1.0  0.72033  0.54569  0.20995  1.0000
  S   S386      1.0  0.72635  0.56864  0.23236  1.0000
  S   S387      1.0  0.72554  0.51449  0.21788  1.0000
  Fe  Fe198     1.0  0.69988  0.58353  0.22029  1.0000
  Fe  Fe199     1.0  0.74121  0.58175  0.20281  1.0000
  C   C1699     1.0  0.71995  0.58492  0.33309  1.0000
  S   S388      1.0  0.69307  0.55936  0.19981  1.0000
  S   S389      1.0  0.73627  0.55811  0.18086  1.0000
  Fe  Fe200     1.0  0.64411  0.44574  0.48346  1.0000
  S   S390      1.0  0.65403  0.45222  0.44826  1.0000
  H   H3022     1.0  0.58771  0.48160  0.39381  1.0000
  C   C1700     1.0  0.98753  0.48223  0.19008  1.0000
  C   C1701     1.0  0.67591  0.43039  0.39200  1.0000
  H   H3023     1.0  0.70133  0.55538  0.06007  1.0000
  H   H3024     1.0  0.97652  0.45482  0.18588  1.0000
  Fe  Fe201     1.0  0.70927  0.43379  0.30956  1.0000
  H   H3025     1.0  0.70420  0.47061  0.20112  1.0000
  S   S391      1.0  0.70203  0.46479  0.30220  1.0000
  S   S392      1.0  0.68559  0.41487  0.31720  1.0000
  S   S393      1.0  0.72523  0.42419  0.33946  1.0000
  H   H3026     1.0  0.73296  0.54515  0.02657  1.0000
  S   S394      1.0  0.92366  0.41872  0.37514  1.0000
  S   S395      1.0  0.88805  0.58521  0.12508  1.0000
  H   H3027     1.0  0.98745  0.51641  0.17011  1.0000
  H   H3028     1.0  0.73693  0.42027  0.23853  1.0000
  S   S396      1.0  0.92048  0.56646  0.17052  1.0000
  H   H3029     1.0  0.63143  0.48586  0.45139  1.0000
  C   C1702     1.0  0.83520  0.55696  0.19366  1.0000
  S   S397      1.0  0.97748  0.45231  0.29773  1.0000
  H   H3030     1.0  0.91006  0.40452  0.44656  1.0000
  S   S398      1.0  0.98828  0.53460  0.23083  1.0000
  H   H3031     1.0  0.85692  0.58381  0.17845  1.0000
  C   C1703     1.0  0.93978  0.55785  0.18684  1.0000
  C   C1704     1.0  0.95484  0.56867  0.19134  1.0000
  C   C1705     1.0  0.96944  0.56129  0.20467  1.0000
  C   C1706     1.0  0.96935  0.54297  0.21385  1.0000
  C   C1707     1.0  0.95440  0.53208  0.20920  1.0000
  C   C1708     1.0  0.93982  0.53945  0.19584  1.0000
  H   H3032     1.0  0.95520  0.58279  0.18462  1.0000
  H   H3033     1.0  0.98086  0.56994  0.20797  1.0000
  H   H3034     1.0  0.95401  0.51798  0.21594  1.0000
  H   H3035     1.0  0.92846  0.53079  0.19240  1.0000
  C   C1709     1.0  0.96285  0.44312  0.31975  1.0000
  C   C1710     1.0  0.95518  0.42552  0.31773  1.0000
  C   C1711     1.0  0.94353  0.41769  0.33446  1.0000
  C   C1712     1.0  0.93902  0.42742  0.35357  1.0000
  C   C1713     1.0  0.94664  0.44502  0.35560  1.0000
  C   C1714     1.0  0.95846  0.45276  0.33897  1.0000
  H   H3036     1.0  0.95845  0.41779  0.30311  1.0000
  H   H3037     1.0  0.70981  0.45856  0.41028  1.0000
  H   H3038     1.0  0.94341  0.45278  0.37020  1.0000
  H   H3039     1.0  0.96413  0.46625  0.34099  1.0000
  H   H3040     1.0  0.54586  0.43208  0.46910  1.0000
  H   H3041     1.0  0.68357  0.46255  0.18898  1.0000
  C   C1715     1.0  0.98567  0.56508  0.29238  1.0000
  H   H3042     1.0  0.98490  0.41969  0.50183  1.0000
  C   C1716     1.0  0.68880  0.58306  0.03210  1.0000
  S   S399      1.0  0.99533  0.50663  0.28923  1.0000
  C   C1717     1.0  0.66291  0.43601  0.42885  1.0000
  C   C1718     1.0  0.66571  0.41701  0.43420  1.0000
  H   H3043     1.0  0.97928  0.51140  0.13144  1.0000
  H   H3044     1.0  0.53257  0.45266  0.02710  1.0000
  C   C1719     1.0  0.66794  0.44260  0.40765  1.0000
  S   S400      1.0  0.55447  0.59401  0.49177  1.0000
  C   C1720     1.0  0.68841  0.56467  0.01949  1.0000
  H   H3045     1.0  0.70415  0.41170  0.24639  1.0000
  C   C1721     1.0  0.55063  0.50573  0.04730  1.0000
  H   H3046     1.0  0.86752  0.57492  0.22658  1.0000
  C   C1722     1.0  0.71949  0.50136  0.24207  1.0000
  C   C1723     1.0  0.72730  0.48312  0.24507  1.0000
  C   C1724     1.0  0.72241  0.47191  0.26358  1.0000
  C   C1725     1.0  0.70936  0.47868  0.27915  1.0000
  C   C1726     1.0  0.70159  0.49695  0.27621  1.0000
  C   C1727     1.0  0.70665  0.50826  0.25782  1.0000
  H   H3047     1.0  0.73726  0.47766  0.23301  1.0000
  H   H3048     1.0  0.72870  0.45800  0.26579  1.0000
  H   H3049     1.0  0.69150  0.50234  0.28817  1.0000
  H   H3050     1.0  0.70046  0.52221  0.25569  1.0000
  S   S401      1.0  0.60630  0.57385  0.50159  1.0000
  C   C1728     1.0  0.56520  0.50858  0.06438  1.0000
  H   H3051     1.0  0.54790  0.42838  0.17392  1.0000
  H   H3052     1.0  0.71584  0.47862  0.37792  1.0000
  H   H3053     1.0  0.59364  0.54594  0.42644  1.0000
  H   H3054     1.0  0.64061  0.52788  0.19308  1.0000
  C   C1729     1.0  0.71210  0.52715  0.05794  1.0000
  H   H3055     1.0  0.97191  0.41765  0.46433  1.0000
  H   H3056     1.0  0.56048  0.47186  0.02286  1.0000
  H   H3057     1.0  0.67702  0.43142  0.19930  1.0000
  C   C1730     1.0  0.60313  0.47244  0.02919  1.0000
  C   C1731     1.0  0.59664  0.45654  0.04051  1.0000
  H   H3058     1.0  0.60737  0.48414  0.03819  1.0000
  H   H3059     1.0  0.73777  0.43119  0.38699  1.0000
  C   C1732     1.0  0.66306  0.54493  0.09658  1.0000
  C   C1733     1.0  0.66975  0.53780  0.11673  1.0000
  C   C1734     1.0  0.68014  0.54879  0.13009  1.0000
  C   C1735     1.0  0.68396  0.56705  0.12337  1.0000
  C   C1736     1.0  0.67706  0.57427  0.10335  1.0000
  C   C1737     1.0  0.66657  0.56331  0.09005  1.0000
  H   H3060     1.0  0.66714  0.52357  0.12187  1.0000
  H   H3061     1.0  0.68541  0.54304  0.14541  1.0000
  H   H3062     1.0  0.66580  0.45727  0.40334  1.0000
  H   H3063     1.0  0.66133  0.56898  0.07470  1.0000
  C   C1738     1.0  0.55491  0.57066  0.02115  1.0000
  H   H3064     1.0  0.84490  0.43299  0.27683  1.0000
  C   C1739     1.0  0.59122  0.44119  0.02902  1.0000
  H   H3065     1.0  0.52006  0.46144  0.48777  1.0000
  S   S402      1.0  0.58287  0.42159  0.04374  1.0000
  H   H3066     1.0  0.96960  0.56286  0.26295  1.0000
  N   N97       1.0  0.88019  0.43311  0.33013  1.0000
  C   C1740     1.0  0.87073  0.42533  0.35064  1.0000
  C   C1741     1.0  0.63735  0.55737  0.18418  1.0000
  C   C1742     1.0  0.89153  0.44909  0.33679  1.0000
  C   C1743     1.0  0.86654  0.44025  0.31306  1.0000
  C   C1744     1.0  0.84789  0.43017  0.31222  1.0000
  C   C1745     1.0  0.85893  0.43985  0.36413  1.0000
  C   C1746     1.0  0.90455  0.45764  0.31875  1.0000
  H   H3067     1.0  0.70709  0.43983  0.20763  1.0000
  H   H3068     1.0  0.73137  0.46099  0.36610  1.0000
  C   C1747     1.0  0.83694  0.43660  0.29209  1.0000
  C   C1748     1.0  0.84441  0.43062  0.37909  1.0000
  C   C1749     1.0  0.91172  0.47620  0.32563  1.0000
  H   H3069     1.0  0.98438  0.45846  0.21311  1.0000
  H   H3070     1.0  0.65708  0.50815  0.44705  1.0000
  Fe  Fe202     1.0  0.00033  0.50984  0.25253  1.0000
  H   H3071     1.0  0.71591  0.51019  0.08772  1.0000
  H   H3072     1.0  0.90040  0.44468  0.35085  1.0000
  H   H3073     1.0  0.88222  0.46076  0.34282  1.0000
  H   H3074     1.0  0.86248  0.45524  0.31541  1.0000
  H   H3075     1.0  0.87337  0.43992  0.29645  1.0000
  H   H3076     1.0  0.72459  0.56703  0.03596  1.0000
  H   H3077     1.0  0.92308  0.41406  0.42364  1.0000
  H   H3078     1.0  0.86824  0.44738  0.37462  1.0000
  H   H3079     1.0  0.85159  0.45037  0.35339  1.0000
  H   H3080     1.0  0.89728  0.46010  0.30309  1.0000
  H   H3081     1.0  0.91700  0.44818  0.31585  1.0000
  C   C1750     1.0  0.63172  0.49766  0.46243  1.0000
  H   H3082     1.0  0.62300  0.49072  0.41758  1.0000
  C   C1751     1.0  0.86153  0.58378  0.21313  1.0000
  H   H3083     1.0  0.83381  0.45191  0.29212  1.0000
  C   C1752     1.0  0.82445  0.53893  0.19162  1.0000
  H   H3084     1.0  0.62541  0.52160  0.44066  1.0000
  H   H3085     1.0  0.82352  0.42951  0.29227  1.0000
  H   H3086     1.0  0.91516  0.44621  0.43612  1.0000
  H   H3087     1.0  0.83682  0.44131  0.38910  1.0000
  H   H3088     1.0  0.83414  0.42375  0.36924  1.0000
  H   H3089     1.0  0.85116  0.42006  0.39032  1.0000
  H   H3090     1.0  0.90007  0.48683  0.32730  1.0000
  H   H3091     1.0  0.91891  0.47439  0.34145  1.0000
  H   H3092     1.0  0.92188  0.48134  0.31303  1.0000
  H   H3093     1.0  0.60578  0.49652  0.38322  1.0000
  H   H3094     1.0  0.61104  0.47206  0.38885  1.0000
  C   C1753     1.0  0.65185  0.50339  0.46349  1.0000
  C   C1754     1.0  0.71891  0.46335  0.37705  1.0000
  H   H3095     1.0  0.98507  0.55930  0.30950  1.0000
  H   H3096     1.0  0.67427  0.55913  0.02204  1.0000
  H   H3097     1.0  0.82811  0.52874  0.20506  1.0000
  H   H3098     1.0  0.57036  0.42869  0.46240  1.0000
  S   S403      1.0  0.71522  0.59848  0.19287  1.0000
  H   H3099     1.0  0.86285  0.58655  0.02945  1.0000
  H   H3100     1.0  0.63031  0.55382  0.16909  1.0000
  H   H3101     1.0  0.70296  0.43298  0.43079  1.0000
  H   H3102     1.0  0.64059  0.41495  0.20037  1.0000
  H   H3103     1.0  0.64260  0.56888  0.13781  1.0000
  C   C1755     1.0  0.54688  0.40556  0.15165  1.0000
  H   H3104     1.0  0.96286  0.46962  0.20414  1.0000
  C   C1756     1.0  0.70320  0.43721  0.22517  1.0000
  H   H3105     1.0  0.66051  0.53712  0.17861  1.0000
  H   H3106     1.0  0.57822  0.56337  0.46895  1.0000
  H   H3107     1.0  0.71139  0.51464  0.04789  1.0000
  C   C1757     1.0  0.97018  0.55672  0.27987  1.0000
  H   H3108     1.0  0.71566  0.59625  0.34435  1.0000
  C   C1758     1.0  0.68168  0.46454  0.22500  1.0000
  C   C1759     1.0  0.66012  0.45018  0.26233  1.0000
  C   C1760     1.0  0.68872  0.47126  0.20194  1.0000
  C   C1761     1.0  0.89359  0.41826  0.32104  1.0000
  C   C1762     1.0  0.68232  0.49156  0.19699  1.0000
  H   H3109     1.0  0.58450  0.57578  0.44395  1.0000
  H   H3110     1.0  0.68943  0.47211  0.23718  1.0000
  H   H3111     1.0  0.66693  0.46983  0.22677  1.0000
  C   C1763     1.0  0.70828  0.41628  0.22957  1.0000
  H   H3112     1.0  0.66171  0.46543  0.26365  1.0000
  Fe  Fe203     1.0  0.99740  0.47537  0.28473  1.0000
  H   H3113     1.0  0.68469  0.58802  0.31515  1.0000
  H   H3114     1.0  0.59582  0.45611  0.05823  1.0000
  C   C1764     1.0  0.67879  0.44067  0.25409  1.0000
  H   H3115     1.0  0.95655  0.55971  0.28835  1.0000
  H   H3116     1.0  0.68855  0.49637  0.18105  1.0000
  H   H3117     1.0  0.66692  0.49295  0.19603  1.0000
  H   H3118     1.0  0.68690  0.50073  0.20988  1.0000
  H   H3119     1.0  0.70889  0.57469  0.33353  1.0000
  H   H3120     1.0  0.70667  0.53356  0.09229  1.0000
  H   H3121     1.0  0.56839  0.47707  0.49543  1.0000
  H   H3122     1.0  0.56951  0.52326  0.06358  1.0000
  H   H3123     1.0  0.55387  0.43152  0.44074  1.0000
  C   C1765     1.0  0.70120  0.42624  0.47599  1.0000
  H   H3124     1.0  0.74585  0.58625  0.01303  1.0000
  H   H3125     1.0  0.60685  0.54972  0.45029  1.0000
  H   H3126     1.0  0.56921  0.48485  0.44552  1.0000
  H   H3127     1.0  0.75081  0.44383  0.42866  1.0000
  H   H3128     1.0  0.65775  0.44351  0.21174  1.0000
  H   H3129     1.0  0.67981  0.43565  0.37579  1.0000
  H   H3130     1.0  0.98639  0.49293  0.20279  1.0000
  H   H3131     1.0  0.97439  0.42414  0.42881  1.0000
  C   C1766     1.0  0.78902  0.59674  0.18915  1.0000
  N   N98       1.0  0.85604  0.55502  0.19004  1.0000
  C   C1767     1.0  0.86407  0.54210  0.20770  1.0000
  H   H3132     1.0  0.60209  0.51800  0.41568  1.0000
  C   C1768     1.0  0.86120  0.54685  0.16810  1.0000
  H   H3133     1.0  0.71843  0.59432  0.26672  1.0000
  C   C1769     1.0  0.98790  0.52311  0.13571  1.0000
  C   C1770     1.0  0.88566  0.54078  0.20853  1.0000
  C   C1771     1.0  0.85127  0.55608  0.14806  1.0000
  C   C1772     1.0  0.55616  0.42548  0.45747  1.0000
  C   C1773     1.0  0.78809  0.59272  0.16697  1.0000
  H   H3134     1.0  0.52633  0.42786  0.15975  1.0000
  C   C1774     1.0  0.89219  0.52728  0.22692  1.0000
  C   C1775     1.0  0.85721  0.54626  0.12699  1.0000
  H   H3135     1.0  0.85962  0.52765  0.20562  1.0000
  H   H3136     1.0  0.85833  0.54598  0.22414  1.0000
  H   H3137     1.0  0.56227  0.40412  0.15055  1.0000
  H   H3138     1.0  0.82908  0.56790  0.18234  1.0000
  H   H3139     1.0  0.85874  0.53165  0.16831  1.0000
  H   H3140     1.0  0.87642  0.54784  0.16452  1.0000
  C   C1776     1.0  0.75034  0.42856  0.42645  1.0000
  H   H3141     1.0  0.73414  0.41575  0.20986  1.0000
  H   H3142     1.0  0.93038  0.41708  0.47282  1.0000
  C   C1777     1.0  0.70626  0.52151  0.08139  1.0000
  H   H3143     1.0  0.89195  0.53567  0.19292  1.0000
  H   H3144     1.0  0.89137  0.55451  0.21156  1.0000
  H   H3145     1.0  0.70680  0.45704  0.36983  1.0000
  C   C1778     1.0  0.80342  0.54323  0.19320  1.0000
  H   H3146     1.0  0.82758  0.53221  0.17578  1.0000
  H   H3147     1.0  0.66082  0.49122  0.46905  1.0000
  H   H3148     1.0  0.87878  0.57375  0.18550  1.0000
  H   H3149     1.0  0.56313  0.52427  0.02340  1.0000
  C   C1779     1.0  0.54169  0.42560  0.15800  1.0000
  N   N99       1.0  0.63876  0.59274  0.17410  1.0000
  H   H3150     1.0  0.73446  0.56941  0.35903  1.0000
  H   H3151     1.0  0.66027  0.57117  0.16751  1.0000
  H   H3152     1.0  0.90764  0.52677  0.22731  1.0000
  H   H3153     1.0  0.88658  0.53202  0.24304  1.0000
  H   H3154     1.0  0.88766  0.51300  0.22418  1.0000
  H   H3155     1.0  0.85273  0.53166  0.12769  1.0000
  H   H3156     1.0  0.85062  0.55378  0.11281  1.0000
  H   H3157     1.0  0.87256  0.54622  0.12435  1.0000
  H   H3158     1.0  0.79593  0.53011  0.19241  1.0000
  H   H3159     1.0  0.56172  0.50116  0.46628  1.0000
  H   H3160     1.0  0.60488  0.47599  0.42822  1.0000
  H   H3161     1.0  0.64877  0.44816  0.25090  1.0000
  H   H3162     1.0  0.71390  0.42756  0.39236  1.0000
  H   H3163     1.0  0.97251  0.54137  0.27900  1.0000
  H   H3164     1.0  0.52979  0.40790  0.43887  1.0000
  H   H3165     1.0  0.79939  0.54995  0.20888  1.0000
  H   H3166     1.0  0.68469  0.53982  0.05152  1.0000
  H   H3167     1.0  0.67305  0.40567  0.23110  1.0000
  H   H3168     1.0  0.86184  0.41369  0.34699  1.0000
  N   N100      1.0  0.68325  0.44371  0.22994  1.0000
  H   H3169     1.0  0.72071  0.44362  0.44477  1.0000
  H   H3170     1.0  0.50830  0.58216  0.02037  1.0000
  H   H3171     1.0  0.61890  0.52421  0.46859  1.0000
  H   H3172     1.0  0.71270  0.44541  0.23468  1.0000
  Fe  Fe204     1.0  0.90984  0.59217  0.14906  1.0000
  C   C1780     1.0  0.70128  0.53274  0.01147  1.0000
  C   C1781     1.0  0.71679  0.43010  0.43822  1.0000
  H   H3173     1.0  0.98006  0.48750  0.17536  1.0000
  H   H3174     1.0  0.58209  0.50544  0.42210  1.0000
  C   C1782     1.0  0.90694  0.58963  0.01933  1.0000
  S   S404      1.0  0.72441  0.41327  0.28774  1.0000
  H   H3175     1.0  0.54778  0.59580  0.06288  1.0000
  H   H3176     1.0  0.83591  0.55565  0.14974  1.0000
  H   H3177     1.0  0.94284  0.43009  0.45273  1.0000
  C   C1783     1.0  0.61864  0.51434  0.45498  1.0000
  C   C1784     1.0  0.51170  0.46678  0.50199  1.0000
  H   H3178     1.0  0.97851  0.53571  0.13791  1.0000
  H   H3179     1.0  0.52178  0.52034  0.02195  1.0000
  H   H3180     1.0  0.68802  0.43264  0.46956  1.0000
  H   H3181     1.0  0.90205  0.43658  0.45935  1.0000
  C   C1785     1.0  0.97330  0.41365  0.39647  1.0000
  H   H3182     1.0  0.95211  0.42738  0.41626  1.0000
  H   H3183     1.0  0.53261  0.56923  0.04542  1.0000
  H   H3184     1.0  0.53574  0.53595  0.00675  1.0000
  H   H3185     1.0  0.69083  0.52331  0.01911  1.0000
  H   H3186     1.0  0.73009  0.58157  0.29941  1.0000
  H   H3187     1.0  0.55143  0.44079  0.01248  1.0000
  H   H3188     1.0  0.67969  0.59608  0.28835  1.0000
  H   H3189     1.0  0.66189  0.41175  0.45045  1.0000
  H   H3190     1.0  0.90367  0.41349  0.33377  1.0000
  H   H3191     1.0  0.68589  0.58064  0.04984  1.0000
  C   C1786     1.0  0.69539  0.56990  0.28933  1.0000
  C   C1787     1.0  0.91898  0.41606  0.44103  1.0000
  N   N101      1.0  0.70305  0.54967  0.02530  1.0000
  H   H3192     1.0  0.80241  0.59278  0.13535  1.0000
  C   C1788     1.0  0.67804  0.55841  0.29040  1.0000
  H   H3193     1.0  0.99120  0.59166  0.25838  1.0000
  C   C1789     1.0  0.96414  0.41737  0.41892  1.0000
  C   C1790     1.0  0.97728  0.46521  0.19884  1.0000
  C   C1791     1.0  0.60430  0.47305  0.00630  1.0000
  C   C1792     1.0  0.60271  0.48452  0.39450  1.0000
  C   C1793     1.0  0.63435  0.58207  0.13461  1.0000
  S   S405      1.0  0.67451  0.59420  0.24127  1.0000
  C   C1794     1.0  0.67913  0.41146  0.39751  1.0000
  Fe  Fe205     1.0  0.70273  0.40373  0.34524  1.0000
  H   H3194     1.0  0.58053  0.58626  0.07767  1.0000
  H   H3195     1.0  0.70017  0.57083  0.27194  1.0000
  H   H3196     1.0  0.70628  0.56201  0.29875  1.0000
  S   S406      1.0  0.64829  0.52757  0.01470  1.0000
  H   H3197     1.0  0.70249  0.58944  0.02987  1.0000
  H   H3198     1.0  0.88132  0.41885  0.36189  1.0000
  H   H3199     1.0  0.79892  0.55270  0.17938  1.0000
  C   C1795     1.0  0.67383  0.40482  0.41860  1.0000
  C   C1796     1.0  0.60782  0.48856  0.41790  1.0000
  H   H3200     1.0  0.51792  0.49551  0.49489  1.0000
  H   H3201     1.0  0.99797  0.52604  0.12201  1.0000
  H   H3202     1.0  0.56948  0.41085  0.10515  1.0000
  H   H3203     1.0  0.66687  0.56537  0.28044  1.0000
  H   H3204     1.0  0.68149  0.54443  0.28369  1.0000
  H   H3205     1.0  0.67285  0.55651  0.30760  1.0000
  H   H3206     1.0  0.77545  0.58749  0.16089  1.0000
  C   C1797     1.0  0.59244  0.44179  0.00613  1.0000
  H   H3207     1.0  0.85490  0.57080  0.14602  1.0000
  H   H3208     1.0  0.93808  0.40409  0.33251  1.0000
  H   H3209     1.0  0.62738  0.49251  0.47907  1.0000
  H   H3210     1.0  0.67874  0.42562  0.25883  1.0000
  C   C1798     1.0  0.90705  0.43422  0.44224  1.0000
  C   C1799     1.0  0.69947  0.54370  0.04899  1.0000
  H   H3211     1.0  0.57218  0.52598  0.44945  1.0000
  C   C1800     1.0  0.50541  0.48717  0.49753  1.0000
  H   H3212     1.0  0.83889  0.43330  0.32683  1.0000
  H   H3213     1.0  0.68999  0.44605  0.26397  1.0000
  H   H3214     1.0  0.57173  0.50094  0.02161  1.0000
  H   H3215     1.0  0.71464  0.52423  0.01096  1.0000
  H   H3216     1.0  0.89477  0.43341  0.43181  1.0000
  H   H3217     1.0  0.98267  0.58036  0.29296  1.0000
  C   C1801     1.0  0.80345  0.59576  0.15250  1.0000
  C   C1802     1.0  0.64937  0.54018  0.19117  1.0000
  H   H3218     1.0  0.55204  0.46961  0.47616  1.0000
  H   H3219     1.0  0.83164  0.56203  0.21033  1.0000
  C   C1803     1.0  0.72374  0.59296  0.30955  1.0000
  H   H3220     1.0  0.53850  0.51533  0.05104  1.0000
  H   H3221     1.0  0.65197  0.41828  0.23832  1.0000
  H   H3222     1.0  0.84541  0.57332  0.04384  1.0000
  H   H3223     1.0  0.52511  0.40437  0.46712  1.0000
  H   H3224     1.0  0.84662  0.58701  0.21723  1.0000
  H   H3225     1.0  0.73431  0.46202  0.40656  1.0000
  H   H3226     1.0  0.65290  0.51471  0.47528  1.0000
  H   H3227     1.0  0.57762  0.49903  0.06166  1.0000
  C   C1804     1.0  0.55859  0.50966  0.02378  1.0000
  H   H3228     1.0  0.61396  0.58121  0.16186  1.0000
  H   H3229     1.0  0.52719  0.48733  0.02148  1.0000
  H   H3230     1.0  0.67987  0.58842  0.09808  1.0000
  C   C1805     1.0  0.67405  0.59741  0.02382  1.0000
  H   H3231     1.0  0.62660  0.55983  0.19728  1.0000
  S   S407      1.0  0.64975  0.42031  0.50515  1.0000
  H   H3232     1.0  0.57580  0.46060  0.47483  1.0000
  C   C1806     1.0  0.72239  0.45500  0.40000  1.0000
  H   H3233     1.0  0.69198  0.51626  0.08189  1.0000
  H   H3234     1.0  0.55927  0.50555  0.08103  1.0000
  H   H3235     1.0  0.90203  0.42393  0.30705  1.0000
  H   H3236     1.0  0.66442  0.44623  0.29723  1.0000
  C   C1807     1.0  0.65415  0.44270  0.28501  1.0000
  H   H3237     1.0  0.50311  0.60214  0.50065  1.0000
  H   H3238     1.0  0.62627  0.57252  0.10312  1.0000
  C   C1808     1.0  0.99810  0.51842  0.15690  1.0000
  H   H3239     1.0  0.60076  0.48154  0.46270  1.0000
  C   C1809     1.0  0.53632  0.57290  0.02859  1.0000
  C   C1810     1.0  0.84766  0.58437  0.03099  1.0000
  C   C1811     1.0  0.72927  0.41219  0.22685  1.0000
  H   H3240     1.0  0.54628  0.49117  0.04951  1.0000
  H   H3241     1.0  0.61110  0.59089  0.11402  1.0000
  H   H3242     1.0  0.65578  0.54236  0.20714  1.0000
  C   C1812     1.0  0.73745  0.57491  0.34214  1.0000
  C   C1813     1.0  0.86378  0.57416  0.19070  1.0000
  H   H3243     1.0  0.78461  0.41672  0.46452  1.0000
  H   H3244     1.0  0.72680  0.53109  0.05826  1.0000
  C   C1814     1.0  0.69106  0.58965  0.29841  1.0000
  N   N102      1.0  0.59876  0.51030  0.45004  1.0000
  C   C1815     1.0  0.59205  0.49455  0.46481  1.0000
  H   H3245     1.0  0.85002  0.41484  0.31183  1.0000
  C   C1816     1.0  0.58658  0.52751  0.45500  1.0000
  C   C1817     1.0  0.59699  0.50625  0.42616  1.0000
  C   C1818     1.0  0.67013  0.43416  0.21553  1.0000
  C   C1819     1.0  0.57156  0.48930  0.46238  1.0000
  C   C1820     1.0  0.59297  0.54630  0.44456  1.0000
  C   C1821     1.0  0.72629  0.43352  0.39938  1.0000
  C   C1822     1.0  0.93613  0.41655  0.45575  1.0000
  S   S408      1.0  0.61332  0.44699  0.49133  1.0000
  C   C1823     1.0  0.56670  0.47317  0.47818  1.0000
  C   C1824     1.0  0.57938  0.56240  0.45086  1.0000
  H   H3246     1.0  0.59367  0.49810  0.48216  1.0000
  C   C1825     1.0  0.72248  0.55670  0.02319  1.0000
  H   H3247     1.0  0.56537  0.56043  0.44441  1.0000
  H   H3248     1.0  0.74200  0.56298  0.33181  1.0000
  H   H3249     1.0  0.58540  0.52931  0.47307  1.0000
  S   S409      1.0  0.76981  0.59378  0.20809  1.0000
  H   H3250     1.0  0.54713  0.43567  0.14544  1.0000
  H   H3251     1.0  0.96368  0.40656  0.38597  1.0000
  C   C1826     1.0  0.62545  0.59014  0.15599  1.0000
  H   H3252     1.0  0.65994  0.59186  0.02591  1.0000
  S   S410      1.0  0.90470  0.59561  0.06418  1.0000
  C   C1827     1.0  0.66216  0.41557  0.22467  1.0000
  H   H3253     1.0  0.65696  0.57636  0.19544  1.0000
  H   H3254     1.0  0.95133  0.41387  0.49787  1.0000
  H   H3255     1.0  0.64043  0.44928  0.28991  1.0000
  C   C1828     1.0  0.52255  0.58023  0.01448  1.0000
  H   H3256     1.0  0.91321  0.57617  0.02418  1.0000
  H   H3257     1.0  0.65288  0.42733  0.28504  1.0000
  H   H3258     1.0  0.70924  0.43729  0.48305  1.0000
  Fe  Fe206     1.0  0.61937  0.51837  0.00934  1.0000
  C   C1829     1.0  0.77915  0.42317  0.44908  1.0000
  C   C1830     1.0  0.65205  0.40574  0.20706  1.0000
  H   H3259     1.0  0.61690  0.58935  0.19886  1.0000
  N   N103      1.0  0.73094  0.42357  0.42092  1.0000
  C   C1831     1.0  0.55443  0.40434  0.45788  1.0000
  H   H3260     1.0  0.67668  0.60102  0.00620  1.0000
  H   H3261     1.0  0.53999  0.41286  0.11800  1.0000
  C   C1832     1.0  0.54112  0.45280  0.01165  1.0000
  C   C1833     1.0  0.55125  0.47102  0.00878  1.0000
  C   C1834     1.0  0.64929  0.57470  0.18016  1.0000
  H   H3262     1.0  0.64371  0.59221  0.12647  1.0000
  H   H3263     1.0  0.76024  0.42565  0.41248  1.0000
  H   H3264     1.0  0.97682  0.42708  0.38813  1.0000
  H   H3265     1.0  0.70148  0.40773  0.21763  1.0000
  H   H3266     1.0  0.61017  0.56725  0.12534  1.0000
  C   C1835     1.0  0.61948  0.57798  0.11835  1.0000
  H   H3267     1.0  0.74895  0.58466  0.34272  1.0000
  H   H3268     1.0  0.98631  0.40482  0.39821  1.0000
  C   C1836     1.0  0.62785  0.59926  0.19414  1.0000
  C   C1837     1.0  0.58403  0.60117  0.07734  1.0000
  C   C1838     1.0  0.87135  0.60216  0.21282  1.0000
  H   H3269     1.0  0.63697  0.59909  0.20859  1.0000
  H   H3270     1.0  0.78105  0.43843  0.44918  1.0000
  H   H3271     1.0  0.51809  0.60273  0.05043  1.0000
  C   C1839     1.0  0.96632  0.40369  0.46813  1.0000
  C   C1840     1.0  0.53720  0.48806  0.00724  1.0000
  H   H3272     1.0  0.66196  0.60084  0.15310  1.0000
  C   C1841     1.0  0.90129  0.60229  0.03573  1.0000
  C   C1842     1.0  0.71261  0.41642  0.45786  1.0000
  H   H3273     1.0  0.69762  0.41600  0.48932  1.0000
  H   H3274     1.0  0.75804  0.56420  0.00714  1.0000
  H   H3275     1.0  0.67404  0.60180  0.19083  1.0000
  H   H3276     1.0  0.75123  0.42502  0.46209  1.0000
  C   C1843     1.0  0.75856  0.41921  0.44741  1.0000
  C   C1844     1.0  0.53003  0.52182  0.00636  1.0000
  C   C1845     1.0  0.82005  0.60269  0.15990  1.0000
  H   H3277     1.0  0.84034  0.59750  0.03633  1.0000
  H   H3278     1.0  0.78738  0.41712  0.43511  1.0000
  C   C1846     1.0  0.84030  0.57840  0.00922  1.0000
  H   H3279     1.0  0.82532  0.57566  0.01177  1.0000
  H   H3280     1.0  0.59889  0.60206  0.07208  1.0000
  H   H3281     1.0  0.72536  0.41006  0.46515  1.0000
  H   H3282     1.0  0.87717  0.40479  0.29704  1.0000
  N   N104      1.0  0.70721  0.60234  0.29838  1.0000
  S   S411      1.0  0.00086  0.47876  0.24760  1.0000
  H   H3283     1.0  0.86216  0.41901  0.49961  1.0000
  H   H3284     1.0  0.70433  0.40490  0.45228  1.0000
  H   H3285     1.0  0.73494  0.60297  0.31092  1.0000
  H   H3286     1.0  0.59925  0.40511  0.08515  1.0000
  H   H3287     1.0  0.63341  0.54315  0.50385  1.0000
  H   H3288     1.0  0.75758  0.40385  0.44775  1.0000
  N   N105      1.0  0.54557  0.50694  0.00534  1.0000
  H   H3289     1.0  0.51390  0.52959  0.50467  1.0000
  H   H3290     1.0  0.83530  0.43732  0.62618  1.0000
  C   C1847     1.0  0.54573  0.58212  0.98507  1.0000
  S   S412      1.0  0.65439  0.57387  0.97811  1.0000
  H   H3291     1.0  0.59991  0.45804  0.97711  1.0000
  H   H3292     1.0  0.56830  0.52183  0.94261  1.0000
  S   S413      1.0  0.60925  0.54567  0.99381  1.0000
  Fe  Fe207     1.0  0.70075  0.56080  0.85673  1.0000
  H   H3293     1.0  0.64469  0.43638  0.77508  1.0000
  S   S414      1.0  0.68622  0.54581  0.88563  1.0000
  Fe  Fe208     1.0  0.71663  0.55147  0.81104  1.0000
  S   S415      1.0  0.72252  0.58173  0.80314  1.0000
  S   S416      1.0  0.72710  0.52964  0.78627  1.0000
  Fe  Fe209     1.0  0.73386  0.58205  0.83725  1.0000
  H   H3294     1.0  0.50741  0.50913  0.98953  1.0000
  Fe  Fe210     1.0  0.69419  0.58888  0.81819  1.0000
  S   S417      1.0  0.72952  0.55154  0.84423  1.0000
  S   S418      1.0  0.68760  0.55861  0.82391  1.0000
  H   H3295     1.0  0.61260  0.41426  0.61617  1.0000
  H   H3296     1.0  0.80450  0.41649  0.57695  1.0000
  H   H3297     1.0  0.68829  0.50731  0.98248  1.0000
  H   H3298     1.0  0.97289  0.46683  0.84507  1.0000
  S   S419      1.0  0.91887  0.40997  0.67956  1.0000
  S   S420      1.0  0.62398  0.44151  0.54330  1.0000
  H   H3299     1.0  0.65673  0.57399  0.70260  1.0000
  H   H3300     1.0  0.57834  0.43165  0.51396  1.0000
  Fe  Fe211     1.0  0.65395  0.44038  0.53202  1.0000
  H   H3301     1.0  0.98794  0.55331  0.83619  1.0000
  C   C1848     1.0  0.85154  0.40547  0.52943  1.0000
  H   H3302     1.0  0.74803  0.53750  0.74062  1.0000
  S   S421      1.0  0.67431  0.42077  0.65777  1.0000
  Fe  Fe212     1.0  0.70519  0.43161  0.72881  1.0000
  H   H3303     1.0  0.56626  0.42037  0.82750  1.0000
  S   S422      1.0  0.69546  0.45347  0.75394  1.0000
  C   C1849     1.0  0.52070  0.51707  0.53587  1.0000
  Fe  Fe213     1.0  0.54180  0.59984  0.52507  1.0000
  S   S423      1.0  0.71787  0.43482  0.69477  1.0000
  S   S424      1.0  0.68219  0.41414  0.71785  1.0000
  H   H3304     1.0  0.92349  0.43055  0.71885  1.0000
  C   C1850     1.0  0.99710  0.50407  0.89606  1.0000
  S   S425      1.0  0.88673  0.58166  0.91082  1.0000
  H   H3305     1.0  0.76823  0.58828  0.79081  1.0000
  Fe  Fe214     1.0  0.90892  0.58525  0.88401  1.0000
  S   S426      1.0  0.92773  0.55942  0.87420  1.0000
  H   H3306     1.0  0.54503  0.52416  0.55350  1.0000
  H   H3307     1.0  0.98771  0.41069  0.78437  1.0000
  S   S427      1.0  0.97082  0.52915  0.78712  1.0000
  H   H3308     1.0  0.59068  0.43257  0.57801  1.0000
  S   S428      1.0  0.98754  0.45480  0.71571  1.0000
  H   H3309     1.0  0.70515  0.41609  0.62535  1.0000
  C   C1851     1.0  0.93919  0.55120  0.84951  1.0000
  C   C1852     1.0  0.94826  0.53330  0.84976  1.0000
  C   C1853     1.0  0.95771  0.52625  0.83088  1.0000
  C   C1854     1.0  0.95858  0.53709  0.81142  1.0000
  C   C1855     1.0  0.94930  0.55485  0.81104  1.0000
  C   C1856     1.0  0.93971  0.56187  0.82987  1.0000
  H   H3310     1.0  0.94782  0.52478  0.86470  1.0000
  H   H3311     1.0  0.96413  0.51238  0.83126  1.0000
  H   H3312     1.0  0.94971  0.56341  0.79613  1.0000
  H   H3313     1.0  0.93286  0.57563  0.82925  1.0000
  C   C1857     1.0  0.93831  0.42219  0.68932  1.0000
  C   C1858     1.0  0.95540  0.42321  0.67772  1.0000
  C   C1859     1.0  0.97014  0.43313  0.68605  1.0000
  C   C1860     1.0  0.96827  0.44224  0.70617  1.0000
  C   C1861     1.0  0.95127  0.44103  0.71792  1.0000
  C   C1862     1.0  0.93647  0.43125  0.70952  1.0000
  C   C1863     1.0  0.00158  0.49133  0.84793  1.0000
  H   H3314     1.0  0.98311  0.43380  0.67668  1.0000
  H   H3315     1.0  0.94959  0.44749  0.73361  1.0000
  H   H3316     1.0  0.99111  0.46047  0.82521  1.0000
  H   H3317     1.0  0.61042  0.53974  0.89814  1.0000
  H   H3318     1.0  0.78009  0.42226  0.55014  1.0000
  C   C1864     1.0  0.78866  0.40896  0.54997  1.0000
  H   H3319     1.0  0.98183  0.43112  0.76751  1.0000
  H   H3320     1.0  0.87958  0.55028  0.94259  1.0000
  H   H3321     1.0  0.68210  0.41839  0.77097  1.0000
  C   C1865     1.0  0.67644  0.42554  0.62906  1.0000
  H   H3322     1.0  0.62320  0.55925  0.86720  1.0000
  H   H3323     1.0  0.85350  0.42515  0.59446  1.0000
  C   C1866     1.0  0.67767  0.43147  0.58284  1.0000
  C   C1867     1.0  0.66129  0.43571  0.59496  1.0000
  C   C1868     1.0  0.66066  0.43264  0.61789  1.0000
  S   S429      1.0  0.65051  0.46588  0.50954  1.0000
  H   H3324     1.0  0.77297  0.54075  0.84922  1.0000
  H   H3325     1.0  0.51432  0.51064  0.55078  1.0000
  H   H3326     1.0  0.58842  0.43001  0.99713  1.0000
  H   H3327     1.0  0.61602  0.60122  0.88932  1.0000
  H   H3328     1.0  0.87641  0.54124  0.97039  1.0000
  H   H3329     1.0  0.72202  0.41126  0.80662  1.0000
  S   S430      1.0  0.99150  0.47498  0.77707  1.0000
  C   C1869     1.0  0.71793  0.50855  0.77750  1.0000
  C   C1870     1.0  0.72806  0.49806  0.76167  1.0000
  C   C1871     1.0  0.72140  0.48130  0.75411  1.0000
  C   C1872     1.0  0.70446  0.47477  0.76231  1.0000
  C   C1873     1.0  0.69436  0.48522  0.77821  1.0000
  C   C1874     1.0  0.70102  0.50198  0.78577  1.0000
  H   H3330     1.0  0.74117  0.50294  0.75516  1.0000
  H   H3331     1.0  0.72937  0.47344  0.74195  1.0000
  H   H3332     1.0  0.68125  0.48034  0.78471  1.0000
  H   H3333     1.0  0.69305  0.50983  0.79793  1.0000
  C   C1875     1.0  0.78617  0.57895  0.86861  1.0000
  S   S431      1.0  0.51786  0.58399  0.54045  1.0000
  C   C1876     1.0  0.81709  0.59028  0.87596  1.0000
  H   H3334     1.0  0.87390  0.57294  0.98421  1.0000
  H   H3335     1.0  0.52876  0.48581  0.99270  1.0000
  H   H3336     1.0  0.63061  0.41547  0.58059  1.0000
  C   C1877     1.0  0.50201  0.53868  0.98894  1.0000
  C   C1878     1.0  0.57857  0.40676  0.85646  1.0000
  C   C1879     1.0  0.65777  0.41154  0.79087  1.0000
  C   C1880     1.0  0.99285  0.42413  0.77766  1.0000
  S   S432      1.0  0.70581  0.59131  0.85194  1.0000
  H   H3337     1.0  0.50183  0.54040  0.52669  1.0000
  C   C1881     1.0  0.66360  0.56581  0.95267  1.0000
  C   C1882     1.0  0.66078  0.54777  0.94595  1.0000
  C   C1883     1.0  0.66825  0.54179  0.92565  1.0000
  C   C1884     1.0  0.67838  0.55381  0.91167  1.0000
  C   C1885     1.0  0.68150  0.57175  0.91856  1.0000
  C   C1886     1.0  0.67409  0.57773  0.93894  1.0000
  H   H3338     1.0  0.65283  0.53840  0.95638  1.0000
  H   H3339     1.0  0.66596  0.52781  0.92061  1.0000
  H   H3340     1.0  0.68960  0.58100  0.90818  1.0000
  H   H3341     1.0  0.54146  0.58422  0.61503  1.0000
  H   H3342     1.0  0.71172  0.51304  0.97369  1.0000
  H   H3343     1.0  0.54417  0.43662  0.51119  1.0000
  C   C1887     1.0  0.71003  0.41905  0.79904  1.0000
  H   H3344     1.0  0.67648  0.59166  0.94407  1.0000
  H   H3345     1.0  0.63808  0.56806  0.91212  1.0000
  C   C1888     1.0  0.84278  0.59388  0.99114  1.0000
  H   H3346     1.0  0.95723  0.48329  0.80255  1.0000
  H   H3347     1.0  0.89679  0.55386  0.96264  1.0000
  C   C1889     1.0  0.58574  0.52452  0.52274  1.0000
  H   H3348     1.0  0.61424  0.57283  0.90489  1.0000
  H   H3349     1.0  0.78864  0.56401  0.95432  1.0000
  C   C1890     1.0  0.56298  0.52803  0.97701  1.0000
  C   C1891     1.0  0.68683  0.40783  0.82633  1.0000
  C   C1892     1.0  0.00115  0.47059  0.85574  1.0000
  C   C1893     1.0  0.57568  0.52738  0.95650  1.0000
  H   H3350     1.0  0.84511  0.41435  0.63270  1.0000
  H   H3351     1.0  0.95725  0.41643  0.66222  1.0000
  H   H3352     1.0  0.62788  0.58906  0.68809  1.0000
  H   H3353     1.0  0.70737  0.43803  0.82690  1.0000
  H   H3354     1.0  0.98509  0.49826  0.88814  1.0000
  H   H3355     1.0  0.80965  0.59574  0.97415  1.0000
  H   H3356     1.0  0.57078  0.53408  0.99016  1.0000
  H   H3357     1.0  0.56942  0.49895  0.98472  1.0000
  H   H3358     1.0  0.52672  0.54218  0.55298  1.0000
  H   H3359     1.0  0.87320  0.42555  0.52410  1.0000
  S   S433      1.0  0.67894  0.43446  0.55381  1.0000
  S   S434      1.0  0.51104  0.40464  0.98572  1.0000
  H   H3360     1.0  0.64110  0.55752  0.83368  1.0000
  S   S435      1.0  0.76061  0.59809  0.84103  1.0000
  H   H3361     1.0  0.62581  0.59737  0.64160  1.0000
  C   C1894     1.0  0.52730  0.58523  0.99280  1.0000
  H   H3362     1.0  0.66976  0.59377  0.69342  1.0000
  H   H3363     1.0  0.86443  0.40898  0.56047  1.0000
  H   H3364     1.0  0.98711  0.49718  0.85036  1.0000
  H   H3365     1.0  0.81125  0.58963  0.78668  1.0000
  C   C1895     1.0  0.65580  0.58929  0.69908  1.0000
  H   H3366     1.0  0.64917  0.44154  0.58669  1.0000
  C   C1896     1.0  0.88163  0.55304  0.96011  1.0000
  H   H3367     1.0  0.57241  0.51927  0.52785  1.0000
  H   H3368     1.0  0.67616  0.43354  0.79258  1.0000
  Fe  Fe215     1.0  0.99222  0.50644  0.77458  1.0000
  S   S436      1.0  0.61203  0.49284  0.99144  1.0000
  H   H3369     1.0  0.64556  0.58574  0.66697  1.0000
  H   H3370     1.0  0.73988  0.43963  0.81248  1.0000
  H   H3371     1.0  0.90575  0.41069  0.52634  1.0000
  H   H3372     1.0  0.81426  0.42288  0.55018  1.0000
  H   H3373     1.0  0.55089  0.53767  0.97325  1.0000
  C   C1897     1.0  0.80747  0.41176  0.56006  1.0000
  H   H3374     1.0  0.52041  0.46538  0.51670  1.0000
  H   H3375     1.0  0.99959  0.52255  0.82086  1.0000
  H   H3376     1.0  0.65156  0.41500  0.80719  1.0000
  Fe  Fe216     1.0  0.73509  0.40822  0.70291  1.0000
  C   C1898     1.0  0.80350  0.57684  0.87900  1.0000
  S   S437      1.0  0.51063  0.59559  0.97510  1.0000
  H   H3377     1.0  0.55723  0.42927  0.85334  1.0000
  H   H3378     1.0  0.52897  0.50589  0.52733  1.0000
  H   H3379     1.0  0.82068  0.41762  0.62670  1.0000
  S   S438      1.0  0.76736  0.40711  0.70046  1.0000
  S   S439      1.0  0.99769  0.50662  0.73780  1.0000
  C   C1899     1.0  0.53475  0.58950  0.59976  1.0000
  C   C1900     1.0  0.81866  0.58440  0.96684  1.0000
  Fe  Fe217     1.0  0.86765  0.59942  0.88911  1.0000
  C   C1901     1.0  0.64195  0.58634  0.84426  1.0000
  H   H3380     1.0  0.84486  0.55858  0.96937  1.0000
  H   H3381     1.0  0.98695  0.44552  0.84889  1.0000
  H   H3382     1.0  0.59767  0.57709  0.86782  1.0000
  H   H3383     1.0  0.66385  0.58442  0.88005  1.0000
  C   C1902     1.0  0.69492  0.53615  0.98754  1.0000
  C   C1903     1.0  0.59802  0.43278  0.59375  1.0000
  C   C1904     1.0  0.63421  0.57137  0.82966  1.0000
  H   H3384     1.0  0.69944  0.40735  0.83653  1.0000
  H   H3385     1.0  0.70275  0.54697  0.97847  1.0000
  H   H3386     1.0  0.90968  0.58436  0.98456  1.0000
  C   C1905     1.0  0.84997  0.40861  0.55444  1.0000
  C   C1906     1.0  0.72841  0.44784  0.80434  1.0000
  H   H3387     1.0  0.70628  0.42131  0.58483  1.0000
  H   H3388     1.0  0.67895  0.42105  0.83054  1.0000
  C   C1907     1.0  0.69293  0.42160  0.61700  1.0000
  C   C1908     1.0  0.62269  0.54388  0.90708  1.0000
  H   H3389     1.0  0.57061  0.59890  0.86274  1.0000
  H   H3390     1.0  0.68931  0.56880  0.00186  1.0000
  C   C1909     1.0  0.76358  0.56156  0.74889  1.0000
  C   C1910     1.0  0.64525  0.42097  0.77357  1.0000
  H   H3391     1.0  0.65134  0.40566  0.55512  1.0000
  C   C1911     1.0  0.83948  0.41970  0.59808  1.0000
  C   C1912     1.0  0.85054  0.57142  0.96155  1.0000
  C   C1913     1.0  0.58718  0.54356  0.51718  1.0000
  H   H3392     1.0  0.63481  0.53434  0.90291  1.0000
  H   H3393     1.0  0.61958  0.54234  0.92496  1.0000
  H   H3394     1.0  0.84393  0.42295  0.55646  1.0000
  H   H3395     1.0  0.57995  0.54168  0.95188  1.0000
  H   H3396     1.0  0.85703  0.59924  0.99197  1.0000
  H   H3397     1.0  0.65057  0.41753  0.75684  1.0000
  H   H3398     1.0  0.77595  0.56848  0.87116  1.0000
  C   C1914     1.0  0.56993  0.42388  0.84435  1.0000
  H   H3399     1.0  0.58844  0.51846  0.95965  1.0000
  C   C1915     1.0  0.87156  0.57137  0.96656  1.0000
  N   N106      1.0  0.78296  0.56196  0.78415  1.0000
  C   C1916     1.0  0.76587  0.55559  0.77336  1.0000
  C   C1917     1.0  0.78308  0.55548  0.80803  1.0000
  C   C1918     1.0  0.78182  0.58306  0.78340  1.0000
  C   C1919     1.0  0.80071  0.55556  0.77228  1.0000
  C   C1920     1.0  0.80363  0.53435  0.76889  1.0000
  N   N107      1.0  0.63580  0.58616  0.86821  1.0000
  H   H3400     1.0  0.79846  0.58796  0.81235  1.0000
  C   C1921     1.0  0.77484  0.53632  0.81410  1.0000
  C   C1922     1.0  0.77890  0.53021  0.83774  1.0000
  C   C1923     1.0  0.82059  0.53017  0.75385  1.0000
  C   C1924     1.0  0.69350  0.42452  0.59402  1.0000
  C   C1925     1.0  0.74661  0.55298  0.73952  1.0000
  H   H3401     1.0  0.75316  0.56077  0.78253  1.0000
  H   H3402     1.0  0.76524  0.54019  0.77430  1.0000
  H   H3403     1.0  0.79745  0.55538  0.81436  1.0000
  H   H3404     1.0  0.77475  0.56555  0.81833  1.0000
  S   S440      1.0  0.88949  0.60183  0.86169  1.0000
  H   H3405     1.0  0.97579  0.40522  0.52394  1.0000
  H   H3406     1.0  0.80196  0.56298  0.75604  1.0000
  H   H3407     1.0  0.81302  0.55952  0.78135  1.0000
  H   H3408     1.0  0.79150  0.52844  0.76135  1.0000
  H   H3409     1.0  0.80635  0.52701  0.78481  1.0000
  H   H3410     1.0  0.00146  0.55565  0.81106  1.0000
  H   H3411     1.0  0.54942  0.58579  0.96822  1.0000
  H   H3412     1.0  0.73370  0.55768  0.74861  1.0000
  N   N108      1.0  0.83894  0.58855  0.96809  1.0000
  H   H3413     1.0  0.75948  0.53742  0.81265  1.0000
  H   H3414     1.0  0.78024  0.52512  0.80334  1.0000
  H   H3415     1.0  0.77239  0.51675  0.84177  1.0000
  H   H3416     1.0  0.79414  0.52831  0.84003  1.0000
  H   H3417     1.0  0.81848  0.53670  0.73731  1.0000
  H   H3418     1.0  0.83334  0.53545  0.76080  1.0000
  H   H3419     1.0  0.82264  0.51484  0.75212  1.0000
  H   H3420     1.0  0.58799  0.43800  0.60656  1.0000
  C   C1926     1.0  0.55660  0.50830  0.98397  1.0000
  Fe  Fe218     1.0  0.58168  0.59369  0.50901  1.0000
  H   H3421     1.0  0.71375  0.42056  0.78124  1.0000
  C   C1927     1.0  0.70981  0.43879  0.80889  1.0000
  H   H3422     1.0  0.64674  0.55799  0.87453  1.0000
  C   C1928     1.0  0.60562  0.41321  0.60036  1.0000
  H   H3423     1.0  0.64787  0.43585  0.62707  1.0000
  N   N109      1.0  0.93019  0.50686  0.74561  1.0000
  C   C1929     1.0  0.94136  0.49538  0.76221  1.0000
  C   C1930     1.0  0.94199  0.50951  0.72494  1.0000
  C   C1931     1.0  0.92614  0.52596  0.75488  1.0000
  C   C1932     1.0  0.91194  0.49845  0.74072  1.0000
  C   C1933     1.0  0.91142  0.47680  0.74196  1.0000
  C   C1934     1.0  0.93273  0.49462  0.78586  1.0000
  C   C1935     1.0  0.91668  0.54090  0.73939  1.0000
  C   C1936     1.0  0.94847  0.49168  0.71281  1.0000
  C   C1937     1.0  0.96134  0.49625  0.69317  1.0000
  C   C1938     1.0  0.89388  0.47014  0.73179  1.0000
  C   C1939     1.0  0.94259  0.47970  0.80032  1.0000
  C   C1940     1.0  0.91001  0.55817  0.75193  1.0000
  H   H3424     1.0  0.95547  0.50092  0.76329  1.0000
  H   H3425     1.0  0.94413  0.48085  0.75696  1.0000
  H   H3426     1.0  0.93430  0.51830  0.71258  1.0000
  H   H3427     1.0  0.95463  0.51714  0.72862  1.0000
  H   H3428     1.0  0.93922  0.53183  0.76035  1.0000
  H   H3429     1.0  0.91686  0.52496  0.76975  1.0000
  H   H3430     1.0  0.90064  0.50351  0.75226  1.0000
  H   H3431     1.0  0.90730  0.50337  0.72419  1.0000
  H   H3432     1.0  0.91147  0.47160  0.75927  1.0000
  H   H3433     1.0  0.92349  0.46991  0.73347  1.0000
  H   H3434     1.0  0.93414  0.50817  0.79377  1.0000
  H   H3435     1.0  0.91771  0.49183  0.78579  1.0000
  H   H3436     1.0  0.90451  0.53536  0.73149  1.0000
  H   H3437     1.0  0.92676  0.54561  0.72646  1.0000
  H   H3438     1.0  0.95623  0.48167  0.72372  1.0000
  H   H3439     1.0  0.93636  0.48499  0.70620  1.0000
  H   H3440     1.0  0.95414  0.50599  0.68134  1.0000
  H   H3441     1.0  0.97416  0.50253  0.69855  1.0000
  H   H3442     1.0  0.96553  0.48320  0.68465  1.0000
  H   H3443     1.0  0.89369  0.47408  0.71405  1.0000
  H   H3444     1.0  0.89370  0.45469  0.73348  1.0000
  H   H3445     1.0  0.88118  0.47624  0.74016  1.0000
  H   H3446     1.0  0.65856  0.40638  0.85938  1.0000
  H   H3447     1.0  0.84976  0.56944  0.94359  1.0000
  H   H3448     1.0  0.93552  0.47910  0.81673  1.0000
  H   H3449     1.0  0.89920  0.55457  0.76456  1.0000
  H   H3450     1.0  0.92185  0.56421  0.76005  1.0000
  H   H3451     1.0  0.90387  0.56891  0.74040  1.0000
  S   S441      1.0  0.59842  0.48818  0.52723  1.0000
  H   H3452     1.0  0.61755  0.59524  0.60130  1.0000
  H   H3453     1.0  0.53203  0.45089  0.99761  1.0000
  H   H3454     1.0  0.69894  0.44840  0.80184  1.0000
  Fe  Fe219     1.0  0.99878  0.47496  0.74090  1.0000
  H   H3455     1.0  0.57384  0.57324  0.99335  1.0000
  H   H3456     1.0  0.84995  0.43466  0.51822  1.0000
  Fe  Fe220     1.0  0.69612  0.41548  0.68424  1.0000
  C   C1941     1.0  0.69694  0.51825  0.97466  1.0000
  C   C1942     1.0  0.79110  0.57684  0.94418  1.0000
  H   H3457     1.0  0.63233  0.56487  0.79536  1.0000
  S   S442      1.0  0.83857  0.58692  0.88997  1.0000
  C   C1943     1.0  0.59898  0.45767  0.99482  1.0000
  H   H3458     1.0  0.77594  0.55695  0.73884  1.0000
  H   H3459     1.0  0.73155  0.44887  0.78643  1.0000
  C   C1944     1.0  0.53422  0.53127  0.54316  1.0000
  H   H3460     1.0  0.60951  0.44258  0.59197  1.0000
  H   H3461     1.0  0.69216  0.52109  0.95771  1.0000
  H   H3462     1.0  0.65328  0.57598  0.80172  1.0000
  H   H3463     1.0  0.82929  0.42852  0.58874  1.0000
  H   H3464     1.0  0.99444  0.51940  0.89710  1.0000
  H   H3465     1.0  0.99693  0.46925  0.87331  1.0000
  H   H3466     1.0  0.78223  0.58865  0.76624  1.0000
  H   H3467     1.0  0.78256  0.58874  0.95091  1.0000
  H   H3468     1.0  0.65738  0.58413  0.84263  1.0000
  N   N110      1.0  0.69242  0.40842  0.80228  1.0000
  H   H3469     1.0  0.54560  0.59005  0.58644  1.0000
  C   C1945     1.0  0.83486  0.42233  0.62239  1.0000
  C   C1946     1.0  0.74698  0.57449  0.00162  1.0000
  C   C1947     1.0  0.62701  0.56412  0.90119  1.0000
  H   H3470     1.0  0.84343  0.60047  0.93528  1.0000
  H   H3471     1.0  0.76136  0.57691  0.74687  1.0000
  C   C1948     1.0  0.81174  0.58104  0.94351  1.0000
  Fe  Fe221     1.0  0.63740  0.55550  0.00152  1.0000
  H   H3472     1.0  0.81565  0.57168  0.97700  1.0000
  C   C1949     1.0  0.61843  0.59850  0.87160  1.0000
  H   H3473     1.0  0.61905  0.57011  0.83206  1.0000
  H   H3474     1.0  0.79059  0.40466  0.53272  1.0000
  H   H3475     1.0  0.54866  0.50305  0.97028  1.0000
  C   C1950     1.0  0.63339  0.56640  0.87677  1.0000
  H   H3476     1.0  0.94229  0.46575  0.79304  1.0000
  C   C1951     1.0  0.55009  0.42272  0.51453  1.0000
  H   H3477     1.0  0.98467  0.49985  0.92855  1.0000
  C   C1952     1.0  0.61943  0.40537  0.58255  1.0000
  C   C1953     1.0  0.56948  0.41992  0.51602  1.0000
  H   H3478     1.0  0.83778  0.40339  0.52250  1.0000
  H   H3479     1.0  0.81956  0.56903  0.93606  1.0000
  H   H3480     1.0  0.52259  0.52205  0.97137  1.0000
  H   H3481     1.0  0.73022  0.55410  0.98848  1.0000
  H   H3482     1.0  0.59354  0.40430  0.60296  1.0000
  C   C1954     1.0  0.64140  0.59391  0.68157  1.0000
  C   C1955     1.0  0.51571  0.52177  0.98785  1.0000
  H   H3483     1.0  0.54121  0.53810  0.52875  1.0000
  H   H3484     1.0  0.68000  0.54081  0.98763  1.0000
  C   C1956     1.0  0.85971  0.42224  0.51715  1.0000
  H   H3485     1.0  0.58256  0.41109  0.87279  1.0000
  H   H3486     1.0  0.74527  0.55741  0.72203  1.0000
  C   C1957     1.0  0.67771  0.41859  0.78864  1.0000
  H   H3487     1.0  0.80642  0.56464  0.88942  1.0000
  H   H3488     1.0  0.72768  0.46219  0.81068  1.0000
  C   C1958     1.0  0.63807  0.57576  0.80532  1.0000
  H   H3489     1.0  0.60363  0.60213  0.67005  1.0000
  H   H3490     1.0  0.63149  0.58953  0.80037  1.0000
  H   H3491     1.0  0.57499  0.55298  0.51806  1.0000
  H   H3492     1.0  0.56005  0.47013  0.99359  1.0000
  H   H3493     1.0  0.71801  0.57604  0.99455  1.0000
  S   S443      1.0  0.51432  0.41184  0.51281  1.0000
  C   C1959     1.0  0.78204  0.59471  0.85517  1.0000
  H   H3494     1.0  0.87823  0.58294  0.95741  1.0000
  H   H3495     1.0  0.80674  0.41161  0.70226  1.0000
  C   C1960     1.0  0.79755  0.59266  0.79494  1.0000
  C   C1961     1.0  0.99787  0.49602  0.91951  1.0000
  H   H3496     1.0  0.99557  0.43326  0.79142  1.0000
  H   H3497     1.0  0.61235  0.40611  0.56658  1.0000
  C   C1962     1.0  0.50608  0.52643  0.52029  1.0000
  H   H3498     1.0  0.78656  0.57462  0.92728  1.0000
  H   H3499     1.0  0.64713  0.59476  0.89863  1.0000
  S   S444      1.0  0.72329  0.40615  0.73767  1.0000
  C   C1963     1.0  0.60138  0.51211  0.52141  1.0000
  H   H3500     1.0  0.52419  0.57956  0.59537  1.0000
  S   S445      1.0  0.56898  0.59728  0.54272  1.0000
  H   H3501     1.0  0.58006  0.43510  0.84316  1.0000
  H   H3502     1.0  0.63092  0.41597  0.77572  1.0000
  H   H3503     1.0  0.65166  0.59634  0.71452  1.0000
  C   C1964     1.0  0.65116  0.59396  0.88097  1.0000
  H   H3504     1.0  0.81340  0.59346  0.93244  1.0000
  Fe  Fe222     1.0  0.62005  0.46532  0.51880  1.0000
  C   C1965     1.0  0.53839  0.40765  0.51693  1.0000
  C   C1966     1.0  0.60026  0.59164  0.86241  1.0000
  H   H3505     1.0  0.60091  0.59273  0.84425  1.0000
  C   C1967     1.0  0.90489  0.59422  0.99672  1.0000
  H   H3506     1.0  0.50938  0.55173  0.98551  1.0000
  C   C1968     1.0  0.55955  0.57496  0.99924  1.0000
  C   C1969     1.0  0.61862  0.51889  0.51475  1.0000
  Fe  Fe223     1.0  0.61935  0.42323  0.51519  1.0000
  H   H3507     1.0  0.63080  0.50947  0.51394  1.0000
  H   H3508     1.0  0.75106  0.58010  0.98508  1.0000
  C   C1970     1.0  0.62008  0.53797  0.50914  1.0000
  C   C1971     1.0  0.60434  0.55031  0.51016  1.0000
  C   C1972     1.0  0.98712  0.46030  0.84291  1.0000
  H   H3509     1.0  0.99405  0.52610  0.86101  1.0000
  H   H3510     1.0  0.56330  0.40570  0.90036  1.0000
  C   C1973     1.0  0.72833  0.56526  0.00057  1.0000
  H   H3511     1.0  0.63885  0.60035  0.83644  1.0000
  H   H3512     1.0  0.99961  0.48056  0.91954  1.0000
  H   H3513     1.0  0.58082  0.60290  0.70235  1.0000
  H   H3514     1.0  0.58166  0.60292  0.88811  1.0000
  H   H3515     1.0  0.56373  0.40416  0.94035  1.0000
  H   H3516     1.0  0.84781  0.56510  0.00503  1.0000
  C   C1974     1.0  0.97933  0.40582  0.50610  1.0000
  C   C1975     1.0  0.99724  0.75868  0.17195  1.0000
  S   S446      1.0  0.54891  0.64369  0.45903  1.0000
  Fe  Fe224     1.0  0.57295  0.69563  0.30826  1.0000
  S   S447      1.0  0.59812  0.70959  0.29360  1.0000
  S   S448      1.0  0.54315  0.70360  0.29740  1.0000
  Fe  Fe225     1.0  0.59566  0.67533  0.34383  1.0000
  S   S449      1.0  0.62217  0.68798  0.33143  1.0000
  S   S450      1.0  0.59919  0.65379  0.37199  1.0000
  Fe  Fe226     1.0  0.60554  0.71538  0.32829  1.0000
  S   S451      1.0  0.62172  0.74093  0.33798  1.0000
  Fe  Fe227     1.0  0.61338  0.68130  0.29776  1.0000
  S   S452      1.0  0.63643  0.67225  0.27241  1.0000
  S   S453      1.0  0.57955  0.70301  0.34301  1.0000
  S   S454      1.0  0.58760  0.66704  0.31015  1.0000
  H   H3517     1.0  0.58043  0.62152  0.44075  1.0000
  C   C1976     1.0  0.87980  0.68220  0.09220  1.0000
  H   H3518     1.0  0.59982  0.62599  0.40672  1.0000
  Fe  Fe228     1.0  0.92478  0.76181  0.20461  1.0000
  S   S455      1.0  0.94672  0.77732  0.18515  1.0000
  S   S456      1.0  0.92140  0.72990  0.20640  1.0000
  H   H3519     1.0  0.51936  0.64439  0.01993  1.0000
  H   H3520     1.0  0.65278  0.70856  0.25589  1.0000
  H   H3521     1.0  0.68307  0.71795  0.25214  1.0000
  S   S457      1.0  0.93037  0.77633  0.23602  1.0000
  S   S458      1.0  0.90132  0.78253  0.19622  1.0000
  H   H3522     1.0  0.54896  0.61099  0.08503  1.0000
  Fe  Fe229     1.0  0.90456  0.63410  0.13651  1.0000
  H   H3523     1.0  0.57532  0.60763  0.04464  1.0000
  S   S459      1.0  0.91382  0.66446  0.13810  1.0000
  C   C1977     1.0  0.50985  0.61434  0.08182  1.0000
  H   H3524     1.0  0.85232  0.68394  0.10669  1.0000
  S   S460      1.0  0.88225  0.62932  0.11219  1.0000
  S   S461      1.0  0.89158  0.61583  0.16314  1.0000
  H   H3525     1.0  0.66438  0.70405  0.47229  1.0000
  C   C1978     1.0  0.86235  0.65630  0.19442  1.0000
  H   H3526     1.0  0.62722  0.62967  0.18598  1.0000
  C   C1979     1.0  0.70115  0.61967  0.31050  1.0000
  H   H3527     1.0  0.89450  0.67960  0.09699  1.0000
  C   C1980     1.0  0.86809  0.73216  0.15449  1.0000
  C   C1981     1.0  0.91980  0.71185  0.18707  1.0000
  C   C1982     1.0  0.91509  0.69387  0.19472  1.0000
  C   C1983     1.0  0.91339  0.67917  0.18015  1.0000
  C   C1984     1.0  0.91654  0.68216  0.15761  1.0000
  C   C1985     1.0  0.92145  0.70009  0.14998  1.0000
  C   C1986     1.0  0.92296  0.71484  0.16452  1.0000
  H   H3528     1.0  0.91266  0.69131  0.21210  1.0000
  H   H3529     1.0  0.90968  0.66553  0.18638  1.0000
  H   H3530     1.0  0.92397  0.70265  0.13261  1.0000
  H   H3531     1.0  0.92662  0.72850  0.15828  1.0000
  H   H3532     1.0  0.86837  0.66782  0.12032  1.0000
  C   C1987     1.0  0.57177  0.61263  0.06134  1.0000
  H   H3533     1.0  0.63185  0.69191  0.41549  1.0000
  H   H3534     1.0  0.61929  0.67237  0.40737  1.0000
  H   H3535     1.0  0.57702  0.78240  0.50342  1.0000
  H   H3536     1.0  0.87629  0.67102  0.08111  1.0000
  C   C1988     1.0  0.52919  0.69690  0.27557  1.0000
  C   C1989     1.0  0.53467  0.68242  0.26166  1.0000
  H   H3537     1.0  0.67536  0.64534  0.32977  1.0000
  H   H3538     1.0  0.52746  0.66646  0.23405  1.0000
  H   H3539     1.0  0.54793  0.67494  0.26391  1.0000
  H   H3540     1.0  0.74111  0.61685  0.27896  1.0000
  C   C1990     1.0  0.71286  0.60704  0.27494  1.0000
  C   C1991     1.0  0.61805  0.76419  0.34777  1.0000
  C   C1992     1.0  0.63367  0.77464  0.35159  1.0000
  H   H3541     1.0  0.66987  0.65842  0.30495  1.0000
  H   H3542     1.0  0.67441  0.61033  0.03325  1.0000
  C   C1993     1.0  0.60031  0.77265  0.35146  1.0000
  H   H3543     1.0  0.64748  0.76839  0.34878  1.0000
  H   H3544     1.0  0.63477  0.69469  0.49115  1.0000
  H   H3545     1.0  0.58812  0.76493  0.34858  1.0000
  C   C1994     1.0  0.64649  0.65033  0.26365  1.0000
  C   C1995     1.0  0.63977  0.63318  0.27106  1.0000
  C   C1996     1.0  0.64833  0.61627  0.26371  1.0000
  C   C1997     1.0  0.66382  0.61615  0.24900  1.0000
  C   C1998     1.0  0.67050  0.63329  0.24150  1.0000
  C   C1999     1.0  0.66185  0.65021  0.24872  1.0000
  H   H3546     1.0  0.62798  0.63295  0.28248  1.0000
  C   C2000     1.0  0.82104  0.60659  0.18213  1.0000
  H   H3547     1.0  0.68237  0.63352  0.23020  1.0000
  H   H3548     1.0  0.66719  0.66333  0.24278  1.0000
  C   C2001     1.0  0.56240  0.64573  0.43434  1.0000
  C   C2002     1.0  0.55826  0.66055  0.41937  1.0000
  C   C2003     1.0  0.56909  0.66301  0.39994  1.0000
  C   C2004     1.0  0.58426  0.65068  0.39537  1.0000
  C   C2005     1.0  0.58820  0.63567  0.41018  1.0000
  C   C2006     1.0  0.57726  0.63313  0.42950  1.0000
  H   H3549     1.0  0.54665  0.67025  0.42287  1.0000
  H   H3550     1.0  0.56578  0.67450  0.38859  1.0000
  H   H3551     1.0  0.61982  0.69840  0.23543  1.0000
  C   C2007     1.0  0.61776  0.68661  0.41390  1.0000
  C   C2008     1.0  0.86870  0.71181  0.16393  1.0000
  N   N111      1.0  0.86053  0.69742  0.15003  1.0000
  H   H3552     1.0  0.98935  0.79415  0.18801  1.0000
  H   H3553     1.0  0.87438  0.68300  0.19300  1.0000
  H   H3554     1.0  0.98829  0.78515  0.12825  1.0000
  H   H3555     1.0  0.98825  0.76690  0.24309  1.0000
  Fe  Fe230     1.0  0.90840  0.79829  0.22599  1.0000
  C   C2009     1.0  0.50461  0.66756  0.32485  1.0000
  C   C2010     1.0  0.64079  0.76668  0.29006  1.0000
  N   N112      1.0  0.61600  0.67644  0.45526  1.0000
  H   H3556     1.0  0.64162  0.64541  0.46997  1.0000
  H   H3557     1.0  0.63231  0.71197  0.27165  1.0000
  C   C2011     1.0  0.82691  0.70439  0.16536  1.0000
  C   C2012     1.0  0.87543  0.74547  0.17084  1.0000
  H   H3558     1.0  0.91493  0.67344  0.00606  1.0000
  H   H3559     1.0  0.87543  0.64883  0.18879  1.0000
  C   C2013     1.0  0.65260  0.60680  0.16621  1.0000
  H   H3560     1.0  0.83897  0.71485  0.13458  1.0000
  H   H3561     1.0  0.96716  0.73886  0.18909  1.0000
  H   H3562     1.0  0.64226  0.67061  0.48937  1.0000
  H   H3563     1.0  0.51983  0.60715  0.09305  1.0000
  H   H3564     1.0  0.66884  0.69959  0.28403  1.0000
  C   C2014     1.0  0.89113  0.62421  0.00630  1.0000
  H   H3565     1.0  0.59993  0.78754  0.44721  1.0000
  H   H3566     1.0  0.79810  0.71283  0.17291  1.0000
  C   C2015     1.0  0.67824  0.73125  0.24406  1.0000
  C   C2016     1.0  0.66612  0.74388  0.25962  1.0000
  H   H3567     1.0  0.88651  0.69610  0.13122  1.0000
  H   H3568     1.0  0.85024  0.64918  0.18833  1.0000
  H   H3569     1.0  0.69123  0.75437  0.22636  1.0000
  H   H3570     1.0  0.60247  0.69513  0.47841  1.0000
  H   H3571     1.0  0.69010  0.63745  0.28309  1.0000
  H   H3572     1.0  0.96960  0.80158  0.27540  1.0000
  H   H3573     1.0  0.80170  0.70197  0.14686  1.0000
  H   H3574     1.0  0.00005  0.62490  0.25753  1.0000
  H   H3575     1.0  0.63155  0.61321  0.47578  1.0000
  C   C2017     1.0  0.52784  0.63190  0.01507  1.0000
  H   H3576     1.0  0.70057  0.61191  0.26544  1.0000
  C   C2018     1.0  0.63519  0.74959  0.27720  1.0000
  H   H3577     1.0  0.87694  0.67169  0.15627  1.0000
  H   H3578     1.0  0.61226  0.77485  0.30009  1.0000
  H   H3579     1.0  0.97586  0.73478  0.21617  1.0000
  H   H3580     1.0  0.51817  0.62046  0.01353  1.0000
  C   C2019     1.0  0.69540  0.74116  0.23530  1.0000
  C   C2020     1.0  0.62664  0.64286  0.46842  1.0000
  C   C2021     1.0  0.61822  0.65600  0.45034  1.0000
  H   H3581     1.0  0.64465  0.76255  0.30699  1.0000
  Fe  Fe231     1.0  0.90068  0.60533  0.10026  1.0000
  C   C2022     1.0  0.58385  0.67268  0.47521  1.0000
  H   H3582     1.0  0.86186  0.71223  0.18042  1.0000
  H   H3583     1.0  0.63873  0.73603  0.22959  1.0000
  H   H3584     1.0  0.65747  0.62046  0.19736  1.0000
  H   H3585     1.0  0.80837  0.72572  0.15017  1.0000
  C   C2023     1.0  0.59116  0.79884  0.47813  1.0000
  H   H3586     1.0  0.83188  0.71439  0.17702  1.0000
  H   H3587     1.0  0.61580  0.69857  0.38089  1.0000
  C   C2024     1.0  0.99717  0.79509  0.24149  1.0000
  H   H3588     1.0  0.98431  0.75863  0.16236  1.0000
  H   H3589     1.0  0.85366  0.73709  0.15071  1.0000
  H   H3590     1.0  0.62727  0.65386  0.43547  1.0000
  C   C2025     1.0  0.80761  0.71167  0.15829  1.0000
  H   H3591     1.0  0.71328  0.62829  0.31322  1.0000
  C   C2026     1.0  0.72787  0.62172  0.27134  1.0000
  C   C2027     1.0  0.52299  0.67762  0.24474  1.0000
  C   C2028     1.0  0.63480  0.68468  0.45759  1.0000
  H   H3592     1.0  0.87496  0.75991  0.16369  1.0000
  C   C2029     1.0  0.66313  0.68994  0.48011  1.0000
  C   C2030     1.0  0.62537  0.62240  0.46263  1.0000
  H   H3593     1.0  0.86890  0.71081  0.11905  1.0000
  C   C2031     1.0  0.86208  0.67667  0.18625  1.0000
  H   H3594     1.0  0.50759  0.62532  0.04906  1.0000
  C   C2032     1.0  0.00034  0.77516  0.12607  1.0000
  H   H3595     1.0  0.59367  0.69430  0.39407  1.0000
  H   H3596     1.0  0.51595  0.68697  0.06599  1.0000
  H   H3597     1.0  0.60111  0.77524  0.49873  1.0000
  H   H3598     1.0  0.63302  0.61952  0.44694  1.0000
  C   C2033     1.0  0.66550  0.61366  0.18381  1.0000
  H   H3599     1.0  0.88353  0.70775  0.16702  1.0000
  Fe  Fe232     1.0  0.95062  0.79316  0.21601  1.0000
  S   S462      1.0  0.58547  0.62435  0.50316  1.0000
  C   C2034     1.0  0.65698  0.72708  0.29447  1.0000
  H   H3600     1.0  0.66260  0.73814  0.30426  1.0000
  S   S463      1.0  0.92387  0.61078  0.12336  1.0000
  C   C2035     1.0  0.87129  0.69738  0.12836  1.0000
  C   C2036     1.0  0.63520  0.79507  0.42153  1.0000
  C   C2037     1.0  0.60782  0.69912  0.39673  1.0000
  C   C2038     1.0  0.98004  0.73717  0.19869  1.0000
  H   H3601     1.0  0.51444  0.65540  0.32201  1.0000
  C   C2039     1.0  0.51804  0.61652  0.05812  1.0000
  H   H3602     1.0  0.68574  0.71706  0.28784  1.0000
  C   C2040     1.0  0.99114  0.79324  0.31261  1.0000
  C   C2041     1.0  0.64212  0.71948  0.26055  1.0000
  C   C2042     1.0  0.86301  0.67815  0.16081  1.0000
  H   H3603     1.0  0.64125  0.70219  0.21998  1.0000
  H   H3604     1.0  0.99499  0.76089  0.12636  1.0000
  H   H3605     1.0  0.97964  0.79017  0.16277  1.0000
  C   C2043     1.0  0.60651  0.68635  0.43607  1.0000
  C   C2044     1.0  0.63122  0.72557  0.23978  1.0000
  H   H3606     1.0  0.50530  0.67136  0.34226  1.0000
  H   H3607     1.0  0.63117  0.78555  0.40866  1.0000
  H   H3608     1.0  0.87702  0.73336  0.13942  1.0000
  H   H3609     1.0  0.99848  0.61576  0.23058  1.0000
  H   H3610     1.0  0.68771  0.62165  0.16076  1.0000
  H   H3611     1.0  0.61733  0.73187  0.24462  1.0000
  H   H3612     1.0  0.51134  0.65486  0.05553  1.0000
  H   H3613     1.0  0.58215  0.60659  0.09411  1.0000
  H   H3614     1.0  0.67275  0.62479  0.29840  1.0000
  C   C2045     1.0  0.61396  0.80156  0.36277  1.0000
  H   H3615     1.0  0.82510  0.69067  0.17384  1.0000
  H   H3616     1.0  0.86172  0.65562  0.21261  1.0000
  H   H3617     1.0  0.98837  0.72470  0.19308  1.0000
  H   H3618     1.0  0.55469  0.63555  0.02948  1.0000
  H   H3619     1.0  0.63422  0.69969  0.45218  1.0000
  H   H3620     1.0  0.60673  0.71384  0.40185  1.0000
  H   H3621     1.0  0.71934  0.63036  0.23836  1.0000
  H   H3622     1.0  0.60262  0.70109  0.44010  1.0000
  C   C2046     1.0  0.68083  0.64954  0.31322  1.0000
  N   N113      1.0  0.65050  0.73491  0.27257  1.0000
  H   H3623     1.0  0.99834  0.77759  0.09073  1.0000
  H   H3624     1.0  0.89011  0.74149  0.17469  1.0000
  H   H3625     1.0  0.61062  0.61885  0.46117  1.0000
  H   H3626     1.0  0.67555  0.75039  0.27097  1.0000
  H   H3627     1.0  0.61967  0.71359  0.21132  1.0000
  H   H3628     1.0  0.83465  0.69086  0.13569  1.0000
  H   H3629     1.0  0.68773  0.69285  0.31673  1.0000
  H   H3630     1.0  0.61018  0.67345  0.49037  1.0000
  H   H3631     1.0  0.55256  0.64745  0.06594  1.0000
  H   H3632     1.0  0.60466  0.65071  0.44608  1.0000
  H   H3633     1.0  0.84949  0.68391  0.19327  1.0000
  H   H3634     1.0  0.70352  0.73203  0.22378  1.0000
  C   C2047     1.0  0.99302  0.79280  0.17039  1.0000
  H   H3635     1.0  0.86685  0.74535  0.18628  1.0000
  H   H3636     1.0  0.62946  0.75555  0.26166  1.0000
  C   C2048     1.0  0.84035  0.70204  0.14530  1.0000
  C   C2049     1.0  0.60953  0.62492  0.21414  1.0000
  C   C2050     1.0  0.64285  0.68445  0.48091  1.0000
  C   C2051     1.0  0.67591  0.70337  0.31722  1.0000
  H   H3637     1.0  0.66052  0.75563  0.24897  1.0000
  H   H3638     1.0  0.54866  0.61212  0.02586  1.0000
  C   C2052     1.0  0.52572  0.65896  0.05776  1.0000
  C   C2053     1.0  0.80566  0.60360  0.19661  1.0000
  H   H3639     1.0  0.66832  0.69018  0.49702  1.0000
  C   C2054     1.0  0.53817  0.64253  0.06686  1.0000
  H   H3640     1.0  0.57566  0.62734  0.06183  1.0000
  H   H3641     1.0  0.58382  0.76967  0.47930  1.0000
  H   H3642     1.0  0.70451  0.74428  0.24894  1.0000
  H   H3643     1.0  0.64536  0.67769  0.44648  1.0000
  H   H3644     1.0  0.67938  0.71456  0.32831  1.0000
  C   C2055     1.0  0.68569  0.63238  0.29969  1.0000
  H   H3645     1.0  0.64488  0.72172  0.30426  1.0000
  C   C2056     1.0  0.62783  0.70889  0.22579  1.0000
  C   C2057     1.0  0.86677  0.68190  0.11244  1.0000
  H   H3646     1.0  0.98573  0.79995  0.35608  1.0000
  H   H3647     1.0  0.65272  0.77357  0.28186  1.0000
  H   H3648     1.0  0.66338  0.69645  0.32392  1.0000
  H   H3649     1.0  0.85276  0.66862  0.15453  1.0000
  C   C2058     1.0  0.67865  0.62797  0.17388  1.0000
  H   H3650     1.0  0.53489  0.64068  0.08471  1.0000
  H   H3651     1.0  0.88870  0.62958  0.04111  1.0000
  C   C2059     1.0  0.59832  0.79114  0.35892  1.0000
  H   H3652     1.0  0.59325  0.67978  0.43262  1.0000
  H   H3653     1.0  0.51821  0.67107  0.08927  1.0000
  H   H3654     1.0  0.57552  0.67991  0.46222  1.0000
  C   C2060     1.0  0.67247  0.71136  0.29410  1.0000
  H   H3655     1.0  0.53660  0.79866  0.32282  1.0000
  H   H3656     1.0  0.62332  0.74319  0.28640  1.0000
  H   H3657     1.0  0.68767  0.63277  0.18678  1.0000
  C   C2061     1.0  0.89321  0.61962  0.02892  1.0000
  H   H3658     1.0  0.67015  0.72770  0.22973  1.0000
  H   H3659     1.0  0.53880  0.68031  0.07580  1.0000
  H   H3660     1.0  0.67199  0.67967  0.47080  1.0000
  H   H3661     1.0  0.67065  0.64029  0.16694  1.0000
  C   C2062     1.0  0.63168  0.79315  0.35890  1.0000
  N   N114      1.0  0.53722  0.62418  0.05570  1.0000
  H   H3662     1.0  0.50743  0.71766  0.28290  1.0000
  C   C2063     1.0  0.54307  0.62589  0.03172  1.0000
  C   C2064     1.0  0.73209  0.62517  0.24689  1.0000
  H   H3663     1.0  0.57200  0.69112  0.50027  1.0000
  H   H3664     1.0  0.64389  0.80091  0.36145  1.0000
  Fe  Fe233     1.0  0.55730  0.62510  0.48843  1.0000
  H   H3665     1.0  0.87839  0.69585  0.08315  1.0000
  H   H3666     1.0  0.58432  0.65749  0.47258  1.0000
  H   H3667     1.0  0.53166  0.66413  0.04182  1.0000
  C   C2065     1.0  0.52469  0.67529  0.07322  1.0000
  H   H3668     1.0  0.62073  0.78692  0.27549  1.0000
  C   C2066     1.0  0.51182  0.70638  0.27234  1.0000
  H   H3669     1.0  0.69326  0.65791  0.31482  1.0000
  H   H3670     1.0  0.66421  0.79234  0.41059  1.0000
  H   H3671     1.0  0.73760  0.61212  0.23924  1.0000
  H   H3672     1.0  0.86952  0.60860  0.22905  1.0000
  H   H3673     1.0  0.61803  0.78768  0.46610  1.0000
  C   C2067     1.0  0.99927  0.77598  0.24658  1.0000
  C   C2068     1.0  0.99144  0.75460  0.19625  1.0000
  H   H3674     1.0  0.72319  0.63528  0.27829  1.0000
  H   H3675     1.0  0.63779  0.78605  0.43629  1.0000
  H   H3676     1.0  0.58451  0.79740  0.36176  1.0000
  C   C2069     1.0  0.62457  0.78118  0.29193  1.0000
  C   C2070     1.0  0.60381  0.67988  0.47546  1.0000
  H   H3677     1.0  0.98548  0.77945  0.31740  1.0000
  C   C2071     1.0  0.61772  0.61880  0.19199  1.0000
  H   H3678     1.0  0.62079  0.62628  0.22597  1.0000
  Fe  Fe234     1.0  0.87058  0.60949  0.13804  1.0000
  H   H3679     1.0  0.80654  0.60688  0.21368  1.0000
  H   H3680     1.0  0.55924  0.67054  0.49640  1.0000
  H   H3681     1.0  0.74279  0.63577  0.24457  1.0000
  H   H3682     1.0  0.64543  0.61921  0.15823  1.0000
  S   S464      1.0  0.83870  0.60669  0.14050  1.0000
  H   H3683     1.0  0.59958  0.61471  0.22094  1.0000
  H   H3684     1.0  0.61932  0.64469  0.48446  1.0000
  C   C2072     1.0  0.57340  0.67599  0.49701  1.0000
  H   H3685     1.0  0.60610  0.61849  0.18048  1.0000
  Fe  Fe235     1.0  0.92363  0.79874  0.17829  1.0000
  C   C2073     1.0  0.50569  0.68720  0.24142  1.0000
  C   C2074     1.0  0.96172  0.80059  0.29123  1.0000
  H   H3686     1.0  0.60200  0.63873  0.21216  1.0000
  H   H3687     1.0  0.98291  0.76642  0.20301  1.0000
  H   H3688     1.0  0.69565  0.61583  0.32718  1.0000
  C   C2075     1.0  0.58815  0.78036  0.49059  1.0000
  C   C2076     1.0  0.55071  0.61037  0.06692  1.0000
  H   H3689     1.0  0.50912  0.67960  0.31442  1.0000
  H   H3690     1.0  0.83348  0.61230  0.18806  1.0000
  H   H3691     1.0  0.50585  0.62831  0.08827  1.0000
  H   H3692     1.0  0.62866  0.79282  0.30201  1.0000
  H   H3693     1.0  0.86532  0.61206  0.20031  1.0000
  C   C2077     1.0  0.60617  0.79641  0.45942  1.0000
  H   H3694     1.0  0.99781  0.79134  0.29605  1.0000
  H   H3695     1.0  0.95743  0.78602  0.29409  1.0000
  H   H3696     1.0  0.64298  0.60315  0.26968  1.0000
  H   H3697     1.0  0.61844  0.60373  0.15111  1.0000
  H   H3698     1.0  0.65515  0.64482  0.64951  1.0000
  Fe  Fe236     1.0  0.57137  0.69290  0.73097  1.0000
  S   S465      1.0  0.60081  0.70144  0.73516  1.0000
  S   S466      1.0  0.55082  0.69810  0.75981  1.0000
  Fe  Fe237     1.0  0.58098  0.67946  0.68454  1.0000
  S   S467      1.0  0.61049  0.68833  0.68566  1.0000
  S   S468      1.0  0.56905  0.66042  0.65972  1.0000
  Fe  Fe238     1.0  0.61052  0.67459  0.71955  1.0000
  S   S469      1.0  0.63510  0.65318  0.72483  1.0000
  Fe  Fe239     1.0  0.59840  0.71464  0.70118  1.0000
  S   S470      1.0  0.60829  0.74489  0.70009  1.0000
  S   S471      1.0  0.58126  0.66518  0.71798  1.0000
  S   S472      1.0  0.56869  0.70669  0.69754  1.0000
  Fe  Fe240     1.0  0.57059  0.62810  0.53578  1.0000
  S   S473      1.0  0.54241  0.63104  0.52069  1.0000
  S   S474      1.0  0.58206  0.65025  0.55704  1.0000
  C   C2078     1.0  0.52480  0.75613  0.75713  1.0000
  H   H3699     1.0  0.50750  0.64195  0.90466  1.0000
  C   C2079     1.0  0.52502  0.64865  0.58138  1.0000
  Fe  Fe241     1.0  0.94723  0.78078  0.80569  1.0000
  S   S475      1.0  0.91632  0.77799  0.80184  1.0000
  S   S476      1.0  0.96537  0.77453  0.77511  1.0000
  Fe  Fe242     1.0  0.91636  0.76502  0.83603  1.0000
  S   S477      1.0  0.89694  0.74154  0.84661  1.0000
  S   S478      1.0  0.94745  0.76579  0.83876  1.0000
  Fe  Fe243     1.0  0.89855  0.62725  0.87910  1.0000
  H   H3700     1.0  0.64391  0.80295  0.58948  1.0000
  S   S479      1.0  0.91146  0.65311  0.86235  1.0000
  H   H3701     1.0  0.60482  0.63732  0.69773  1.0000
  H   H3702     1.0  0.53651  0.67371  0.80896  1.0000
  H   H3703     1.0  0.64031  0.62304  0.69086  1.0000
  S   S480      1.0  0.87541  0.62593  0.90470  1.0000
  H   H3704     1.0  0.59458  0.62459  0.66224  1.0000
  H   H3705     1.0  0.83618  0.63342  0.92181  1.0000
  H   H3706     1.0  0.53500  0.75560  0.77041  1.0000
  H   H3707     1.0  0.94679  0.64881  0.92519  1.0000
  H   H3708     1.0  0.95980  0.63667  0.89051  1.0000
  C   C2080     1.0  0.90128  0.71696  0.85071  1.0000
  C   C2081     1.0  0.91881  0.70820  0.84674  1.0000
  C   C2082     1.0  0.92151  0.68869  0.85011  1.0000
  C   C2083     1.0  0.90683  0.67762  0.85770  1.0000
  C   C2084     1.0  0.88929  0.68637  0.86166  1.0000
  C   C2085     1.0  0.88657  0.70589  0.85820  1.0000
  H   H3709     1.0  0.93027  0.71644  0.84092  1.0000
  H   H3710     1.0  0.93512  0.68212  0.84687  1.0000
  H   H3711     1.0  0.87781  0.67809  0.86728  1.0000
  H   H3712     1.0  0.87293  0.71244  0.86127  1.0000
  H   H3713     1.0  0.51384  0.68545  0.85268  1.0000
  H   H3714     1.0  0.85844  0.60819  0.95480  1.0000
  C   C2086     1.0  0.52616  0.69768  0.75922  1.0000
  H   H3715     1.0  0.66695  0.62112  0.90551  1.0000
  H   H3716     1.0  0.58427  0.76224  0.74512  1.0000
  C   C2087     1.0  0.51710  0.69214  0.74079  1.0000
  H   H3717     1.0  0.54029  0.67919  0.60029  1.0000
  H   H3718     1.0  0.52520  0.68779  0.72648  1.0000
  C   C2088     1.0  0.60758  0.76584  0.68336  1.0000
  C   C2089     1.0  0.61449  0.78215  0.69167  1.0000
  C   C2090     1.0  0.60291  0.62229  0.69573  1.0000
  C   C2091     1.0  0.60059  0.78364  0.64962  1.0000
  C   C2092     1.0  0.60048  0.76676  0.66227  1.0000
  H   H3719     1.0  0.61985  0.78172  0.70804  1.0000
  H   H3720     1.0  0.59514  0.78409  0.63330  1.0000
  H   H3721     1.0  0.59504  0.75443  0.65562  1.0000
  C   C2093     1.0  0.57414  0.65734  0.63144  1.0000
  C   C2094     1.0  0.58411  0.67013  0.61857  1.0000
  C   C2095     1.0  0.58675  0.66756  0.59587  1.0000
  C   C2096     1.0  0.57966  0.65213  0.58588  1.0000
  C   C2097     1.0  0.57039  0.63897  0.59892  1.0000
  C   C2098     1.0  0.56744  0.64169  0.62153  1.0000
  H   H3722     1.0  0.58935  0.68222  0.62598  1.0000
  H   H3723     1.0  0.59404  0.67778  0.58591  1.0000
  H   H3724     1.0  0.56533  0.62683  0.59146  1.0000
  H   H3725     1.0  0.55993  0.63162  0.63145  1.0000
  H   H3726     1.0  0.54483  0.62366  0.98647  1.0000
  C   C2099     1.0  0.92413  0.78569  0.73736  1.0000
  H   H3727     1.0  0.63056  0.61554  0.59342  1.0000
  H   H3728     1.0  0.79410  0.79362  0.79254  1.0000
  C   C2100     1.0  0.66133  0.62243  0.78539  1.0000
  C   C2101     1.0  0.66808  0.61894  0.76410  1.0000
  C   C2102     1.0  0.65984  0.62843  0.74588  1.0000
  C   C2103     1.0  0.64467  0.64143  0.74857  1.0000
  C   C2104     1.0  0.63777  0.64472  0.76983  1.0000
  C   C2105     1.0  0.64607  0.63532  0.78805  1.0000
  C   C2106     1.0  0.58341  0.60381  0.86997  1.0000
  H   H3729     1.0  0.66541  0.62582  0.72958  1.0000
  H   H3730     1.0  0.62617  0.65466  0.77227  1.0000
  H   H3731     1.0  0.87164  0.75745  0.76858  1.0000
  C   C2107     1.0  0.66144  0.78152  0.66581  1.0000
  H   H3732     1.0  0.64008  0.64633  0.62652  1.0000
  H   H3733     1.0  0.64661  0.78403  0.66159  1.0000
  H   H3734     1.0  0.85407  0.75847  0.90055  1.0000
  C   C2108     1.0  0.79553  0.60828  0.85244  1.0000
  C   C2109     1.0  0.54838  0.79041  0.69774  1.0000
  C   C2110     1.0  0.65722  0.61375  0.87357  1.0000
  H   H3735     1.0  0.50740  0.77819  0.77225  1.0000
  H   H3736     1.0  0.53324  0.69646  0.57968  1.0000
  C   C2111     1.0  0.86426  0.77024  0.79949  1.0000
  C   C2112     1.0  0.52063  0.66979  0.57690  1.0000
  C   C2113     1.0  0.55865  0.77596  0.71315  1.0000
  C   C2114     1.0  0.50621  0.76373  0.76675  1.0000
  C   C2115     1.0  0.86968  0.77167  0.77513  1.0000
  H   H3737     1.0  0.51168  0.71296  0.69465  1.0000
  H   H3738     1.0  0.85223  0.64147  0.94147  1.0000
  H   H3739     1.0  0.50805  0.67481  0.58630  1.0000
  H   H3740     1.0  0.64458  0.67635  0.66023  1.0000
  H   H3741     1.0  0.62791  0.67793  0.63844  1.0000
  H   H3742     1.0  0.54536  0.64816  0.99261  1.0000
  S   S481      1.0  0.91058  0.79296  0.85165  1.0000
  C   C2116     1.0  0.67359  0.80039  0.63396  1.0000
  H   H3743     1.0  0.67979  0.60914  0.76170  1.0000
  H   H3744     1.0  0.82886  0.77067  0.83107  1.0000
  C   C2117     1.0  0.64050  0.61510  0.67547  1.0000
  H   H3745     1.0  0.87554  0.76191  0.80788  1.0000
  H   H3746     1.0  0.85140  0.76236  0.80142  1.0000
  H   H3747     1.0  0.78077  0.61784  0.80273  1.0000
  H   H3748     1.0  0.83330  0.60574  0.99621  1.0000
  H   H3749     1.0  0.85859  0.77946  0.76584  1.0000
  H   H3750     1.0  0.98876  0.77488  0.73616  1.0000
  C   C2118     1.0  0.52678  0.73409  0.71019  1.0000
  C   C2119     1.0  0.65468  0.74739  0.66282  1.0000
  H   H3751     1.0  0.79246  0.62069  0.84242  1.0000
  H   H3752     1.0  0.53535  0.64404  0.56842  1.0000
  C   C2120     1.0  0.64155  0.67160  0.64366  1.0000
  H   H3753     1.0  0.68344  0.78969  0.62669  1.0000
  C   C2121     1.0  0.50377  0.64659  0.62280  1.0000
  C   C2122     1.0  0.83162  0.62289  0.95530  1.0000
  C   C2123     1.0  0.79418  0.61386  0.79420  1.0000
  N   N115      1.0  0.54718  0.76045  0.72290  1.0000
  C   C2124     1.0  0.56034  0.74714  0.73517  1.0000
  C   C2125     1.0  0.53929  0.75054  0.70411  1.0000
  H   H3754     1.0  0.96948  0.65872  0.89596  1.0000
  C   C2126     1.0  0.53172  0.76867  0.73749  1.0000
  C   C2127     1.0  0.50743  0.67659  0.84070  1.0000
  C   C2128     1.0  0.66844  0.76244  0.65675  1.0000
  C   C2129     1.0  0.85225  0.77570  0.87069  1.0000
  H   H3755     1.0  0.58076  0.66855  0.51070  1.0000
  H   H3756     1.0  0.82206  0.79230  0.84254  1.0000
  H   H3757     1.0  0.66017  0.73370  0.65685  1.0000
  H   H3758     1.0  0.55295  0.73532  0.74282  1.0000
  H   H3759     1.0  0.53035  0.76033  0.69409  1.0000
  H   H3760     1.0  0.55081  0.74539  0.69291  1.0000
  H   H3761     1.0  0.51639  0.64980  0.82575  1.0000
  H   H3762     1.0  0.51948  0.77310  0.72750  1.0000
  H   H3763     1.0  0.79384  0.79922  0.82106  1.0000
  H   H3764     1.0  0.62632  0.64923  0.67481  1.0000
  H   H3765     1.0  0.52225  0.70761  0.79203  1.0000
  H   H3766     1.0  0.56354  0.76744  0.76123  1.0000
  H   H3767     1.0  0.52506  0.61383  0.56805  1.0000
  C   C2130     1.0  0.62525  0.64293  0.65851  1.0000
  H   H3768     1.0  0.68476  0.61068  0.88767  1.0000
  C   C2131     1.0  0.61697  0.61072  0.59996  1.0000
  H   H3769     1.0  0.53426  0.72323  0.72027  1.0000
  C   C2132     1.0  0.53955  0.66728  0.82537  1.0000
  H   H3770     1.0  0.53273  0.64708  0.59677  1.0000
  C   C2133     1.0  0.51553  0.61631  0.58251  1.0000
  C   C2134     1.0  0.86175  0.78979  0.80965  1.0000
  H   H3771     1.0  0.68202  0.75794  0.66386  1.0000
  N   N116      1.0  0.92078  0.68118  0.92828  1.0000
  C   C2135     1.0  0.92031  0.70214  0.93026  1.0000
  C   C2136     1.0  0.92562  0.67141  0.94984  1.0000
  C   C2137     1.0  0.93612  0.67620  0.91167  1.0000
  C   C2138     1.0  0.90277  0.67454  0.92002  1.0000
  C   C2139     1.0  0.88477  0.67979  0.93345  1.0000
  C   C2140     1.0  0.91513  0.71380  0.90922  1.0000
  H   H3772     1.0  0.54984  0.65542  0.82307  1.0000
  H   H3773     1.0  0.53601  0.78175  0.74479  1.0000
  H   H3774     1.0  0.61279  0.61429  0.70649  1.0000
  C   C2141     1.0  0.86749  0.67879  0.91968  1.0000
  C   C2142     1.0  0.91474  0.73472  0.91318  1.0000
  H   H3775     1.0  0.93412  0.70650  0.93549  1.0000
  H   H3776     1.0  0.91041  0.70691  0.94336  1.0000
  H   H3777     1.0  0.92159  0.65658  0.94984  1.0000
  H   H3778     1.0  0.94099  0.67084  0.95191  1.0000
  H   H3779     1.0  0.94911  0.68320  0.91538  1.0000
  H   H3780     1.0  0.93225  0.68132  0.89496  1.0000
  H   H3781     1.0  0.90093  0.67944  0.90281  1.0000
  H   H3782     1.0  0.90327  0.65907  0.91924  1.0000
  H   H3783     1.0  0.88455  0.69410  0.93960  1.0000
  H   H3784     1.0  0.88336  0.66975  0.94760  1.0000
  H   H3785     1.0  0.92539  0.71113  0.89564  1.0000
  H   H3786     1.0  0.90112  0.71055  0.90375  1.0000
  H   H3787     1.0  0.92923  0.64751  0.90514  1.0000
  H   H3788     1.0  0.73081  0.79505  0.66315  1.0000
  C   C2143     1.0  0.99733  0.77815  0.74961  1.0000
  S   S482      1.0  0.95873  0.80263  0.88141  1.0000
  H   H3789     1.0  0.53238  0.71954  0.67961  1.0000
  H   H3790     1.0  0.82310  0.61662  0.86015  1.0000
  H   H3791     1.0  0.86753  0.68972  0.90635  1.0000
  H   H3792     1.0  0.86700  0.66494  0.91230  1.0000
  H   H3793     1.0  0.85475  0.68113  0.93015  1.0000
  H   H3794     1.0  0.90414  0.73850  0.92607  1.0000
  H   H3795     1.0  0.92863  0.73894  0.91812  1.0000
  H   H3796     1.0  0.91110  0.74260  0.89779  1.0000
  H   H3797     1.0  0.85558  0.79968  0.79726  1.0000
  H   H3798     1.0  0.83294  0.62850  0.97183  1.0000
  H   H3799     1.0  0.67644  0.63439  0.88253  1.0000
  C   C2144     1.0  0.61220  0.61908  0.62222  1.0000
  H   H3800     1.0  0.90222  0.68307  0.97049  1.0000
  C   C2145     1.0  0.80029  0.78980  0.80861  1.0000
  H   H3801     1.0  0.51563  0.63731  0.62804  1.0000
  H   H3802     1.0  0.50895  0.66086  0.62065  1.0000
  H   H3803     1.0  0.56449  0.78402  0.72635  1.0000
  H   H3804     1.0  0.57095  0.77002  0.70370  1.0000
  H   H3805     1.0  0.52517  0.63924  0.98054  1.0000
  C   C2146     1.0  0.85993  0.75850  0.88353  1.0000
  H   H3806     1.0  0.93812  0.78031  0.73161  1.0000
  H   H3807     1.0  0.88496  0.63770  0.00149  1.0000
  H   H3808     1.0  0.81674  0.62066  0.95264  1.0000
  H   H3809     1.0  0.87601  0.79475  0.81175  1.0000
  H   H3810     1.0  0.88295  0.77883  0.77262  1.0000
  H   H3811     1.0  0.54586  0.67774  0.83549  1.0000
  C   C2147     1.0  0.95657  0.65188  0.89187  1.0000
  H   H3812     1.0  0.66298  0.61385  0.85653  1.0000
  C   C2148     1.0  0.57171  0.75609  0.75296  1.0000
  H   H3813     1.0  0.50787  0.63787  0.54666  1.0000
  H   H3814     1.0  0.65257  0.67653  0.63204  1.0000
  H   H3815     1.0  0.50328  0.63624  0.86517  1.0000
  H   H3816     1.0  0.79387  0.61936  0.77700  1.0000
  H   H3817     1.0  0.69938  0.78321  0.65827  1.0000
  H   H3818     1.0  0.51398  0.73913  0.71916  1.0000
  H   H3819     1.0  0.64072  0.63821  0.80438  1.0000
  H   H3820     1.0  0.99461  0.78406  0.80459  1.0000
  H   H3821     1.0  0.56611  0.73541  0.77907  1.0000
  C   C2149     1.0  0.60776  0.79988  0.65778  1.0000
  Fe  Fe244     1.0  0.89536  0.60825  0.92552  1.0000
  C   C2150     1.0  0.57821  0.74179  0.77051  1.0000
  C   C2151     1.0  0.51537  0.70319  0.77773  1.0000
  C   C2152     1.0  0.83759  0.63806  0.93882  1.0000
  H   H3822     1.0  0.58144  0.62146  0.72141  1.0000
  C   C2153     1.0  0.98932  0.77909  0.77089  1.0000
  H   H3823     1.0  0.91462  0.65349  0.98900  1.0000
  S   S483      1.0  0.91896  0.61058  0.90037  1.0000
  H   H3824     1.0  0.61196  0.64912  0.65199  1.0000
  C   C2154     1.0  0.52178  0.66024  0.83655  1.0000
  H   H3825     1.0  0.79704  0.77515  0.81307  1.0000
  H   H3826     1.0  0.52578  0.65338  0.85236  1.0000
  H   H3827     1.0  0.51812  0.67248  0.55918  1.0000
  H   H3828     1.0  0.53482  0.79535  0.70511  1.0000
  H   H3829     1.0  0.52296  0.74155  0.75269  1.0000
  C   C2155     1.0  0.52565  0.60890  0.60325  1.0000
  H   H3830     1.0  0.95172  0.65745  0.87573  1.0000
  H   H3831     1.0  0.50399  0.60678  0.58105  1.0000
  H   H3832     1.0  0.65243  0.74610  0.68088  1.0000
  S   S484      1.0  0.67140  0.61143  0.80927  1.0000
  H   H3833     1.0  0.54941  0.67760  0.57242  1.0000
  C   C2156     1.0  0.64144  0.65034  0.64374  1.0000
  H   H3834     1.0  0.57067  0.74043  0.72358  1.0000
  H   H3835     1.0  0.60610  0.61530  0.58813  1.0000
  H   H3836     1.0  0.85865  0.76176  0.84060  1.0000
  H   H3837     1.0  0.64850  0.78606  0.62477  1.0000
  H   H3838     1.0  0.58638  0.74870  0.78277  1.0000
  C   C2157     1.0  0.67225  0.62032  0.88828  1.0000
  H   H3839     1.0  0.64105  0.75081  0.65518  1.0000
  H   H3840     1.0  0.80556  0.62041  0.80258  1.0000
  C   C2158     1.0  0.94144  0.65511  0.90964  1.0000
  N   N117      1.0  0.67253  0.79806  0.65862  1.0000
  H   H3841     1.0  0.58723  0.73063  0.76306  1.0000
  H   H3842     1.0  0.82859  0.65091  0.94100  1.0000
  H   H3843     1.0  0.51175  0.73500  0.67965  1.0000
  C   C2159     1.0  0.91740  0.68011  0.97115  1.0000
  H   H3844     1.0  0.67020  0.76303  0.63866  1.0000
  H   H3845     1.0  0.57272  0.62641  0.69439  1.0000
  H   H3846     1.0  0.92410  0.69340  0.97403  1.0000
  H   H3847     1.0  0.61116  0.63445  0.61977  1.0000
  H   H3848     1.0  0.87513  0.77807  0.84713  1.0000
  H   H3849     1.0  0.87534  0.75868  0.88423  1.0000
  H   H3850     1.0  0.65412  0.61801  0.66732  1.0000
  H   H3851     1.0  0.82689  0.78288  0.79362  1.0000
  C   C2160     1.0  0.52032  0.72489  0.68971  1.0000
  H   H3852     1.0  0.85661  0.78804  0.87935  1.0000
  H   H3853     1.0  0.53671  0.61805  0.60775  1.0000
  H   H3854     1.0  0.64542  0.62421  0.87450  1.0000
  C   C2161     1.0  0.53691  0.68141  0.58273  1.0000
  C   C2162     1.0  0.85992  0.77609  0.84664  1.0000
  H   H3855     1.0  0.85616  0.74548  0.87578  1.0000
  H   H3856     1.0  0.83683  0.77553  0.87136  1.0000
  Fe  Fe245     1.0  0.94164  0.79448  0.85251  1.0000
  C   C2163     1.0  0.92106  0.66706  0.99101  1.0000
  H   H3857     1.0  0.62022  0.61249  0.86368  1.0000
  C   C2164     1.0  0.53642  0.63600  0.99232  1.0000
  H   H3858     1.0  0.51546  0.60765  0.61719  1.0000
  C   C2165     1.0  0.60607  0.61723  0.67141  1.0000
  N   N118      1.0  0.62468  0.62196  0.66116  1.0000
  H   H3859     1.0  0.91355  0.78065  0.72641  1.0000
  H   H3860     1.0  0.93626  0.66448  0.99316  1.0000
  C   C2166     1.0  0.83063  0.78598  0.82896  1.0000
  H   H3861     1.0  0.66125  0.77961  0.68395  1.0000
  C   C2167     1.0  0.58324  0.61795  0.70388  1.0000
  H   H3862     1.0  0.69180  0.79057  0.68444  1.0000
  H   H3863     1.0  0.64108  0.61458  0.63211  1.0000
  H   H3864     1.0  0.54593  0.78415  0.68177  1.0000
  N   N119      1.0  0.50846  0.63647  0.58214  1.0000
  C   C2168     1.0  0.69204  0.79502  0.66679  1.0000
  H   H3865     1.0  0.50660  0.68542  0.82537  1.0000
  N   N120      1.0  0.85082  0.79041  0.83113  1.0000
  H   H3866     1.0  0.58503  0.61860  0.86459  1.0000
  C   C2169     1.0  0.82134  0.79186  0.80697  1.0000
  S   S485      1.0  0.89463  0.61870  0.96142  1.0000
  H   H3867     1.0  0.66687  0.79168  0.59039  1.0000
  C   C2170     1.0  0.89707  0.61166  0.98991  1.0000
  C   C2171     1.0  0.65762  0.80294  0.59738  1.0000
  H   H3868     1.0  0.92132  0.77998  0.75417  1.0000
  C   C2172     1.0  0.65488  0.79974  0.62211  1.0000
  C   C2173     1.0  0.62688  0.61273  0.63938  1.0000
  C   C2174     1.0  0.81297  0.60603  0.86253  1.0000
  C   C2175     1.0  0.00055  0.78333  0.78814  1.0000
  H   H3869     1.0  0.59827  0.61435  0.62759  1.0000
  C   C2176     1.0  0.61447  0.79906  0.67907  1.0000
  C   C2177     1.0  0.84381  0.60457  0.95267  1.0000
  H   H3870     1.0  0.50197  0.75477  0.78107  1.0000
  H   H3871     1.0  0.57366  0.80302  0.68507  1.0000
  H   H3872     1.0  0.68695  0.99823  0.32506  1.0000
  S   S486      1.0  0.97424  0.88078  0.03885  1.0000
  H   H3873     1.0  0.59585  0.86759  0.50473  1.0000
  S   S487      1.0  0.93622  0.85919  0.02795  1.0000
  Fe  Fe246     1.0  0.94558  0.88869  0.02712  1.0000
  S   S488      1.0  0.92895  0.91174  0.04465  1.0000
  Fe  Fe247     1.0  0.96547  0.85113  0.03753  1.0000
  S   S489      1.0  0.97360  0.83110  0.06584  1.0000
  H   H3874     1.0  0.98348  0.93141  0.50112  1.0000
  Fe  Fe248     1.0  0.87276  0.94459  0.49159  1.0000
  S   S490      1.0  0.85139  0.94606  0.46431  1.0000
  H   H3875     1.0  0.98568  0.87570  0.11801  1.0000
  S   S491      1.0  0.89728  0.96311  0.49094  1.0000
  H   H3876     1.0  0.61622  0.83534  0.48712  1.0000
  H   H3877     1.0  0.76785  0.90631  0.37823  1.0000
  H   H3878     1.0  0.91132  0.82607  0.10101  1.0000
  Fe  Fe249     1.0  0.82450  0.90716  0.34836  1.0000
  S   S492      1.0  0.81343  0.88250  0.33197  1.0000
  S   S493      1.0  0.84295  0.90001  0.37757  1.0000
  Fe  Fe250     1.0  0.80712  0.93459  0.31433  1.0000
  S   S494      1.0  0.79463  0.91175  0.29606  1.0000
  S   S495      1.0  0.80178  0.96592  0.30799  1.0000
  Fe  Fe251     1.0  0.78643  0.89979  0.32954  1.0000
  S   S496      1.0  0.75989  0.88417  0.33880  1.0000
  Fe  Fe252     1.0  0.82254  0.89616  0.30010  1.0000
  S   S497      1.0  0.83891  0.88392  0.27050  1.0000
  S   S498      1.0  0.79715  0.92359  0.34762  1.0000
  S   S499      1.0  0.83538  0.91990  0.31660  1.0000
  Fe  Fe253     1.0  0.62295  0.85227  0.38326  1.0000
  S   S500      1.0  0.60065  0.86884  0.40176  1.0000
  S   S501      1.0  0.61047  0.82491  0.37225  1.0000
  Fe  Fe254     1.0  0.64941  0.88460  0.38625  1.0000
  S   S502      1.0  0.62760  0.90277  0.40440  1.0000
  S   S503      1.0  0.67711  0.89920  0.37933  1.0000
  Fe  Fe255     1.0  0.62244  0.87674  0.42520  1.0000
  S   S504      1.0  0.61419  0.87416  0.46254  1.0000
  Fe  Fe256     1.0  0.60729  0.89362  0.37966  1.0000
  S   S505      1.0  0.58069  0.90805  0.36435  1.0000
  S   S506      1.0  0.64464  0.85872  0.40788  1.0000
  S   S507      1.0  0.62924  0.87694  0.36056  1.0000
  Fe  Fe257     1.0  0.52521  0.98306  0.27234  1.0000
  S   S508      1.0  0.54968  0.96931  0.29228  1.0000
  S   S509      1.0  0.52552  0.98042  0.23547  1.0000
  C   C2178     1.0  0.57248  0.92545  0.34444  1.0000
  C   C2179     1.0  0.58445  0.93639  0.33149  1.0000
  C   C2180     1.0  0.57721  0.94970  0.31586  1.0000
  C   C2181     1.0  0.55790  0.95230  0.31263  1.0000
  C   C2182     1.0  0.54591  0.94138  0.32561  1.0000
  C   C2183     1.0  0.55314  0.92819  0.34137  1.0000
  H   H3879     1.0  0.59932  0.93462  0.33350  1.0000
  H   H3880     1.0  0.58672  0.95799  0.30606  1.0000
  H   H3881     1.0  0.53108  0.94295  0.32333  1.0000
  H   H3882     1.0  0.54366  0.91982  0.35111  1.0000
  H   H3883     1.0  0.74569  0.95189  0.25610  1.0000
  C   C2184     1.0  0.62183  0.87635  0.49021  1.0000
  H   H3884     1.0  0.64927  0.88537  0.48175  1.0000
  H   H3885     1.0  0.54509  0.91093  0.29582  1.0000
  C   C2185     1.0  0.80598  0.97984  0.28383  1.0000
  C   C2186     1.0  0.81279  0.97216  0.26426  1.0000
  H   H3886     1.0  0.75830  0.95726  0.39492  1.0000
  H   H3887     1.0  0.81599  0.95730  0.26364  1.0000
  H   H3888     1.0  0.81413  0.91584  0.45753  1.0000
  C   C2187     1.0  0.73686  0.88892  0.34974  1.0000
  C   C2188     1.0  0.73038  0.90673  0.35601  1.0000
  C   C2189     1.0  0.71213  0.90954  0.36501  1.0000
  C   C2190     1.0  0.69998  0.89471  0.36769  1.0000
  C   C2191     1.0  0.70648  0.87695  0.36137  1.0000
  C   C2192     1.0  0.72477  0.87410  0.35256  1.0000
  H   H3889     1.0  0.73941  0.91831  0.35397  1.0000
  H   H3890     1.0  0.70731  0.92334  0.36986  1.0000
  H   H3891     1.0  0.69743  0.86538  0.36332  1.0000
  H   H3892     1.0  0.72958  0.86027  0.34780  1.0000
  C   C2193     1.0  0.87411  0.82938  0.25738  1.0000
  C   C2194     1.0  0.86184  0.83048  0.27578  1.0000
  C   C2195     1.0  0.85073  0.84685  0.27984  1.0000
  C   C2196     1.0  0.85184  0.86249  0.26565  1.0000
  C   C2197     1.0  0.86406  0.86138  0.24720  1.0000
  C   C2198     1.0  0.87515  0.84499  0.24310  1.0000
  H   H3893     1.0  0.86077  0.81847  0.28684  1.0000
  H   H3894     1.0  0.84109  0.84726  0.29374  1.0000
  H   H3895     1.0  0.86501  0.87333  0.23602  1.0000
  H   H3896     1.0  0.88445  0.84440  0.22886  1.0000
  C   C2199     1.0  0.84964  0.93316  0.44013  1.0000
  C   C2200     1.0  0.83658  0.93940  0.42446  1.0000
  C   C2201     1.0  0.83442  0.92953  0.40518  1.0000
  C   C2202     1.0  0.84515  0.91311  0.40149  1.0000
  C   C2203     1.0  0.85798  0.90670  0.41731  1.0000
  C   C2204     1.0  0.86034  0.91672  0.43643  1.0000
  H   H3897     1.0  0.82820  0.95208  0.42719  1.0000
  H   H3898     1.0  0.82449  0.93466  0.39321  1.0000
  H   H3899     1.0  0.86624  0.89392  0.41474  1.0000
  H   H3900     1.0  0.87032  0.91166  0.44839  1.0000
  C   C2205     1.0  0.95762  0.82491  0.08724  1.0000
  C   C2206     1.0  0.96437  0.81683  0.10691  1.0000
  H   H3901     1.0  0.98786  0.81653  0.39138  1.0000
  C   C2207     1.0  0.93291  0.81596  0.12265  1.0000
  C   C2208     1.0  0.92615  0.82354  0.10277  1.0000
  C   C2209     1.0  0.93843  0.82803  0.08517  1.0000
  H   H3902     1.0  0.62494  0.81185  0.49395  1.0000
  H   H3903     1.0  0.80502  0.90487  0.42194  1.0000
  C   C2210     1.0  0.99808  0.82580  0.38322  1.0000
  H   H3904     1.0  0.93303  0.83387  0.06997  1.0000
  C   C2211     1.0  0.92421  0.93333  0.03079  1.0000
  C   C2212     1.0  0.91515  0.94804  0.04213  1.0000
  C   C2213     1.0  0.91135  0.96545  0.03147  1.0000
  H   H3905     1.0  0.91101  0.94593  0.05916  1.0000
  H   H3906     1.0  0.90427  0.97669  0.04023  1.0000
  C   C2214     1.0  0.51581  0.95769  0.17274  1.0000
  H   H3907     1.0  0.89370  0.85868  0.06731  1.0000
  H   H3908     1.0  0.57526  0.98747  0.18671  1.0000
  C   C2215     1.0  0.55551  0.82134  0.32047  1.0000
  H   H3909     1.0  0.90194  0.87792  0.05029  1.0000
  H   H3910     1.0  0.51799  0.96211  0.09982  1.0000
  C   C2216     1.0  0.57317  0.87099  0.30792  1.0000
  C   C2217     1.0  0.58986  0.84095  0.31380  1.0000
  C   C2218     1.0  0.60856  0.85002  0.31753  1.0000
  H   H3911     1.0  0.74143  0.96097  0.33538  1.0000
  C   C2219     1.0  0.62515  0.83642  0.31309  1.0000
  H   H3912     1.0  0.58483  0.87902  0.31368  1.0000
  H   H3913     1.0  0.57607  0.86873  0.29015  1.0000
  H   H3914     1.0  0.58970  0.83738  0.29619  1.0000
  C   C2220     1.0  0.55603  0.84214  0.31264  1.0000
  H   H3915     1.0  0.60906  0.85435  0.33467  1.0000
  H   H3916     1.0  0.61037  0.86237  0.30637  1.0000
  C   C2221     1.0  0.89315  0.87411  0.06489  1.0000
  H   H3917     1.0  0.62548  0.83212  0.29579  1.0000
  H   H3918     1.0  0.63828  0.84328  0.31620  1.0000
  H   H3919     1.0  0.62443  0.82384  0.32410  1.0000
  N   N121      1.0  0.89061  0.87630  0.31983  1.0000
  C   C2222     1.0  0.88101  0.88608  0.30078  1.0000
  C   C2223     1.0  0.88052  0.85890  0.32618  1.0000
  C   C2224     1.0  0.89041  0.88955  0.33850  1.0000
  C   C2225     1.0  0.91055  0.87063  0.31377  1.0000
  C   C2226     1.0  0.91360  0.85943  0.29248  1.0000
  C   C2227     1.0  0.89046  0.90353  0.29081  1.0000
  C   C2228     1.0  0.89649  0.88096  0.36096  1.0000
  C   C2229     1.0  0.86006  0.86195  0.33447  1.0000
  C   C2230     1.0  0.85202  0.84349  0.34236  1.0000
  C   C2231     1.0  0.87999  0.91156  0.27096  1.0000
  C   C2232     1.0  0.89804  0.89614  0.37767  1.0000
  H   H3920     1.0  0.86661  0.89089  0.30570  1.0000
  H   H3921     1.0  0.87930  0.87620  0.28750  1.0000
  H   H3922     1.0  0.87997  0.84976  0.31192  1.0000
  H   H3923     1.0  0.88827  0.85040  0.33880  1.0000
  H   H3924     1.0  0.87631  0.89647  0.34096  1.0000
  H   H3925     1.0  0.89975  0.90116  0.33443  1.0000
  H   H3926     1.0  0.91922  0.88306  0.31222  1.0000
  H   H3927     1.0  0.91684  0.86180  0.32716  1.0000
  H   H3928     1.0  0.90881  0.86771  0.27788  1.0000
  H   H3929     1.0  0.90604  0.84632  0.29347  1.0000
  H   H3930     1.0  0.89047  0.91466  0.30296  1.0000
  H   H3931     1.0  0.90501  0.90016  0.28528  1.0000
  H   H3932     1.0  0.91022  0.87335  0.35959  1.0000
  H   H3933     1.0  0.88615  0.87112  0.36766  1.0000
  H   H3934     1.0  0.85873  0.87158  0.34823  1.0000
  H   H3935     1.0  0.85134  0.86783  0.32105  1.0000
  H   H3936     1.0  0.85341  0.83307  0.32930  1.0000
  H   H3937     1.0  0.85926  0.83785  0.35713  1.0000
  H   H3938     1.0  0.83699  0.84577  0.34665  1.0000
  H   H3939     1.0  0.93968  0.84517  0.30225  1.0000
  H   H3940     1.0  0.93593  0.84600  0.27322  1.0000
  H   H3941     1.0  0.88701  0.92396  0.26400  1.0000
  H   H3942     1.0  0.87969  0.90102  0.25809  1.0000
  H   H3943     1.0  0.86545  0.91593  0.27580  1.0000
  H   H3944     1.0  0.88474  0.90459  0.37922  1.0000
  H   H3945     1.0  0.90121  0.88966  0.39398  1.0000
  H   H3946     1.0  0.90935  0.90554  0.37269  1.0000
  C   C2233     1.0  0.93487  0.99768  0.07688  1.0000
  C   C2234     1.0  0.80186  0.99919  0.28426  1.0000
  H   H3947     1.0  0.55587  0.84245  0.29438  1.0000
  C   C2235     1.0  0.93421  0.85405  0.28843  1.0000
  C   C2236     1.0  0.74883  0.88962  0.41250  1.0000
  H   H3948     1.0  0.52329  0.97701  0.36620  1.0000
  C   C2237     1.0  0.54746  0.98022  0.17829  1.0000
  C   C2238     1.0  0.52778  0.98953  0.17462  1.0000
  H   H3949     1.0  0.77883  0.97362  0.35054  1.0000
  H   H3950     1.0  0.52570  0.82123  0.32821  1.0000
  H   H3951     1.0  0.98595  0.82891  0.18744  1.0000
  C   C2239     1.0  0.52915  0.97159  0.10357  1.0000
  H   H3952     1.0  0.95734  0.80622  0.13959  1.0000
  C   C2240     1.0  0.73328  0.94690  0.29833  1.0000
  C   C2241     1.0  0.76693  0.98410  0.35056  1.0000
  C   C2242     1.0  0.77695  0.89548  0.43286  1.0000
  C   C2243     1.0  0.55436  0.86185  0.38041  1.0000
  C   C2244     1.0  0.50582  0.92424  0.17319  1.0000
  C   C2245     1.0  0.99905  0.81221  0.16157  1.0000
  H   H3953     1.0  0.72602  0.90970  0.30817  1.0000
  N   N122      1.0  0.76945  0.89285  0.41034  1.0000
  C   C2246     1.0  0.99620  0.80887  0.34762  1.0000
  H   H3954     1.0  0.56077  0.87550  0.38185  1.0000
  C   C2247     1.0  0.81542  0.98376  0.24538  1.0000
  H   H3955     1.0  0.74269  0.88939  0.39599  1.0000
  H   H3956     1.0  0.52550  0.98583  0.09683  1.0000
  H   H3957     1.0  0.85761  0.98675  0.17770  1.0000
  C   C2248     1.0  0.74692  0.92951  0.29777  1.0000
  C   C2249     1.0  0.80255  0.90620  0.45681  1.0000
  H   H3958     1.0  0.80529  0.84629  0.39445  1.0000
  C   C2250     1.0  0.74328  0.87149  0.42505  1.0000
  H   H3959     1.0  0.54037  0.86271  0.38863  1.0000
  C   C2251     1.0  0.71151  0.98131  0.31552  1.0000
  C   C2252     1.0  0.55585  0.88455  0.30996  1.0000
  H   H3960     1.0  0.56042  0.83806  0.45645  1.0000
  C   C2253     1.0  0.50935  0.97492  0.35939  1.0000
  H   H3961     1.0  0.59359  0.83359  0.46442  1.0000
  C   C2254     1.0  0.75989  0.92742  0.40153  1.0000
  H   H3962     1.0  0.54265  0.84923  0.31775  1.0000
  C   C2255     1.0  0.51393  0.97978  0.14018  1.0000
  H   H3963     1.0  0.74136  0.90134  0.42105  1.0000
  H   H3964     1.0  0.99062  0.83848  0.37632  1.0000
  C   C2256     1.0  0.56531  0.84045  0.43921  1.0000
  H   H3965     1.0  0.78158  0.94689  0.39307  1.0000
  H   H3966     1.0  0.90993  0.00185  0.49809  1.0000
  C   C2257     1.0  0.53177  0.97194  0.12828  1.0000
  H   H3967     1.0  0.76335  0.95604  0.32263  1.0000
  C   C2258     1.0  0.63009  0.82048  0.45960  1.0000
  H   H3968     1.0  0.76922  0.95852  0.28529  1.0000
  H   H3969     1.0  0.55863  0.89683  0.27684  1.0000
  H   H3970     1.0  0.71846  0.85817  0.43763  1.0000
  C   C2259     1.0  0.58159  0.82684  0.43350  1.0000
  H   H3971     1.0  0.77868  0.95767  0.24569  1.0000
  C   C2260     1.0  0.95282  0.99992  0.04048  1.0000
  H   H3972     1.0  0.78079  0.88166  0.44074  1.0000
  C   C2261     1.0  0.51027  0.94186  0.37563  1.0000
  H   H3973     1.0  0.72447  0.94692  0.28367  1.0000
  H   H3974     1.0  0.96830  0.93170  0.02623  1.0000
  H   H3975     1.0  0.78648  0.91331  0.39348  1.0000
  H   H3976     1.0  0.93693  0.89624  0.50362  1.0000
  S   S510      1.0  0.92895  0.81584  0.20744  1.0000
  H   H3977     1.0  0.78947  0.92299  0.43155  1.0000
  C   C2262     1.0  0.97361  0.80654  0.30984  1.0000
  H   H3978     1.0  0.71991  0.97942  0.28170  1.0000
  H   H3979     1.0  0.57682  0.81240  0.43541  1.0000
  H   H3980     1.0  0.64176  0.80981  0.45875  1.0000
  H   H3981     1.0  0.69148  0.99787  0.29591  1.0000
  H   H3982     1.0  0.53570  0.95752  0.13398  1.0000
  H   H3983     1.0  0.80762  0.87698  0.41015  1.0000
  H   H3984     1.0  0.75019  0.86995  0.44105  1.0000
  H   H3985     1.0  0.54342  0.98112  0.13087  1.0000
  C   C2263     1.0  0.77873  0.87592  0.39987  1.0000
  N   N123      1.0  0.51336  0.97783  0.16484  1.0000
  H   H3986     1.0  0.99096  0.86765  0.09074  1.0000
  C   C2264     1.0  0.95208  0.81237  0.12454  1.0000
  H   H3987     1.0  0.57759  0.80375  0.47136  1.0000
  S   S511      1.0  0.91693  0.81199  0.14481  1.0000
  H   H3988     1.0  0.55356  0.83839  0.42831  1.0000
  H   H3989     1.0  0.82066  0.97766  0.23033  1.0000
  H   H3990     1.0  0.71479  0.87292  0.41353  1.0000
  C   C2265     1.0  0.64547  0.83233  0.49282  1.0000
  C   C2266     1.0  0.92943  0.93613  0.00875  1.0000
  H   H3991     1.0  0.79979  0.85703  0.36807  1.0000
  H   H3992     1.0  0.80833  0.89175  0.45987  1.0000
  C   C2267     1.0  0.95352  0.99351  0.06500  1.0000
  H   H3993     1.0  0.70324  0.96867  0.31523  1.0000
  H   H3994     1.0  0.76010  0.92962  0.41939  1.0000
  C   C2268     1.0  0.79989  0.87646  0.39479  1.0000
  H   H3995     1.0  0.95668  0.97826  0.06678  1.0000
  H   H3996     1.0  0.57895  0.84266  0.35318  1.0000
  H   H3997     1.0  0.56305  0.85082  0.38894  1.0000
  C   C2269     1.0  0.98547  0.82781  0.16938  1.0000
  H   H3998     1.0  0.54230  0.96642  0.09534  1.0000
  N   N124      1.0  0.74206  0.96545  0.30002  1.0000
  H   H3999     1.0  0.58027  0.86697  0.34876  1.0000
  H   H4000     1.0  0.83296  0.99200  0.15006  1.0000
  C   C2270     1.0  0.75095  0.96592  0.25846  1.0000
  C   C2271     1.0  0.89114  0.96633  0.17186  1.0000
  H   H4001     1.0  0.98819  0.82154  0.34178  1.0000
  H   H4002     1.0  0.79207  0.90985  0.46989  1.0000
  H   H4003     1.0  0.64961  0.84482  0.48296  1.0000
  H   H4004     1.0  0.56957  0.85509  0.43694  1.0000
  H   H4005     1.0  0.97923  0.85279  0.11042  1.0000
  N   N125      1.0  0.57240  0.85237  0.32017  1.0000
  H   H4006     1.0  0.80324  0.88851  0.38381  1.0000
  C   C2272     1.0  0.77171  0.90964  0.39514  1.0000
  C   C2273     1.0  0.72220  0.87150  0.42925  1.0000
  C   C2274     1.0  0.63964  0.88188  0.49503  1.0000
  C   C2275     1.0  0.72711  0.98076  0.29738  1.0000
  H   H4007     1.0  0.62273  0.82328  0.41614  1.0000
  H   H4008     1.0  0.89830  0.99444  0.16391  1.0000
  H   H4009     1.0  0.99256  0.97666  0.01995  1.0000
  C   C2276     1.0  0.96750  0.96201  0.02510  1.0000
  H   H4010     1.0  0.52524  0.94288  0.37922  1.0000
  H   H4011     1.0  0.77711  0.86327  0.41062  1.0000
  H   H4012     1.0  0.94159  0.99240  0.03292  1.0000
  H   H4013     1.0  0.54500  0.84424  0.35602  1.0000
  H   H4014     1.0  0.86525  0.98603  0.14991  1.0000
  H   H4015     1.0  0.90515  0.96245  0.17822  1.0000
  H   H4016     1.0  0.77181  0.87320  0.38426  1.0000
  H   H4017     1.0  0.65705  0.82154  0.49224  1.0000
  H   H4018     1.0  0.72357  0.94443  0.31256  1.0000
  H   H4019     1.0  0.74716  0.85911  0.41520  1.0000
  H   H4020     1.0  0.72935  0.91256  0.27877  1.0000
  N   N126      1.0  0.61322  0.81401  0.44845  1.0000
  H   H4021     1.0  0.51254  0.99471  0.13482  1.0000
  H   H4022     1.0  0.52295  0.99412  0.19113  1.0000
  H   H4023     1.0  0.95404  0.96264  0.03438  1.0000
  N   N127      1.0  0.97090  0.99767  0.02734  1.0000
  H   H4024     1.0  0.55475  0.89004  0.32671  1.0000
  H   H4025     1.0  0.75445  0.92773  0.31335  1.0000
  H   H4026     1.0  0.75728  0.93057  0.28404  1.0000
  C   C2277     1.0  0.73647  0.91180  0.29466  1.0000
  H   H4027     1.0  0.88066  0.95859  0.18179  1.0000
  H   H4028     1.0  0.71741  0.88317  0.43984  1.0000
  H   H4029     1.0  0.53219  0.81508  0.30038  1.0000
  H   H4030     1.0  0.58541  0.82933  0.41591  1.0000
  H   H4031     1.0  0.92357  0.99055  0.06905  1.0000
  H   H4032     1.0  0.99067  0.94143  0.02116  1.0000
  H   H4033     1.0  0.54673  0.96940  0.19171  1.0000
  H   H4034     1.0  0.52014  0.91877  0.16894  1.0000
  S   S512      1.0  0.94383  0.93599  0.49999  1.0000
  H   H4035     1.0  0.89084  0.96212  0.15455  1.0000
  C   C2278     1.0  0.75099  0.96599  0.32202  1.0000
  C   C2279     1.0  0.55759  0.90134  0.29405  1.0000
  C   C2280     1.0  0.97978  0.97833  0.03057  1.0000
  N   N128      1.0  0.92818  0.88453  0.11028  1.0000
  C   C2281     1.0  0.93078  0.90495  0.10512  1.0000
  C   C2282     1.0  0.91987  0.87623  0.09068  1.0000
  C   C2283     1.0  0.91555  0.88281  0.13036  1.0000
  C   C2284     1.0  0.94647  0.87417  0.11488  1.0000
  C   C2285     1.0  0.96189  0.87585  0.09671  1.0000
  C   C2286     1.0  0.94213  0.91536  0.12161  1.0000
  C   C2287     1.0  0.90969  0.86278  0.13685  1.0000
  C   C2288     1.0  0.89982  0.88342  0.08516  1.0000
  C   C2289     1.0  0.98055  0.86748  0.10456  1.0000
  C   C2290     1.0  0.94388  0.93579  0.11422  1.0000
  C   C2291     1.0  0.89637  0.86285  0.15683  1.0000
  H   H4036     1.0  0.91704  0.91267  0.10398  1.0000
  H   H4037     1.0  0.93749  0.90694  0.08864  1.0000
  H   H4038     1.0  0.92872  0.87882  0.07572  1.0000
  H   H4039     1.0  0.91984  0.86085  0.09267  1.0000
  H   H4040     1.0  0.90271  0.89195  0.12853  1.0000
  H   H4041     1.0  0.92243  0.88795  0.14487  1.0000
  H   H4042     1.0  0.95200  0.87841  0.13067  1.0000
  H   H4043     1.0  0.94445  0.85895  0.11714  1.0000
  H   H4044     1.0  0.96407  0.89050  0.09141  1.0000
  H   H4045     1.0  0.95809  0.86813  0.08221  1.0000
  H   H4046     1.0  0.93526  0.91509  0.13811  1.0000
  H   H4047     1.0  0.95645  0.90905  0.12295  1.0000
  H   H4048     1.0  0.92201  0.85368  0.14124  1.0000
  H   H4049     1.0  0.90255  0.85634  0.12340  1.0000
  H   H4050     1.0  0.88984  0.88029  0.09883  1.0000
  H   H4051     1.0  0.89920  0.89869  0.08161  1.0000
  H   H4052     1.0  0.87857  0.87896  0.06168  1.0000
  C   C2292     1.0  0.59864  0.82985  0.44774  1.0000
  H   H4053     1.0  0.93561  0.99262  0.09422  1.0000
  C   C2293     1.0  0.61910  0.81008  0.42504  1.0000
  H   H4054     1.0  0.92991  0.94302  0.11319  1.0000
  H   H4055     1.0  0.95211  0.94300  0.12615  1.0000
  H   H4056     1.0  0.95111  0.93675  0.09789  1.0000
  H   H4057     1.0  0.89262  0.84831  0.16115  1.0000
  H   H4058     1.0  0.90307  0.86851  0.17115  1.0000
  H   H4059     1.0  0.88339  0.87126  0.15324  1.0000
  H   H4060     1.0  0.97728  0.82115  0.30632  1.0000
  C   C2294     1.0  0.80717  0.85877  0.38351  1.0000
  H   H4061     1.0  0.59056  0.82742  0.32332  1.0000
  H   H4062     1.0  0.96473  0.80613  0.32505  1.0000
  H   H4063     1.0  0.96459  0.96237  0.00736  1.0000
  C   C2295     1.0  0.75692  0.96817  0.28237  1.0000
  C   C2296     1.0  0.75779  0.98528  0.32830  1.0000
  H   H4064     1.0  0.97991  0.94165  0.04840  1.0000
  H   H4065     1.0  0.65128  0.81166  0.39786  1.0000
  H   H4066     1.0  0.97230  0.97617  0.50120  1.0000
  H   H4067     1.0  0.56564  0.81271  0.31056  1.0000
  H   H4068     1.0  0.55927  0.81942  0.33791  1.0000
  H   H4069     1.0  0.88859  0.99087  0.19082  1.0000
  H   H4070     1.0  0.74649  0.89952  0.29469  1.0000
  H   H4071     1.0  0.53001  0.95182  0.16893  1.0000
  C   C2297     1.0  0.76678  0.94485  0.38947  1.0000
  H   H4072     1.0  0.97099  0.82521  0.16498  1.0000
  H   H4073     1.0  0.55334  0.97340  0.16352  1.0000
  C   C2298     1.0  0.88723  0.98737  0.17341  1.0000
  C   C2299     1.0  0.79389  0.90809  0.43427  1.0000
  H   H4074     1.0  0.77236  0.99786  0.35415  1.0000
  H   H4075     1.0  0.94899  0.80990  0.29003  1.0000
  H   H4076     1.0  0.54281  0.87792  0.30622  1.0000
  H   H4077     1.0  0.82227  0.85982  0.37956  1.0000
  H   H4078     1.0  0.60494  0.84273  0.44091  1.0000
  C   C2300     1.0  0.55254  0.85733  0.35635  1.0000
  H   H4079     1.0  0.97920  0.81429  0.10853  1.0000
  H   H4080     1.0  0.54371  0.86855  0.34858  1.0000
  H   H4081     1.0  0.77299  0.98250  0.24368  1.0000
  H   H4082     1.0  0.74517  0.92603  0.39707  1.0000
  H   H4083     1.0  0.65855  0.81309  0.42569  1.0000
  H   H4084     1.0  0.76595  0.90174  0.44395  1.0000
  H   H4085     1.0  0.94245  0.86672  0.28636  1.0000
  H   H4086     1.0  0.75662  0.98034  0.36365  1.0000
  H   H4087     1.0  0.76534  0.94369  0.37153  1.0000
  H   H4088     1.0  0.57005  0.90917  0.29761  1.0000
  C   C2301     1.0  0.57197  0.85489  0.34468  1.0000
  H   H4089     1.0  0.60720  0.80507  0.41602  1.0000
  H   H4090     1.0  0.51434  0.95680  0.19099  1.0000
  C   C2302     1.0  0.56121  0.99438  0.18506  1.0000
  C   C2303     1.0  0.53629  0.81369  0.31777  1.0000
  H   H4091     1.0  0.98936  0.84134  0.16161  1.0000
  H   H4092     1.0  0.50440  0.94311  0.14531  1.0000
  H   H4093     1.0  0.63522  0.83323  0.45083  1.0000
  C   C2304     1.0  0.86740  0.99321  0.16545  1.0000
  C   C2305     1.0  0.97727  0.94311  0.03060  1.0000
  H   H4094     1.0  0.59483  0.80914  0.49013  1.0000
  H   H4095     1.0  0.98467  0.97613  0.04762  1.0000
  H   H4096     1.0  0.53651  0.98901  0.33481  1.0000
  C   C2306     1.0  0.62768  0.82478  0.48418  1.0000
  S   S513      1.0  0.88785  0.80829  0.25335  1.0000
  H   H4097     1.0  0.51223  0.96764  0.34372  1.0000
  H   H4098     1.0  0.96422  0.00080  0.07362  1.0000
  H   H4099     1.0  0.71721  0.98212  0.33208  1.0000
  H   H4100     1.0  0.50911  0.93567  0.35934  1.0000
  C   C2307     1.0  0.91663  0.96818  0.00943  1.0000
  H   H4101     1.0  0.52046  0.99765  0.31457  1.0000
  H   H4102     1.0  0.74612  0.99590  0.32937  1.0000
  C   C2308     1.0  0.50237  0.94391  0.16333  1.0000
  C   C2309     1.0  0.76740  0.96843  0.24236  1.0000
  H   H4103     1.0  0.50387  0.92424  0.19131  1.0000
  C   C2310     1.0  0.65339  0.80362  0.41352  1.0000
  H   H4104     1.0  0.99937  0.81278  0.14338  1.0000
  H   H4105     1.0  0.73994  0.97658  0.25393  1.0000
  H   H4106     1.0  0.76284  0.96697  0.22534  1.0000
  H   H4107     1.0  0.76239  0.98237  0.28296  1.0000
  C   C2311     1.0  0.69810  0.99826  0.31207  1.0000
  H   H4108     1.0  0.76819  0.99046  0.31612  1.0000
  H   H4109     1.0  0.55686  0.00015  0.20116  1.0000
  S   S514      1.0  0.97725  0.80523  0.22834  1.0000
  C   C2312     1.0  0.95865  0.91572  0.50274  1.0000
  C   C2313     1.0  0.97798  0.91766  0.50298  1.0000
  H   H4110     1.0  0.50393  0.93241  0.38823  1.0000
  H   H4111     1.0  0.73337  0.99467  0.29596  1.0000
  C   C2314     1.0  0.52765  0.00131  0.32946  1.0000
  C   C2315     1.0  0.95171  0.89788  0.50477  1.0000
  H   H4112     1.0  0.50168  0.97332  0.13335  1.0000
  H   H4113     1.0  0.80648  0.00308  0.17420  1.0000
  H   H4114     1.0  0.52939  0.00272  0.16471  1.0000
  H   H4115     1.0  0.79995  0.00267  0.14597  1.0000
  C   C2316     1.0  0.58232  0.98219  0.76043  1.0000
  S   S515      1.0  0.93022  0.84795  0.96526  1.0000
  S   S516      1.0  0.95430  0.88820  0.99172  1.0000
  H   H4116     1.0  0.97689  0.85068  0.73306  1.0000
  C   C2317     1.0  0.78963  0.89100  0.62332  1.0000
  H   H4117     1.0  0.64305  0.83646  0.51008  1.0000
  S   S517      1.0  0.89382  0.83123  0.80680  1.0000
  H   H4118     1.0  0.72351  0.80339  0.68990  1.0000
  Fe  Fe258     1.0  0.82253  0.88566  0.72172  1.0000
  S   S518      1.0  0.83763  0.91228  0.72082  1.0000
  S   S519      1.0  0.83761  0.85733  0.73046  1.0000
  Fe  Fe259     1.0  0.78638  0.90528  0.70364  1.0000
  S   S520      1.0  0.79964  0.93325  0.70271  1.0000
  S   S521      1.0  0.75656  0.90838  0.68980  1.0000
  Fe  Fe260     1.0  0.82499  0.91845  0.68804  1.0000
  S   S522      1.0  0.83967  0.93562  0.66117  1.0000
  Fe  Fe261     1.0  0.81129  0.92554  0.73547  1.0000
  S   S523      1.0  0.81637  0.94496  0.76362  1.0000
  S   S524      1.0  0.81158  0.89091  0.68735  1.0000
  S   S525      1.0  0.79641  0.89839  0.73809  1.0000
  H   H4119     1.0  0.95028  0.80588  0.75084  1.0000
  S   S526      1.0  0.90446  0.94833  0.54181  1.0000
  H   H4120     1.0  0.56278  0.95823  0.80426  1.0000
  H   H4121     1.0  0.80705  0.86389  0.65046  1.0000
  C   C2318     1.0  0.81282  0.92729  0.56979  1.0000
  Fe  Fe262     1.0  0.87948  0.93111  0.53912  1.0000
  S   S527      1.0  0.86936  0.91108  0.56642  1.0000
  H   H4122     1.0  0.71896  0.00184  0.77410  1.0000
  Fe  Fe263     1.0  0.62144  0.84910  0.63836  1.0000
  S   S528      1.0  0.60702  0.87274  0.61873  1.0000
  S   S529      1.0  0.60746  0.82073  0.64085  1.0000
  Fe  Fe264     1.0  0.65686  0.87135  0.64342  1.0000
  S   S530      1.0  0.64461  0.89599  0.62397  1.0000
  S   S531      1.0  0.68668  0.86502  0.65615  1.0000
  Fe  Fe265     1.0  0.61775  0.89173  0.64387  1.0000
  S   S532      1.0  0.60212  0.91881  0.65609  1.0000
  Fe  Fe266     1.0  0.63439  0.87554  0.60002  1.0000
  S   S533      1.0  0.64080  0.88012  0.56253  1.0000
  S   S534      1.0  0.63062  0.86794  0.66451  1.0000
  S   S535      1.0  0.64820  0.85117  0.61845  1.0000
  Fe  Fe267     1.0  0.52278  0.97420  0.74201  1.0000
  S   S536      1.0  0.53720  0.94917  0.72376  1.0000
  S   S537      1.0  0.52656  0.97434  0.77866  1.0000
  C   C2319     1.0  0.58412  0.92678  0.67530  1.0000
  C   C2320     1.0  0.58101  0.94613  0.67822  1.0000
  C   C2321     1.0  0.56681  0.95322  0.69273  1.0000
  C   C2322     1.0  0.55533  0.94110  0.70474  1.0000
  C   C2323     1.0  0.55843  0.92176  0.70180  1.0000
  C   C2324     1.0  0.57269  0.91465  0.68736  1.0000
  H   H4123     1.0  0.58962  0.95577  0.66910  1.0000
  H   H4124     1.0  0.56458  0.96811  0.69429  1.0000
  H   H4125     1.0  0.54965  0.91212  0.71072  1.0000
  H   H4126     1.0  0.57468  0.89976  0.68538  1.0000
  C   C2325     1.0  0.63301  0.87821  0.53488  1.0000
  H   H4127     1.0  0.97516  0.80803  0.92285  1.0000
  N   N129      1.0  0.00146  0.86018  0.92471  1.0000
  C   C2326     1.0  0.61515  0.87279  0.53009  1.0000
  H   H4128     1.0  0.65899  0.88692  0.52035  1.0000
  H   H4129     1.0  0.60553  0.86928  0.54337  1.0000
  C   C2327     1.0  0.81043  0.96897  0.76807  1.0000
  C   C2328     1.0  0.81950  0.97811  0.78444  1.0000
  H   H4130     1.0  0.91306  0.84088  0.92481  1.0000
  C   C2329     1.0  0.79678  0.97901  0.75614  1.0000
  H   H4131     1.0  0.82997  0.97044  0.79392  1.0000
  H   H4132     1.0  0.78885  0.88219  0.60877  1.0000
  H   H4133     1.0  0.78938  0.97203  0.74393  1.0000
  C   C2330     1.0  0.73733  0.89592  0.68057  1.0000
  C   C2331     1.0  0.73774  0.87643  0.67954  1.0000
  C   C2332     1.0  0.72217  0.86736  0.67207  1.0000
  C   C2333     1.0  0.70588  0.87750  0.66547  1.0000
  C   C2334     1.0  0.70553  0.89700  0.66630  1.0000
  C   C2335     1.0  0.72112  0.90607  0.67373  1.0000
  H   H4134     1.0  0.75001  0.86833  0.68466  1.0000
  H   H4135     1.0  0.72273  0.85233  0.67152  1.0000
  H   H4136     1.0  0.69323  0.90510  0.66130  1.0000
  H   H4137     1.0  0.72054  0.92113  0.67436  1.0000
  C   C2336     1.0  0.84763  0.92835  0.63490  1.0000
  C   C2337     1.0  0.85453  0.94174  0.61981  1.0000
  C   C2338     1.0  0.86114  0.93669  0.59879  1.0000
  C   C2339     1.0  0.86105  0.91811  0.59267  1.0000
  C   C2340     1.0  0.85419  0.90468  0.60777  1.0000
  C   C2341     1.0  0.84742  0.90977  0.62877  1.0000
  H   H4138     1.0  0.85477  0.95613  0.62437  1.0000
  H   H4139     1.0  0.86635  0.94717  0.58732  1.0000
  H   H4140     1.0  0.85409  0.89027  0.60318  1.0000
  H   H4141     1.0  0.84223  0.89931  0.64025  1.0000
  C   C2342     1.0  0.87853  0.83818  0.78511  1.0000
  C   C2343     1.0  0.87498  0.82653  0.76798  1.0000
  C   C2344     1.0  0.86251  0.83262  0.75146  1.0000
  C   C2345     1.0  0.85347  0.85052  0.75165  1.0000
  C   C2346     1.0  0.85711  0.86219  0.76874  1.0000
  C   C2347     1.0  0.86945  0.85602  0.78535  1.0000
  C   C2348     1.0  0.98576  0.83652  0.78445  1.0000
  H   H4142     1.0  0.85980  0.82341  0.73841  1.0000
  H   H4143     1.0  0.85028  0.87594  0.76928  1.0000
  H   H4144     1.0  0.87198  0.86520  0.79850  1.0000
  C   C2349     1.0  0.93819  0.83467  0.94249  1.0000
  C   C2350     1.0  0.95563  0.82516  0.94190  1.0000
  C   C2351     1.0  0.96162  0.81525  0.92319  1.0000
  C   C2352     1.0  0.95016  0.81452  0.90500  1.0000
  C   C2353     1.0  0.93256  0.82369  0.90580  1.0000
  C   C2354     1.0  0.92664  0.83370  0.92444  1.0000
  H   H4145     1.0  0.96442  0.82541  0.95590  1.0000
  H   H4146     1.0  0.86947  0.93684  0.71130  1.0000
  C   C2355     1.0  0.98115  0.86501  0.92050  1.0000
  H   H4147     1.0  0.95846  0.82515  0.72205  1.0000
  C   C2356     1.0  0.90416  0.96368  0.92970  1.0000
  H   H4148     1.0  0.58026  0.92822  0.78909  1.0000
  H   H4149     1.0  0.94572  0.83946  0.78385  1.0000
  Fe  Fe268     1.0  0.94745  0.85794  0.99300  1.0000
  H   H4150     1.0  0.99549  0.98911  0.52543  1.0000
  H   H4151     1.0  0.97643  0.84419  0.69329  1.0000
  H   H4152     1.0  0.90481  0.86836  0.51444  1.0000
  H   H4153     1.0  0.57346  0.89892  0.55906  1.0000
  H   H4154     1.0  0.95728  0.86135  0.69010  1.0000
  S   S538      1.0  0.86195  0.95475  0.52448  1.0000
  H   H4155     1.0  0.66051  0.92420  0.52249  1.0000
  H   H4156     1.0  0.95359  0.98622  0.51817  1.0000
  C   C2357     1.0  0.75099  0.89705  0.60421  1.0000
  H   H4157     1.0  0.78621  0.85429  0.66230  1.0000
  H   H4158     1.0  0.90524  0.89243  0.75022  1.0000
  H   H4159     1.0  0.84093  0.95448  0.72650  1.0000
  H   H4160     1.0  0.94324  0.87350  0.92406  1.0000
  H   H4161     1.0  0.54833  0.92369  0.77601  1.0000
  H   H4162     1.0  0.86262  0.97995  0.65956  1.0000
  H   H4163     1.0  0.78461  0.97069  0.64734  1.0000
  C   C2358     1.0  0.56004  0.80738  0.69280  1.0000
  H   H4164     1.0  0.98449  0.85458  0.56506  1.0000
  H   H4165     1.0  0.64514  0.95128  0.74649  1.0000
  H   H4166     1.0  0.75494  0.90697  0.63714  1.0000
  H   H4167     1.0  0.93403  0.87354  0.75878  1.0000
  H   H4168     1.0  0.56616  0.97858  0.73132  1.0000
  H   H4169     1.0  0.88325  0.98759  0.96551  1.0000
  H   H4170     1.0  0.94696  0.94320  0.54984  1.0000
  C   C2359     1.0  0.99025  0.90198  0.50593  1.0000
  C   C2360     1.0  0.73044  0.89478  0.61033  1.0000
  H   H4171     1.0  0.66556  0.93902  0.54459  1.0000
  C   C2361     1.0  0.98328  0.88417  0.50856  1.0000
  C   C2362     1.0  0.57784  0.92903  0.77127  1.0000
  H   H4172     1.0  0.65420  0.80543  0.70097  1.0000
  C   C2363     1.0  0.57601  0.89645  0.57679  1.0000
  H   H4173     1.0  0.80630  0.94158  0.56803  1.0000
  H   H4174     1.0  0.91636  0.84317  0.76813  1.0000
  C   C2364     1.0  0.96395  0.85407  0.72403  1.0000
  H   H4175     1.0  0.80241  0.92102  0.63878  1.0000
  C   C2365     1.0  0.84811  0.84465  0.83780  1.0000
  Fe  Fe269     1.0  0.91269  0.93896  0.50801  1.0000
  H   H4176     1.0  0.70619  0.81620  0.64613  1.0000
  H   H4177     1.0  0.95416  0.89487  0.91540  1.0000
  H   H4178     1.0  0.58987  0.92228  0.76233  1.0000
  H   H4179     1.0  0.99043  0.84959  0.77624  1.0000
  H   H4180     1.0  0.93936  0.84024  0.71461  1.0000
  H   H4181     1.0  0.56859  0.98622  0.76811  1.0000
  H   H4182     1.0  0.62759  0.95263  0.78243  1.0000
  C   C2366     1.0  0.82265  0.98094  0.70055  1.0000
  H   H4183     1.0  0.75182  0.90296  0.58719  1.0000
  H   H4184     1.0  0.84176  0.97998  0.96604  1.0000
  H   H4185     1.0  0.93171  0.95328  0.93973  1.0000
  H   H4186     1.0  0.89521  0.96222  0.91544  1.0000
  H   H4187     1.0  0.78289  0.90707  0.58380  1.0000
  H   H4188     1.0  0.80203  0.95326  0.65572  1.0000
  C   C2367     1.0  0.63800  0.93898  0.75355  1.0000
  H   H4189     1.0  0.79170  0.94945  0.61750  1.0000
  H   H4190     1.0  0.81425  0.92772  0.60472  1.0000
  H   H4191     1.0  0.75372  0.92435  0.61621  1.0000
  H   H4192     1.0  0.92981  0.95553  0.98110  1.0000
  N   N130      1.0  0.61280  0.93437  0.57704  1.0000
  C   C2368     1.0  0.60516  0.91525  0.57569  1.0000
  C   C2369     1.0  0.63302  0.93332  0.56950  1.0000
  C   C2370     1.0  0.61211  0.93933  0.60093  1.0000
  C   C2371     1.0  0.60179  0.94921  0.56407  1.0000
  C   C2372     1.0  0.59264  0.94306  0.54290  1.0000
  C   C2373     1.0  0.58535  0.91305  0.58600  1.0000
  C   C2374     1.0  0.62097  0.95788  0.60638  1.0000
  C   C2375     1.0  0.63709  0.92968  0.54496  1.0000
  H   H4193     1.0  0.58301  0.95313  0.83645  1.0000
  H   H4194     1.0  0.94400  0.89233  0.94262  1.0000
  C   C2376     1.0  0.61551  0.96384  0.62955  1.0000
  H   H4195     1.0  0.61444  0.90469  0.58426  1.0000
  H   H4196     1.0  0.60530  0.91064  0.55855  1.0000
  H   H4197     1.0  0.63969  0.94663  0.57221  1.0000
  H   H4198     1.0  0.64086  0.92238  0.57941  1.0000
  H   H4199     1.0  0.61907  0.92799  0.61108  1.0000
  H   H4200     1.0  0.59745  0.94035  0.60732  1.0000
  H   H4201     1.0  0.59019  0.95544  0.57437  1.0000
  H   H4202     1.0  0.61076  0.96104  0.55952  1.0000
  H   H4203     1.0  0.58073  0.93422  0.54707  1.0000
  H   H4204     1.0  0.60239  0.93488  0.53222  1.0000
  H   H4205     1.0  0.58632  0.91065  0.60403  1.0000
  H   H4206     1.0  0.57620  0.92574  0.58323  1.0000
  H   H4207     1.0  0.61658  0.96940  0.59484  1.0000
  H   H4208     1.0  0.63640  0.95613  0.60561  1.0000
  H   H4209     1.0  0.63027  0.91721  0.53963  1.0000
  H   H4210     1.0  0.63226  0.94197  0.53478  1.0000
  H   H4211     1.0  0.99409  0.83900  0.94901  1.0000
  H   H4212     1.0  0.95854  0.86838  0.50945  1.0000
  N   N131      1.0  0.84161  0.98905  0.70129  1.0000
  C   C2377     1.0  0.84908  0.98811  0.65957  1.0000
  C   C2378     1.0  0.95817  0.93497  0.55844  1.0000
  C   C2379     1.0  0.57939  0.98482  0.73544  1.0000
  H   H4213     1.0  0.92581  0.81198  0.71988  1.0000
  H   H4214     1.0  0.62052  0.95309  0.64179  1.0000
  H   H4215     1.0  0.62196  0.97715  0.63289  1.0000
  H   H4216     1.0  0.89460  0.99607  0.89759  1.0000
  H   H4217     1.0  0.83883  0.99382  0.73614  1.0000
  H   H4218     1.0  0.92359  0.82326  0.89197  1.0000
  H   H4219     1.0  0.78646  0.97215  0.69514  1.0000
  H   H4220     1.0  0.91936  0.93734  0.92405  1.0000
  H   H4221     1.0  0.84584  0.80996  0.85724  1.0000
  H   H4222     1.0  0.61952  0.81147  0.68590  1.0000
  C   C2380     1.0  0.72418  0.80698  0.67207  1.0000
  N   N132      1.0  0.92950  0.89235  0.57886  1.0000
  C   C2381     1.0  0.93640  0.90829  0.56456  1.0000
  C   C2382     1.0  0.91529  0.88177  0.56704  1.0000
  C   C2383     1.0  0.91981  0.90076  0.59879  1.0000
  C   C2384     1.0  0.94530  0.87934  0.58648  1.0000
  C   C2385     1.0  0.95882  0.87148  0.56843  1.0000
  C   C2386     1.0  0.94997  0.92121  0.57527  1.0000
  C   C2387     1.0  0.90932  0.88707  0.61447  1.0000
  C   C2388     1.0  0.91746  0.88081  0.54180  1.0000
  C   C2389     1.0  0.90312  0.86842  0.53257  1.0000
  C   C2390     1.0  0.97520  0.86019  0.57842  1.0000
  H   H4223     1.0  0.82803  0.82557  0.82884  1.0000
  C   C2391     1.0  0.90025  0.89735  0.63386  1.0000
  H   H4224     1.0  0.92432  0.91723  0.55896  1.0000
  H   H4225     1.0  0.94331  0.90327  0.54927  1.0000
  H   H4226     1.0  0.91451  0.86727  0.57398  1.0000
  H   H4227     1.0  0.90111  0.88830  0.56970  1.0000
  H   H4228     1.0  0.90945  0.91203  0.59355  1.0000
  H   H4229     1.0  0.92993  0.90751  0.60899  1.0000
  H   H4230     1.0  0.95369  0.88622  0.59858  1.0000
  H   H4231     1.0  0.93977  0.86701  0.59556  1.0000
  H   H4232     1.0  0.96485  0.88268  0.55793  1.0000
  H   H4233     1.0  0.95157  0.86190  0.55813  1.0000
  H   H4234     1.0  0.94253  0.92959  0.58803  1.0000
  H   H4235     1.0  0.96176  0.91308  0.58276  1.0000
  H   H4236     1.0  0.91897  0.87594  0.62114  1.0000
  H   H4237     1.0  0.89805  0.88043  0.60601  1.0000
  H   H4238     1.0  0.91508  0.89495  0.53417  1.0000
  H   H4239     1.0  0.93143  0.87531  0.53663  1.0000
  H   H4240     1.0  0.93640  0.92493  0.99987  1.0000
  H   H4241     1.0  0.77749  0.99423  0.68400  1.0000
  H   H4242     1.0  0.58489  0.88347  0.57896  1.0000
  C   C2392     1.0  0.84887  0.00055  0.63876  1.0000
  H   H4243     1.0  0.98347  0.86917  0.58848  1.0000
  C   C2393     1.0  0.95029  0.83799  0.72707  1.0000
  H   H4244     1.0  0.88172  0.81278  0.76754  1.0000
  C   C2394     1.0  0.87671  0.99034  0.94934  1.0000
  C   C2395     1.0  0.78718  0.92306  0.63609  1.0000
  H   H4245     1.0  0.85114  0.99179  0.62418  1.0000
  H   H4246     1.0  0.89054  0.90885  0.62804  1.0000
  H   H4247     1.0  0.67948  0.81404  0.62909  1.0000
  S   S539      1.0  0.99829  0.86425  0.51313  1.0000
  C   C2396     1.0  0.84267  0.00148  0.72065  1.0000
  C   C2397     1.0  0.93723  0.81468  0.75284  1.0000
  H   H4248     1.0  0.97969  0.87281  0.90454  1.0000
  N   N133      1.0  0.58902  0.96291  0.76830  1.0000
  H   H4249     1.0  0.91298  0.84190  0.73957  1.0000
  H   H4250     1.0  0.55264  0.81722  0.68123  1.0000
  H   H4251     1.0  0.87347  0.98749  0.90817  1.0000
  H   H4252     1.0  0.82812  0.92827  0.56743  1.0000
  H   H4253     1.0  0.66374  0.81664  0.59361  1.0000
  C   C2398     1.0  0.95184  0.88488  0.92937  1.0000
  S   S540      1.0  0.94360  0.80940  0.81949  1.0000
  H   H4254     1.0  0.83789  0.97811  0.65866  1.0000
  C   C2399     1.0  0.62175  0.94512  0.76879  1.0000
  C   C2400     1.0  0.92365  0.86759  0.74835  1.0000
  H   H4255     1.0  0.85614  0.96915  0.74035  1.0000
  C   C2401     1.0  0.96681  0.00080  0.00339  1.0000
  H   H4256     1.0  0.96723  0.86786  0.95258  1.0000
  H   H4257     1.0  0.63933  0.83688  0.69581  1.0000
  C   C2402     1.0  0.57367  0.96828  0.80687  1.0000
  H   H4258     1.0  0.87041  0.97888  0.70331  1.0000
  H   H4259     1.0  0.56490  0.97094  0.84095  1.0000
  H   H4260     1.0  0.56791  0.98259  0.80313  1.0000
  H   H4261     1.0  0.95790  0.86745  0.73008  1.0000
  H   H4262     1.0  0.55825  0.91729  0.74964  1.0000
  C   C2403     1.0  0.97042  0.87685  0.93792  1.0000
  C   C2404     1.0  0.79245  0.99798  0.76037  1.0000
  H   H4263     1.0  0.76665  0.87672  0.64072  1.0000
  C   C2405     1.0  0.78129  0.88004  0.64334  1.0000
  C   C2406     1.0  0.79219  0.86153  0.64753  1.0000
  H   H4264     1.0  0.89216  0.88753  0.64437  1.0000
  H   H4265     1.0  0.61545  0.93240  0.77577  1.0000
  H   H4266     1.0  0.97832  0.82390  0.75462  1.0000
  H   H4267     1.0  0.61497  0.97111  0.75229  1.0000
  H   H4268     1.0  0.56245  0.89447  0.58554  1.0000
  C   C2407     1.0  0.90779  0.98448  0.93332  1.0000
  C   C2408     1.0  0.85619  0.97331  0.70417  1.0000
  H   H4269     1.0  0.59665  0.96887  0.52381  1.0000
  C   C2409     1.0  0.78724  0.95560  0.65128  1.0000
  C   C2410     1.0  0.85458  0.96104  0.72547  1.0000
  H   H4270     1.0  0.79132  0.85238  0.63334  1.0000
  C   C2411     1.0  0.65799  0.92662  0.54022  1.0000
  Fe  Fe270     1.0  0.88779  0.97129  0.52470  1.0000
  H   H4271     1.0  0.84812  0.82679  0.81048  1.0000
  C   C2412     1.0  0.59151  0.96366  0.79272  1.0000
  C   C2413     1.0  0.86997  0.94558  0.72592  1.0000
  H   H4272     1.0  0.92694  0.87113  0.73087  1.0000
  H   H4273     1.0  0.97970  0.86839  0.69825  1.0000
  H   H4274     1.0  0.57827  0.95512  0.51470  1.0000
  H   H4275     1.0  0.88877  0.87388  0.53676  1.0000
  C   C2414     1.0  0.58512  0.95994  0.52940  1.0000
  H   H4276     1.0  0.90140  0.87521  0.77178  1.0000
  H   H4277     1.0  0.63299  0.93074  0.74002  1.0000
  H   H4278     1.0  0.65443  0.83575  0.71879  1.0000
  H   H4279     1.0  0.84150  0.85650  0.82823  1.0000
  C   C2415     1.0  0.98120  0.99561  0.52522  1.0000
  C   C2416     1.0  0.80742  0.99272  0.68798  1.0000
  H   H4280     1.0  0.81733  0.97778  0.71749  1.0000
  C   C2417     1.0  0.90479  0.87722  0.75402  1.0000
  H   H4281     1.0  0.76821  0.94739  0.62779  1.0000
  H   H4282     1.0  0.84286  0.84528  0.85506  1.0000
  H   H4283     1.0  0.97340  0.85213  0.91884  1.0000
  C   C2418     1.0  0.85253  0.80938  0.84066  1.0000
  C   C2419     1.0  0.70470  0.81189  0.66368  1.0000
  H   H4284     1.0  0.77806  0.95163  0.66546  1.0000
  H   H4285     1.0  0.82382  0.80645  0.80176  1.0000
  H   H4286     1.0  0.66945  0.82818  0.66077  1.0000
  Fe  Fe271     1.0  0.91272  0.80584  0.81740  1.0000
  H   H4287     1.0  0.69899  0.82410  0.67280  1.0000
  C   C2420     1.0  0.96398  0.88216  0.50785  1.0000
  C   C2421     1.0  0.96963  0.85713  0.69991  1.0000
  C   C2422     1.0  0.65407  0.83519  0.70067  1.0000
  C   C2423     1.0  0.84342  0.82625  0.82788  1.0000
  H   H4288     1.0  0.57374  0.94865  0.74454  1.0000
  C   C2424     1.0  0.92299  0.84617  0.75173  1.0000
  C   C2425     1.0  0.57464  0.94940  0.76263  1.0000
  H   H4289     1.0  0.97024  0.84827  0.58871  1.0000
  H   H4290     1.0  0.90507  0.85386  0.53914  1.0000
  H   H4291     1.0  0.95770  0.85474  0.76603  1.0000
  H   H4292     1.0  0.60183  0.97423  0.79611  1.0000
  H   H4293     1.0  0.85377  0.99174  0.98676  1.0000
  H   H4294     1.0  0.92958  0.95721  0.91044  1.0000
  H   H4295     1.0  0.78149  0.88827  0.65828  1.0000
  H   H4296     1.0  0.96934  0.96835  0.52930  1.0000
  H   H4297     1.0  0.99811  0.82678  0.78658  1.0000
  H   H4298     1.0  0.80482  0.89180  0.62604  1.0000
  N   N134      1.0  0.78097  0.91029  0.61886  1.0000
  H   H4299     1.0  0.87192  0.97670  0.94422  1.0000
  H   H4300     1.0  0.56352  0.90306  0.77368  1.0000
  H   H4301     1.0  0.66200  0.84692  0.69344  1.0000
  C   C2426     1.0  0.64514  0.88274  0.51708  1.0000
  H   H4302     1.0  0.80784  0.91847  0.55680  1.0000
  S   S541      1.0  0.91270  0.98976  0.99536  1.0000
  C   C2427     1.0  0.57785  0.96738  0.83127  1.0000
  H   H4303     1.0  0.78055  0.91941  0.65227  1.0000
  H   H4304     1.0  0.60500  0.95188  0.74046  1.0000
  H   H4305     1.0  0.97895  0.99614  0.99288  1.0000
  H   H4306     1.0  0.96710  0.92741  0.54620  1.0000
  H   H4307     1.0  0.72404  0.88607  0.59821  1.0000
  C   C2428     1.0  0.92236  0.95225  0.92573  1.0000
  H   H4308     1.0  0.64830  0.81686  0.66281  1.0000
  S   S542      1.0  0.88891  0.91968  0.50625  1.0000
  H   H4309     1.0  0.64826  0.93006  0.76287  1.0000
  H   H4310     1.0  0.99700  0.86122  0.95994  1.0000
  H   H4311     1.0  0.77981  0.93048  0.59170  1.0000
  N   N135      1.0  0.94130  0.83507  0.74957  1.0000
  C   C2429     1.0  0.78301  0.94427  0.63153  1.0000
  H   H4312     1.0  0.95528  0.99199  0.99885  1.0000
  H   H4313     1.0  0.86340  0.84627  0.83725  1.0000
  H   H4314     1.0  0.86807  0.93650  0.74085  1.0000
  H   H4315     1.0  0.56054  0.95455  0.76814  1.0000
  H   H4316     1.0  0.82366  0.96710  0.69274  1.0000
  H   H4317     1.0  0.72903  0.88772  0.62672  1.0000
  C   C2430     1.0  0.80838  0.91876  0.59251  1.0000
  H   H4318     1.0  0.59081  0.97815  0.72544  1.0000
  H   H4319     1.0  0.81572  0.90482  0.59364  1.0000
  C   C2431     1.0  0.75998  0.91022  0.62005  1.0000
  H   H4320     1.0  0.59751  0.95027  0.79953  1.0000
  C   C2432     1.0  0.66304  0.81542  0.66786  1.0000
  H   H4321     1.0  0.88386  0.95164  0.72632  1.0000
  C   C2433     1.0  0.56092  0.91762  0.76740  1.0000
  C   C2434     1.0  0.78780  0.98746  0.69525  1.0000
  H   H4322     1.0  0.72272  0.90856  0.61061  1.0000
  H   H4323     1.0  0.73305  0.81914  0.66941  1.0000
  H   H4324     1.0  0.91100  0.90325  0.64391  1.0000
  C   C2435     1.0  0.81510  0.99705  0.78876  1.0000
  H   H4325     1.0  0.89359  0.87157  0.74441  1.0000
  H   H4326     1.0  0.96688  0.94478  0.56673  1.0000
  H   H4327     1.0  0.75792  0.88293  0.60434  1.0000
  H   H4328     1.0  0.85573  0.96342  0.69057  1.0000
  H   H4329     1.0  0.60016  0.96595  0.63147  1.0000
  C   C2436     1.0  0.60743  0.95819  0.75650  1.0000
  C   C2437     1.0  0.78709  0.91692  0.59621  1.0000
  H   H4330     1.0  0.89722  0.95744  0.94452  1.0000
  H   H4331     1.0  0.57470  0.96831  0.53919  1.0000
  C   C2438     1.0  0.95361  0.84008  0.76785  1.0000
  H   H4332     1.0  0.86752  0.81209  0.84273  1.0000
  C   C2439     1.0  0.96833  0.98076  0.51797  1.0000
  H   H4333     1.0  0.96804  0.81420  0.77923  1.0000
  C   C2440     1.0  0.97159  0.82744  0.77062  1.0000
  C   C2441     1.0  0.84684  0.99981  0.68051  1.0000
  H   H4334     1.0  0.91489  0.98503  0.94923  1.0000
  C   C2442     1.0  0.92564  0.95349  0.99813  1.0000
  S   S543      1.0  0.97615  0.84760  0.00255  1.0000
  H   H4335     1.0  0.91826  0.98870  0.92055  1.0000
  H   H4336     1.0  0.64485  0.81069  0.62806  1.0000
  H   H4337     1.0  0.93193  0.81173  0.76991  1.0000
  H   H4338     1.0  0.66359  0.91416  0.54962  1.0000
  H   H4339     1.0  0.97962  0.83962  0.80091  1.0000
  N   N136      1.0  0.89087  0.99786  0.93297  1.0000
  C   C2443     1.0  0.84628  0.99371  0.97115  1.0000
  C   C2444     1.0  0.60966  0.87188  0.50803  1.0000
  H   H4340     1.0  0.97663  0.99935  0.54205  1.0000
  H   H4341     1.0  0.56247  0.81480  0.70802  1.0000
  S   S544      1.0  0.88850  0.99996  0.53932  1.0000
  H   H4342     1.0  0.97864  0.88859  0.94295  1.0000
  H   H4343     1.0  0.90871  0.81156  0.74202  1.0000
  H   H4344     1.0  0.78449  0.99236  0.71200  1.0000
  H   H4345     1.0  0.58838  0.97759  0.83490  1.0000
  C   C2445     1.0  0.85873  0.00255  0.95332  1.0000
  H   H4346     1.0  0.98917  0.84972  0.88093  1.0000
  H   H4347     1.0  0.80912  0.99033  0.67016  1.0000
  C   C2446     1.0  0.88328  0.99883  0.91008  1.0000
  C   C2447     1.0  0.66266  0.81651  0.69324  1.0000
  H   H4348     1.0  0.59205  0.99276  0.76556  1.0000
  H   H4349     1.0  0.67684  0.81507  0.69985  1.0000
  H   H4350     1.0  0.50260  0.84738  0.80837  1.0000
  C   C2448     1.0  0.92314  0.80702  0.73701  1.0000
  Fe  Fe272     1.0  0.98245  0.87800  0.00338  1.0000
  H   H4351     1.0  0.00129  0.83240  0.91212  1.0000
  H   H4352     1.0  0.83371  0.00300  0.97410  1.0000
