data_image0
_chemical_formula_structural       HCHS3FeSFeSH2FeS2FeS2Fe2S2HC2H3CSFeSH2CH2C4H3CH3CH4C2H2CH3CNC7H4C6H6C2HC4H6C6FeCH4NCHSH3CH3C2H2CSH3CH2CH7SCH3CH4CFeH10SHC7H2C3H9CH3NC8HC2H18CH2FeH4CHCH4C2NH2CHCHC2H5SH2SCH2CH3CH6CH2NH8CSHCH4CH5C2H3CHCH3C2H3C2H2C2HC4H5CH2CHCHNFe2C5SC2H2NSH3CH2SCSH2FeC3H2SHFeS2FeS2Fe2S2C6H2C2H3C3H3CH9CHCHSHFeS2FeS2Fe2S2H2CH5C4H4CH2C4H5C2H2CH3C2HCH2NC12H28C3H2C2H4CH4CH4CHC2H3CH8FeCHCH2C4SHCH3NH3FeNCHCSH2C3H3CHNCHCHC2S2NC2H11SH3CHNHCH2SHC3H7C4H4C2HCH2CH2C2H8CHCHC2H2S2C5H2CH2CH2CHCHCHCH5CFeHSCH5C2H3FeH8CH3FeH2SFeSCH2SH3CFeSFeSFeSFeSFeS2HCFeSCFeS2Fe2SC7H5C2H2CH2C2H2C2H3CH2CHCHC6H5C2SHCHC2H3CH2CH3NC9H20C2H4NC3H4SHCH3C2H3C2H2C2H2C3H2CH3NH6CHC2SHCSHCH2FeCSH2CHSH2FeSHC3H6CH5C3NH2CHFeH8C2HSCH2NC9H25C3HCHCH2CH3C4SFeHCH3CH3NSHCH2C3H2C2HCH2S2HCH4CH4CHCSHSCHC3H7SH2SHCHSH4CH3C3H4NHC2H4CSHSC2HCHC2HNH7CH2CH3FeH4CHC2HC2HCHFeCHC2H2C2HCH5C2FeC2H3CHCSHC2H2C2H3C3H2SC2HSHCH3CH4C3HCH4C2H2C3H3CSCS2HCHCNCHCHSHFeH8S2H4FeH3CH4NHCH5CHCHC2HCH3CNHCHCHC2HC2H3CHCHCHSCFeH2FeH11SH7C2SHSH4FeH3SHCSCHC4SCSCHCHCHCH3CH6C2H2CHNCNHCH6CSH4C2H4CH2CHFeCHC2HCFeH2CSH3CHSCH4SH2C2HCHCSHCH5CH3CH2CHC3HC2H4SH4SH2C2H2FeHCSH2NH2C2H3FeH3CHCH2CH6C2H7SHC2H2CH2C2H4CHCHCSHCFeH2C2H3CHC2H2CH2CH2CSCHCHCHCHC2H4FeHCH3C2HNH2CH3CSC2H3CSH3CSCH2C2HCH3SH7C3H3NH3FeCHCH6CH4NHFeHC2HC3SCHCH3CH3SHCHC3SH7C2HCHSC3H2CH5CH3C2H2CHCHSH3CH2FeSFeSFeSFeCSHFeSFeSFeSFeS3HCSHFeSFeHFeSH3CSHC3H2C6H6C2H4CH3CH7C6H4SH5CHSFeC2H6CH2CH4FeC3H2C2H2CHC3HCHCHCHC2H3CH5CH5C4H5NCH2C2NHC2HCHC2H3CH6C3H2SH2CHC4HCH5NC6H2C2HCH3C2H7SH3CNCH3CH2CH2NC8HCH5CHSH4CH2CHCH4CH6CH3C4H5NH2CH2CH3SCH3CSC2HCSHSC2HCHSH3SH2CH2CNH3CHSH5SFeSFeSFeS2CHC2H2NC4HCH3CSHFeC3H2CH2SH2C3H3FeHSFeSFeSFeSH2CH7C2H2C3H2CHCH2CHCH5SC2H4CHCH5FeCHC2NC6H2C2H5CH9CH3CSCHCHCHCHC3HCH2FeSCHNC8HC3H16SH5C2H2C2SH3C3HCH2CFeCH2SH4C2H2CHC2H2C3H2CHC2FeHC2H2CH4CH7SH4NCH2SC5HC2HFeH2SHSHCH3CHC2HFeHCH3CH2SCH4SHSCH3CSH2CH8NHNSFeSFeHFeSHSHFeSFeSHSHCH3SCFeSFeSFeSFeS3C5SHC6H4CH4C7H4CHCHC3SH3CHFeH5C2HCH2CFeNC6SC2H15CH3C3H2CHC2H2CNCH2C3HCHC3H2CH10SHSHC2H7C2H3C2H2CSCH2C2SH2CHCH2NHC9H16CH5NSH6CH5C2H5C2H2C5H2CHCFeH7CHC2H2CHC2H5CH3CHCH2SH6CHSHCH4CH3C4H4NHSH5CHC2HCH3Fe
_chemical_formula_sum              "H1536 C864 S192 Fe96 N48"
_cell_length_a       40.6358
_cell_length_b       40.4538
_cell_length_c       48.9044
_cell_angle_alpha    90.0473
_cell_angle_beta     89.9265
_cell_angle_gamma    90.0118

_space_group_name_H-M_alt    "P 1"
_space_group_IT_number       1

loop_
  _space_group_symop_operation_xyz
  'x, y, z'

loop_
  _atom_site_type_symbol
  _atom_site_label
  _atom_site_symmetry_multiplicity
  _atom_site_fract_x
  _atom_site_fract_y
  _atom_site_fract_z
  _atom_site_occupancy
  H   H1        1.0  0.12324  0.40228  0.22133  1.0000
  C   C1        1.0  0.44753  0.44830  0.15868  1.0000
  H   H2        1.0  0.30542  0.41620  0.06276  1.0000
  S   S1        1.0  0.27703  0.41876  0.20337  1.0000
  S   S2        1.0  0.00488  0.16708  0.12385  1.0000
  S   S3        1.0  0.21299  0.41745  0.24500  1.0000
  Fe  Fe1       1.0  0.26580  0.43365  0.24661  1.0000
  S   S4        1.0  0.29447  0.41934  0.28449  1.0000
  Fe  Fe2       1.0  0.22286  0.40761  0.20062  1.0000
  S   S5        1.0  0.20870  0.35943  0.18036  1.0000
  H   H3        1.0  0.22446  0.35073  0.27902  1.0000
  H   H4        1.0  0.06676  0.01328  0.18900  1.0000
  Fe  Fe3       1.0  0.05904  0.28391  0.11356  1.0000
  S   S6        1.0  0.00904  0.26559  0.10065  1.0000
  S   S7        1.0  0.06409  0.33081  0.13843  1.0000
  Fe  Fe4       1.0  0.09441  0.23337  0.07875  1.0000
  S   S8        1.0  0.04710  0.21220  0.06321  1.0000
  S   S9        1.0  0.14538  0.21807  0.06532  1.0000
  Fe  Fe5       1.0  0.03092  0.26529  0.05802  1.0000
  Fe  Fe6       1.0  0.03033  0.21433  0.10736  1.0000
  S   S10       1.0  0.07935  0.28585  0.07102  1.0000
  S   S11       1.0  0.07900  0.23319  0.12292  1.0000
  H   H5        1.0  0.32254  0.46731  0.32512  1.0000
  C   C2        1.0  0.33144  0.01217  0.04107  1.0000
  C   C3        1.0  0.34875  0.00328  0.06515  1.0000
  H   H6        1.0  0.17426  0.10460  0.29730  1.0000
  H   H7        1.0  0.08153  0.43421  0.28163  1.0000
  H   H8        1.0  0.05973  0.35863  0.08471  1.0000
  C   C4        1.0  0.03660  0.10125  0.06544  1.0000
  S   S12       1.0  0.40581  0.21510  0.31821  1.0000
  Fe  Fe7       1.0  0.40843  0.26940  0.30909  1.0000
  S   S13       1.0  0.38062  0.29029  0.27315  1.0000
  H   H9        1.0  0.46439  0.99060  0.01281  1.0000
  H   H10       1.0  0.08941  0.43715  0.18487  1.0000
  C   C5        1.0  0.42593  0.42716  0.17741  1.0000
  H   H11       1.0  0.12553  0.45115  0.20303  1.0000
  H   H12       1.0  0.05501  0.46296  0.22381  1.0000
  C   C6        1.0  0.34826  0.02566  0.01867  1.0000
  C   C7        1.0  0.38293  0.00867  0.06770  1.0000
  C   C8        1.0  0.04453  0.46311  0.12794  1.0000
  C   C9        1.0  0.06318  0.42187  0.26806  1.0000
  H   H13       1.0  0.41280  0.39657  0.08037  1.0000
  H   H14       1.0  0.44291  0.09140  0.05666  1.0000
  H   H15       1.0  0.19114  0.09916  0.07585  1.0000
  C   C10       1.0  0.04896  0.45201  0.09829  1.0000
  H   H16       1.0  0.30735  0.17102  0.03460  1.0000
  H   H17       1.0  0.35284  0.38187  0.03702  1.0000
  H   H18       1.0  0.03576  0.40190  0.11017  1.0000
  C   C11       1.0  0.20355  0.12781  0.32821  1.0000
  H   H19       1.0  0.39406  0.10014  0.02806  1.0000
  H   H20       1.0  0.16220  0.06562  0.07422  1.0000
  H   H21       1.0  0.12613  0.31374  0.01679  1.0000
  H   H22       1.0  0.33309  0.44240  0.15010  1.0000
  C   C12       1.0  0.11146  0.40396  0.24176  1.0000
  C   C13       1.0  0.12257  0.16086  0.04163  1.0000
  H   H23       1.0  0.24711  0.43163  0.06438  1.0000
  H   H24       1.0  0.09845  0.16847  0.04817  1.0000
  C   C14       1.0  0.31690  0.27362  0.20934  1.0000
  H   H25       1.0  0.30527  0.00761  0.03957  1.0000
  H   H26       1.0  0.40437  0.35501  0.33126  1.0000
  H   H27       1.0  0.43288  0.40067  0.17579  1.0000
  C   C15       1.0  0.00207  0.10490  0.20411  1.0000
  N   N1        1.0  0.28647  0.29498  0.21090  1.0000
  C   C16       1.0  0.01629  0.13675  0.20390  1.0000
  C   C17       1.0  0.16874  0.35282  0.16765  1.0000
  C   C18       1.0  0.16094  0.32176  0.15671  1.0000
  C   C19       1.0  0.12901  0.31496  0.14735  1.0000
  C   C20       1.0  0.10468  0.33928  0.14884  1.0000
  C   C21       1.0  0.11272  0.37074  0.15885  1.0000
  C   C22       1.0  0.14469  0.37754  0.16836  1.0000
  H   H28       1.0  0.17964  0.30282  0.15552  1.0000
  H   H29       1.0  0.12321  0.29081  0.13919  1.0000
  H   H30       1.0  0.09418  0.38982  0.15896  1.0000
  H   H31       1.0  0.15086  0.40182  0.17606  1.0000
  C   C23       1.0  0.32043  0.38481  0.28173  1.0000
  C   C24       1.0  0.33529  0.37671  0.25684  1.0000
  C   C25       1.0  0.35526  0.34852  0.25486  1.0000
  C   C26       1.0  0.35994  0.32799  0.27760  1.0000
  C   C27       1.0  0.34573  0.33649  0.30269  1.0000
  C   C28       1.0  0.32628  0.36510  0.30480  1.0000
  H   H32       1.0  0.33147  0.39226  0.23916  1.0000
  H   H33       1.0  0.36656  0.34218  0.23552  1.0000
  H   H34       1.0  0.34904  0.32059  0.32024  1.0000
  H   H35       1.0  0.31482  0.37140  0.32409  1.0000
  H   H36       1.0  0.03758  0.41263  0.20990  1.0000
  H   H37       1.0  0.16471  0.45687  0.29855  1.0000
  C   C29       1.0  0.11432  0.36858  0.25356  1.0000
  C   C30       1.0  0.43964  0.11538  0.04591  1.0000
  H   H38       1.0  0.29103  0.12968  0.03729  1.0000
  C   C31       1.0  0.07425  0.03968  0.18875  1.0000
  C   C32       1.0  0.12328  0.46906  0.32477  1.0000
  C   C33       1.0  0.98961  0.11230  0.15558  1.0000
  C   C34       1.0  0.44374  0.36438  0.30328  1.0000
  H   H39       1.0  0.44622  0.17958  0.25084  1.0000
  H   H40       1.0  0.05599  0.05402  0.20081  1.0000
  H   H41       1.0  0.19549  0.25532  0.18236  1.0000
  H   H42       1.0  0.07566  0.45020  0.09425  1.0000
  H   H43       1.0  0.03907  0.47187  0.08498  1.0000
  H   H44       1.0  0.29941  0.45871  0.05290  1.0000
  C   C35       1.0  0.13321  0.06537  0.31773  1.0000
  C   C36       1.0  0.45950  0.13968  0.22323  1.0000
  C   C37       1.0  0.21062  0.23787  0.19454  1.0000
  C   C38       1.0  0.42455  0.10628  0.33565  1.0000
  C   C39       1.0  0.07988  0.45231  0.22736  1.0000
  C   C40       1.0  0.33724  0.13282  0.01508  1.0000
  Fe  Fe8       1.0  0.46090  0.21668  0.31775  1.0000
  C   C41       1.0  0.37873  0.13422  0.31303  1.0000
  H   H45       1.0  0.00307  0.45825  0.05014  1.0000
  H   H46       1.0  0.38388  0.06152  0.24507  1.0000
  H   H47       1.0  0.36614  0.42419  0.32945  1.0000
  H   H48       1.0  0.00990  0.37275  0.03656  1.0000
  N   N2        1.0  0.35021  0.43057  0.01842  1.0000
  C   C42       1.0  0.41529  0.38145  0.06150  1.0000
  H   H49       1.0  0.14805  0.05505  0.30060  1.0000
  S   S14       1.0  0.20856  0.45844  0.18696  1.0000
  H   H50       1.0  0.42828  0.43533  0.19901  1.0000
  H   H51       1.0  0.20228  0.18612  0.04265  1.0000
  H   H52       1.0  0.09356  0.03677  0.14789  1.0000
  C   C43       1.0  0.27899  0.30217  0.24058  1.0000
  H   H53       1.0  0.10921  0.10647  0.29550  1.0000
  H   H54       1.0  0.33551  0.99197  0.08191  1.0000
  H   H55       1.0  0.00696  0.41210  0.30131  1.0000
  C   C44       1.0  0.01467  0.43815  0.29817  1.0000
  C   C45       1.0  0.12678  0.13020  0.02870  1.0000
  H   H56       1.0  0.99251  0.45417  0.29949  1.0000
  H   H57       1.0  0.09777  0.40050  0.09936  1.0000
  C   C46       1.0  0.39947  0.02322  0.04567  1.0000
  S   S15       1.0  0.16308  0.07880  0.00903  1.0000
  H   H58       1.0  0.40292  0.05245  0.30938  1.0000
  H   H59       1.0  0.36732  0.06932  0.29416  1.0000
  H   H60       1.0  0.24775  0.44332  0.02884  1.0000
  C   C47       1.0  0.09878  0.45526  0.19991  1.0000
  H   H61       1.0  0.41629  0.42404  0.03546  1.0000
  H   H62       1.0  0.43837  0.47405  0.16041  1.0000
  C   C48       1.0  0.34163  0.46215  0.13699  1.0000
  H   H63       1.0  0.19381  0.22260  0.20723  1.0000
  H   H64       1.0  0.18851  0.07042  0.10391  1.0000
  H   H65       1.0  0.05064  0.04796  0.15035  1.0000
  H   H66       1.0  0.05538  0.44461  0.14208  1.0000
  H   H67       1.0  0.30756  0.24045  0.24443  1.0000
  H   H68       1.0  0.36647  0.23422  0.23383  1.0000
  H   H69       1.0  0.40910  0.16348  0.01953  1.0000
  S   S16       1.0  0.00551  0.28609  0.01946  1.0000
  C   C49       1.0  0.16990  0.11373  0.31851  1.0000
  H   H70       1.0  0.45524  0.38516  0.29194  1.0000
  H   H71       1.0  0.44172  0.37563  0.05839  1.0000
  H   H72       1.0  0.20869  0.05584  0.31226  1.0000
  C   C50       1.0  0.41405  0.08523  0.27630  1.0000
  H   H73       1.0  0.44113  0.11770  0.32013  1.0000
  H   H74       1.0  0.03941  0.11060  0.04422  1.0000
  H   H75       1.0  0.02637  0.14664  0.22266  1.0000
  H   H76       1.0  0.03185  0.44549  0.31478  1.0000
  C   C51       1.0  0.29593  0.43264  0.04642  1.0000
  Fe  Fe9       1.0  0.26272  0.47050  0.19196  1.0000
  H   H77       1.0  0.08306  0.08577  0.32000  1.0000
  H   H78       1.0  0.15162  0.33273  0.26491  1.0000
  H   H79       1.0  0.01317  0.43543  0.25414  1.0000
  H   H80       1.0  0.03675  0.46918  0.26792  1.0000
  H   H81       1.0  0.33081  0.18364  0.30519  1.0000
  H   H82       1.0  0.35202  0.13099  0.03401  1.0000
  H   H83       1.0  0.21935  0.27213  0.22708  1.0000
  H   H84       1.0  0.29682  0.22348  0.21124  1.0000
  H   H85       1.0  0.26712  0.26437  0.17831  1.0000
  H   H86       1.0  0.06908  0.36359  0.04954  1.0000
  S   S17       1.0  0.99172  0.01879  0.29576  1.0000
  H   H87       1.0  0.23828  0.16665  0.31817  1.0000
  C   C52       1.0  0.00393  0.14410  0.15534  1.0000
  C   C53       1.0  0.14977  0.18086  0.04709  1.0000
  C   C54       1.0  0.03105  0.44244  0.27026  1.0000
  C   C55       1.0  0.40943  0.06037  0.25306  1.0000
  C   C56       1.0  0.18112  0.17066  0.03856  1.0000
  C   C57       1.0  0.30394  0.14728  0.02353  1.0000
  C   C58       1.0  0.29465  0.32743  0.19710  1.0000
  H   H88       1.0  0.19581  0.17811  0.31356  1.0000
  H   H89       1.0  0.40859  0.38579  0.01831  1.0000
  C   C59       1.0  0.30651  0.32531  0.16694  1.0000
  C   C60       1.0  0.25325  0.32980  0.24592  1.0000
  C   C61       1.0  0.30695  0.35941  0.15345  1.0000
  H   H90       1.0  0.31384  0.34097  0.20882  1.0000
  H   H91       1.0  0.27280  0.34385  0.19705  1.0000
  H   H92       1.0  0.05872  0.39757  0.27780  1.0000
  H   H93       1.0  0.26448  0.35443  0.24206  1.0000
  H   H94       1.0  0.33822  0.28685  0.21873  1.0000
  H   H95       1.0  0.29025  0.30907  0.15464  1.0000
  H   H96       1.0  0.33204  0.31560  0.16599  1.0000
  H   H97       1.0  0.02829  0.18049  0.18017  1.0000
  H   H98       1.0  0.10574  0.11440  0.02511  1.0000
  C   C62       1.0  0.01743  0.15610  0.17976  1.0000
  H   H99       1.0  0.32321  0.37657  0.16496  1.0000
  H   H100      1.0  0.31637  0.35730  0.13220  1.0000
  H   H101      1.0  0.28168  0.36990  0.15264  1.0000
  N   N3        1.0  0.09371  0.10259  0.13010  1.0000
  C   C63       1.0  0.09725  0.13963  0.13280  1.0000
  C   C64       1.0  0.06540  0.09501  0.11110  1.0000
  C   C65       1.0  0.08449  0.08933  0.15797  1.0000
  C   C66       1.0  0.12487  0.08566  0.12046  1.0000
  C   C67       1.0  0.14803  0.10586  0.10150  1.0000
  C   C68       1.0  0.12321  0.15194  0.15388  1.0000
  C   C69       1.0  0.07547  0.05207  0.15924  1.0000
  C   C70       1.0  0.06810  0.10814  0.08152  1.0000
  H   H102      1.0  0.27097  0.27964  0.25158  1.0000
  C   C71       1.0  0.17402  0.08378  0.08818  1.0000
  C   C72       1.0  0.10761  0.16617  0.17986  1.0000
  H   H103      1.0  0.35695  0.22000  0.19964  1.0000
  H   H104      1.0  0.07297  0.15103  0.13763  1.0000
  H   H105      1.0  0.10398  0.15121  0.11303  1.0000
  H   H106      1.0  0.06189  0.06788  0.10896  1.0000
  H   H107      1.0  0.04209  0.10471  0.11989  1.0000
  H   H108      1.0  0.06306  0.10317  0.16640  1.0000
  H   H109      1.0  0.10489  0.09326  0.17274  1.0000
  H   H110      1.0  0.14034  0.07796  0.13813  1.0000
  H   H111      1.0  0.11869  0.06212  0.10976  1.0000
  H   H112      1.0  0.16117  0.12516  0.11336  1.0000
  H   H113      1.0  0.13445  0.11843  0.08504  1.0000
  H   H114      1.0  0.14111  0.13241  0.15951  1.0000
  H   H115      1.0  0.13788  0.17212  0.14433  1.0000
  H   H116      1.0  0.01441  0.33180  0.07216  1.0000
  H   H117      1.0  0.39973  0.42972  0.17130  1.0000
  H   H118      1.0  0.07182  0.13520  0.08109  1.0000
  H   H119      1.0  0.08849  0.09544  0.07072  1.0000
  H   H120      1.0  0.02089  0.16275  0.01004  1.0000
  C   C73       1.0  0.09920  0.39190  0.07782  1.0000
  H   H121      1.0  0.37388  0.15141  0.33029  1.0000
  H   H122      1.0  0.34525  0.19557  0.22872  1.0000
  Fe  Fe10      1.0  0.45455  0.00024  0.11920  1.0000
  H   H123      1.0  0.24785  0.23854  0.22555  1.0000
  H   H124      1.0  0.09268  0.14735  0.19074  1.0000
  H   H125      1.0  0.12722  0.17496  0.19387  1.0000
  H   H126      1.0  0.09160  0.18753  0.17472  1.0000
  C   C74       1.0  0.04561  0.42526  0.04287  1.0000
  H   H127      1.0  0.42653  0.06634  0.23601  1.0000
  C   C75       1.0  0.41768  0.11045  0.02089  1.0000
  H   H128      1.0  0.46427  0.12468  0.03972  1.0000
  H   H129      1.0  0.04175  0.33326  0.20118  1.0000
  H   H130      1.0  0.35041  0.11879  0.27669  1.0000
  H   H131      1.0  0.10599  0.05669  0.26508  1.0000
  C   C76       1.0  0.10273  0.08215  0.30448  1.0000
  C   C77       1.0  0.03567  0.36889  0.23437  1.0000
  N   N4        1.0  0.03754  0.40176  0.06594  1.0000
  H   H132      1.0  0.38693  0.46756  0.02736  1.0000
  H   H133      1.0  0.06592  0.07312  0.27311  1.0000
  C   C78       1.0  0.46143  0.15791  0.24793  1.0000
  H   H134      1.0  0.40797  0.10995  0.26801  1.0000
  C   C79       1.0  0.24146  0.32964  0.27558  1.0000
  H   H135      1.0  0.01801  0.46633  0.13284  1.0000
  C   C80       1.0  0.40249  0.40057  0.03678  1.0000
  C   C81       1.0  0.39245  0.07593  0.30139  1.0000
  H   H136      1.0  0.40164  0.35786  0.06403  1.0000
  H   H137      1.0  0.39743  0.38865  0.30789  1.0000
  H   H138      1.0  0.44267  0.14760  0.20742  1.0000
  H   H139      1.0  0.12737  0.42084  0.25409  1.0000
  H   H140      1.0  0.21582  0.15088  0.28919  1.0000
  S   S18       1.0  0.00118  0.08188  0.23555  1.0000
  H   H141      1.0  0.44380  0.43929  0.13751  1.0000
  H   H142      1.0  0.30176  0.30968  0.25145  1.0000
  S   S19       1.0  0.46355  0.27085  0.30656  1.0000
  C   C82       1.0  0.31470  0.23899  0.22258  1.0000
  H   H143      1.0  0.07135  0.38606  0.20451  1.0000
  H   H144      1.0  0.44048  0.08520  0.28205  1.0000
  C   C83       1.0  0.36884  0.45709  0.11936  1.0000
  H   H145      1.0  0.16236  0.37492  0.27256  1.0000
  H   H146      1.0  0.07196  0.19539  0.01142  1.0000
  H   H147      1.0  0.18358  0.02154  0.32301  1.0000
  C   C84       1.0  0.41580  0.37687  0.32148  1.0000
  H   H148      1.0  0.10338  0.35057  0.23904  1.0000
  H   H149      1.0  0.26266  0.33242  0.28972  1.0000
  H   H150      1.0  0.06645  0.44171  0.04816  1.0000
  H   H151      1.0  0.39691  0.45496  0.33001  1.0000
  H   H152      1.0  0.15253  0.13484  0.31620  1.0000
  H   H153      1.0  0.32380  0.26885  0.18771  1.0000
  C   C85       1.0  0.05592  0.39714  0.22095  1.0000
  H   H154      1.0  0.38091  0.43328  0.11908  1.0000
  H   H155      1.0  0.47612  0.98736  0.24245  1.0000
  N   N5        1.0  0.07714  0.41808  0.23956  1.0000
  H   H156      1.0  0.09198  0.46927  0.24196  1.0000
  H   H157      1.0  0.22431  0.22127  0.18044  1.0000
  H   H158      1.0  0.14981  0.37637  0.08387  1.0000
  H   H159      1.0  0.16969  0.30604  0.01956  1.0000
  H   H160      1.0  0.43386  0.34638  0.28819  1.0000
  H   H161      1.0  0.00584  0.35942  0.19804  1.0000
  H   H162      1.0  0.24179  0.29824  0.18663  1.0000
  H   H163      1.0  0.10709  0.41255  0.06449  1.0000
  C   C86       1.0  0.38246  0.03072  0.02123  1.0000
  S   S20       1.0  0.45522  0.99978  0.16564  1.0000
  H   H164      1.0  0.99939  0.35949  0.09827  1.0000
  C   C87       1.0  0.06556  0.37749  0.06897  1.0000
  H   H165      1.0  0.30730  0.40013  0.01230  1.0000
  H   H166      1.0  0.25381  0.40050  0.03858  1.0000
  H   H167      1.0  0.12411  0.04363  0.32940  1.0000
  H   H168      1.0  0.31481  0.16721  0.27365  1.0000
  C   C88       1.0  0.15824  0.11934  0.02121  1.0000
  H   H169      1.0  0.03155  0.07428  0.06457  1.0000
  H   H170      1.0  0.16375  0.35990  0.23755  1.0000
  H   H171      1.0  0.23157  0.32719  0.23233  1.0000
  H   H172      1.0  0.08012  0.03644  0.29012  1.0000
  H   H173      1.0  0.24181  0.00950  0.33098  1.0000
  C   C89       1.0  0.12620  0.36562  0.07670  1.0000
  C   C90       1.0  0.23442  0.25680  0.21300  1.0000
  H   H174      1.0  0.12956  0.35650  0.05547  1.0000
  H   H175      1.0  0.09877  0.04183  0.19859  1.0000
  H   H176      1.0  0.01469  0.37928  0.24611  1.0000
  C   C91       1.0  0.34790  0.22124  0.22107  1.0000
  H   H177      1.0  0.32600  0.12276  0.30730  1.0000
  C   C92       1.0  0.31336  0.42589  0.01868  1.0000
  H   H178      1.0  0.11999  0.34449  0.09024  1.0000
  H   H179      1.0  0.35986  0.41513  0.06020  1.0000
  H   H180      1.0  0.10214  0.36638  0.27375  1.0000
  C   C93       1.0  0.19942  0.04213  0.33033  1.0000
  C   C94       1.0  0.08795  0.06073  0.28182  1.0000
  H   H181      1.0  0.00390  0.42497  0.09481  1.0000
  H   H182      1.0  0.42817  0.13311  0.06043  1.0000
  H   H183      1.0  0.22818  0.30632  0.28024  1.0000
  C   C95       1.0  0.34683  0.13346  0.29563  1.0000
  C   C96       1.0  0.21386  0.15770  0.31114  1.0000
  H   H184      1.0  0.41464  0.03483  0.26013  1.0000
  H   H185      1.0  0.35718  0.18043  0.27554  1.0000
  C   C97       1.0  0.03057  0.41900  0.09280  1.0000
  C   C98       1.0  0.02157  0.34563  0.21268  1.0000
  H   H186      1.0  0.42559  0.02763  0.04706  1.0000
  C   C99       1.0  0.15027  0.35856  0.25733  1.0000
  C   C100      1.0  0.25791  0.27910  0.19598  1.0000
  C   C101      1.0  0.18538  0.13994  0.02557  1.0000
  C   C102      1.0  0.33685  0.16835  0.28700  1.0000
  H   H187      1.0  0.39831  0.14650  0.30072  1.0000
  H   H188      1.0  0.05040  0.35383  0.24868  1.0000
  H   H189      1.0  0.01534  0.11410  0.07505  1.0000
  H   H190      1.0  0.47475  0.02741  0.25876  1.0000
  H   H191      1.0  0.05445  0.41117  0.02469  1.0000
  C   C103      1.0  0.36475  0.40660  0.03889  1.0000
  H   H192      1.0  0.99917  0.43192  0.02062  1.0000
  H   H193      1.0  0.14143  0.28207  0.03962  1.0000
  C   C104      1.0  0.09340  0.98319  0.33910  1.0000
  H   H194      1.0  0.46278  0.35168  0.31566  1.0000
  C   C105      1.0  0.25889  0.42660  0.04428  1.0000
  H   H195      1.0  0.20976  0.13164  0.01996  1.0000
  N   N6        1.0  0.15436  0.08701  0.33588  1.0000
  Fe  Fe11      1.0  0.20212  0.46946  0.23221  1.0000
  Fe  Fe12      1.0  0.98924  0.02847  0.24989  1.0000
  C   C106      1.0  0.14256  0.47147  0.30071  1.0000
  C   C107      1.0  0.02880  0.47481  0.01400  1.0000
  C   C108      1.0  0.01669  0.44713  0.03274  1.0000
  C   C109      1.0  0.14503  0.29421  0.01953  1.0000
  C   C110      1.0  0.00720  0.38252  0.05770  1.0000
  S   S21       1.0  0.40396  0.99446  0.09779  1.0000
  C   C111      1.0  0.35981  0.46494  0.02734  1.0000
  C   C112      1.0  0.98899  0.09273  0.17960  1.0000
  H   H196      1.0  0.10878  0.23442  0.01329  1.0000
  H   H197      1.0  0.35260  0.46926  0.04899  1.0000
  N   N7        1.0  0.39059  0.10144  0.32384  1.0000
  S   S22       1.0  0.47620  0.09016  0.18648  1.0000
  H   H198      1.0  0.22318  0.10890  0.32604  1.0000
  H   H199      1.0  0.98537  0.39911  0.05701  1.0000
  H   H200      1.0  0.44258  0.42081  0.33219  1.0000
  C   C113      1.0  0.99769  0.35294  0.07627  1.0000
  H   H201      1.0  0.00636  0.32625  0.22263  1.0000
  H   H202      1.0  0.06420  0.32772  0.01067  1.0000
  S   S23       1.0  0.02498  0.98787  0.23903  1.0000
  C   C114      1.0  0.47935  0.11160  0.21859  1.0000
  S   S24       1.0  0.41529  0.47449  0.08055  1.0000
  H   H203      1.0  0.34213  0.08456  0.33599  1.0000
  H   H204      1.0  0.42952  0.09136  0.00793  1.0000
  Fe  Fe13      1.0  0.40968  0.23055  0.36209  1.0000
  C   C115      1.0  0.12570  0.16418  0.63133  1.0000
  C   C116      1.0  0.31295  0.99884  0.54031  1.0000
  C   C117      1.0  0.37387  0.33976  0.40308  1.0000
  H   H205      1.0  0.06621  0.28426  0.49196  1.0000
  H   H206      1.0  0.40956  0.13932  0.61390  1.0000
  S   S25       1.0  0.38510  0.20598  0.39820  1.0000
  H   H207      1.0  0.31393  0.98897  0.58379  1.0000
  Fe  Fe14      1.0  0.21857  0.08633  0.47603  1.0000
  S   S26       1.0  0.21226  0.03154  0.48092  1.0000
  S   S27       1.0  0.20867  0.12318  0.50983  1.0000
  Fe  Fe15      1.0  0.25077  0.07902  0.41975  1.0000
  S   S28       1.0  0.24753  0.02368  0.42099  1.0000
  S   S29       1.0  0.26608  0.10739  0.38188  1.0000
  Fe  Fe16      1.0  0.19543  0.03188  0.43627  1.0000
  Fe  Fe17      1.0  0.26479  0.02854  0.46537  1.0000
  S   S30       1.0  0.19894  0.08719  0.43346  1.0000
  S   S31       1.0  0.27091  0.08344  0.46211  1.0000
  C   C118      1.0  0.30003  0.13388  0.38576  1.0000
  C   C119      1.0  0.32056  0.13124  0.40852  1.0000
  C   C120      1.0  0.34708  0.15305  0.41177  1.0000
  C   C121      1.0  0.35326  0.17759  0.39225  1.0000
  C   C122      1.0  0.33307  0.18001  0.36922  1.0000
  C   C123      1.0  0.30653  0.15805  0.36592  1.0000
  H   H208      1.0  0.31619  0.11220  0.42354  1.0000
  H   H209      1.0  0.36275  0.15106  0.42958  1.0000
  C   C124      1.0  0.36812  0.05707  0.65036  1.0000
  C   C125      1.0  0.99538  0.41328  0.48361  1.0000
  H   H210      1.0  0.14220  0.07672  0.50806  1.0000
  H   H211      1.0  0.11906  0.14964  0.57841  1.0000
  H   H212      1.0  0.18289  0.30780  0.65007  1.0000
  C   C126      1.0  0.17217  0.14646  0.50820  1.0000
  C   C127      1.0  0.15083  0.14376  0.48592  1.0000
  C   C128      1.0  0.12175  0.16248  0.48521  1.0000
  H   H213      1.0  0.15646  0.12695  0.46940  1.0000
  H   H214      1.0  0.10511  0.16005  0.46807  1.0000
  H   H215      1.0  0.37557  0.45194  0.66965  1.0000
  C   C129      1.0  0.09326  0.01452  0.38193  1.0000
  H   H216      1.0  0.46254  0.14801  0.38992  1.0000
  H   H217      1.0  0.43027  0.34172  0.66540  1.0000
  H   H218      1.0  0.41206  0.07786  0.61175  1.0000
  H   H219      1.0  0.07018  0.35085  0.52154  1.0000
  H   H220      1.0  0.44725  0.38844  0.35602  1.0000
  H   H221      1.0  0.11864  0.04124  0.51932  1.0000
  H   H222      1.0  0.13322  0.27455  0.47837  1.0000
  H   H223      1.0  0.41175  0.37564  0.40899  1.0000
  H   H224      1.0  0.40138  0.44525  0.39908  1.0000
  C   C130      1.0  0.09882  0.14223  0.61913  1.0000
  H   H225      1.0  0.40554  0.17635  0.65333  1.0000
  C   C131      1.0  0.11844  0.27093  0.45959  1.0000
  H   H226      1.0  0.12499  0.34903  0.54436  1.0000
  S   S32       1.0  0.17778  0.42761  0.63562  1.0000
  H   H227      1.0  0.15160  0.09261  0.55674  1.0000
  Fe  Fe18      1.0  0.08401  0.27087  0.59480  1.0000
  S   S33       1.0  0.03216  0.28397  0.60648  1.0000
  S   S34       1.0  0.12920  0.28001  0.62028  1.0000
  Fe  Fe19      1.0  0.06249  0.23447  0.54367  1.0000
  S   S35       1.0  0.00904  0.24498  0.55144  1.0000
  S   S36       1.0  0.07663  0.20594  0.50579  1.0000
  Fe  Fe20      1.0  0.02595  0.29679  0.56140  1.0000
  Fe  Fe21      1.0  0.02050  0.23082  0.59539  1.0000
  S   S37       1.0  0.07898  0.28644  0.55116  1.0000
  S   S38       1.0  0.07279  0.21764  0.58627  1.0000
  H   H228      1.0  0.45661  0.38645  0.63160  1.0000
  H   H229      1.0  0.29574  0.10915  0.59690  1.0000
  C   C132      1.0  0.09880  0.09851  0.54839  1.0000
  H   H230      1.0  0.06397  0.40638  0.41501  1.0000
  H   H231      1.0  0.12090  0.10921  0.41414  1.0000
  H   H232      1.0  0.41153  0.11869  0.37849  1.0000
  H   H233      1.0  0.35746  0.02593  0.39315  1.0000
  H   H234      1.0  0.04323  0.14443  0.58497  1.0000
  C   C133      1.0  0.35134  0.04999  0.38348  1.0000
  C   C134      1.0  0.11381  0.18384  0.50682  1.0000
  C   C135      1.0  0.13529  0.18681  0.52899  1.0000
  C   C136      1.0  0.16441  0.16811  0.52968  1.0000
  H   H235      1.0  0.12945  0.20345  0.54564  1.0000
  H   H236      1.0  0.18085  0.17032  0.54697  1.0000
  H   H237      1.0  0.12662  0.31902  0.44068  1.0000
  H   H238      1.0  0.09771  0.25403  0.46432  1.0000
  C   C137      1.0  0.13008  0.07682  0.55158  1.0000
  H   H239      1.0  0.34486  0.03682  0.61429  1.0000
  H   H240      1.0  0.33739  0.12341  0.62873  1.0000
  C   C138      1.0  0.16467  0.38655  0.63085  1.0000
  C   C139      1.0  0.13717  0.37989  0.61441  1.0000
  C   C140      1.0  0.12603  0.34722  0.61093  1.0000
  C   C141      1.0  0.14255  0.32116  0.62377  1.0000
  H   H241      1.0  0.25718  0.43443  0.58649  1.0000
  H   H242      1.0  0.37004  0.47944  0.37300  1.0000
  H   H243      1.0  0.12432  0.40000  0.60451  1.0000
  H   H244      1.0  0.10465  0.34222  0.59842  1.0000
  H   H245      1.0  0.28840  0.11636  0.54722  1.0000
  C   C142      1.0  0.33141  0.00174  0.51619  1.0000
  C   C143      1.0  0.04764  0.38472  0.41162  1.0000
  H   H246      1.0  0.42610  0.05442  0.54619  1.0000
  H   H247      1.0  0.38617  0.07030  0.53668  1.0000
  C   C144      1.0  0.03052  0.12186  0.54609  1.0000
  H   H248      1.0  0.16730  0.04885  0.36493  1.0000
  H   H249      1.0  0.08086  0.08369  0.53632  1.0000
  H   H250      1.0  0.07610  0.15717  0.61807  1.0000
  C   C145      1.0  0.47852  0.43206  0.61852  1.0000
  C   C146      1.0  0.47440  0.33872  0.42402  1.0000
  H   H251      1.0  0.19724  0.07956  0.36199  1.0000
  C   C147      1.0  0.44877  0.41234  0.62860  1.0000
  H   H252      1.0  0.33754  0.19923  0.35431  1.0000
  H   H253      1.0  0.99774  0.27503  0.49115  1.0000
  N   N8        1.0  0.27924  0.19842  0.47375  1.0000
  C   C148      1.0  0.27537  0.21822  0.49969  1.0000
  C   C149      1.0  0.30268  0.21643  0.45495  1.0000
  C   C150      1.0  0.24583  0.19420  0.46075  1.0000
  C   C151      1.0  0.29318  0.16460  0.47957  1.0000
  C   C152      1.0  0.32502  0.16353  0.49705  1.0000
  C   C153      1.0  0.25364  0.20221  0.52224  1.0000
  C   C154      1.0  0.24552  0.17729  0.43226  1.0000
  C   C155      1.0  0.29029  0.24968  0.44297  1.0000
  C   C156      1.0  0.31564  0.26428  0.42322  1.0000
  C   C157      1.0  0.33930  0.12855  0.49801  1.0000
  C   C158      1.0  0.25359  0.22311  0.54828  1.0000
  C   C159      1.0  0.21082  0.17683  0.42031  1.0000
  H   H254      1.0  0.26395  0.24258  0.49516  1.0000
  H   H255      1.0  0.29987  0.22412  0.50862  1.0000
  H   H256      1.0  0.32608  0.22217  0.46571  1.0000
  H   H257      1.0  0.31007  0.20036  0.43756  1.0000
  H   H258      1.0  0.23285  0.21836  0.45930  1.0000
  H   H259      1.0  0.22975  0.17865  0.47394  1.0000
  H   H260      1.0  0.27453  0.14861  0.48974  1.0000
  H   H261      1.0  0.29897  0.15184  0.46005  1.0000
  H   H262      1.0  0.31983  0.17135  0.51838  1.0000
  H   H263      1.0  0.34436  0.17986  0.48853  1.0000
  H   H264      1.0  0.22774  0.20029  0.51529  1.0000
  H   H265      1.0  0.26236  0.17714  0.52779  1.0000
  H   H266      1.0  0.25382  0.15126  0.43398  1.0000
  H   H267      1.0  0.26166  0.19012  0.41737  1.0000
  H   H268      1.0  0.26707  0.24649  0.43140  1.0000
  H   H269      1.0  0.28611  0.26803  0.45948  1.0000
  H   H270      1.0  0.33959  0.26831  0.43366  1.0000
  H   H271      1.0  0.31957  0.24743  0.40554  1.0000
  H   H272      1.0  0.30675  0.28840  0.41532  1.0000
  H   H273      1.0  0.36128  0.12811  0.51148  1.0000
  H   H274      1.0  0.32095  0.11071  0.50609  1.0000
  H   H275      1.0  0.34689  0.12042  0.47723  1.0000
  H   H276      1.0  0.24391  0.24828  0.54407  1.0000
  H   H277      1.0  0.23747  0.21131  0.56384  1.0000
  H   H278      1.0  0.27883  0.22506  0.55683  1.0000
  H   H279      1.0  0.20191  0.20240  0.41670  1.0000
  H   H280      1.0  0.21111  0.16338  0.40050  1.0000
  H   H281      1.0  0.19362  0.16398  0.43442  1.0000
  C   C160      1.0  0.00021  0.14419  0.54541  1.0000
  C   C161      1.0  0.43411  0.42782  0.65505  1.0000
  C   C162      1.0  0.44070  0.46635  0.37412  1.0000
  H   H282      1.0  0.98921  0.25762  0.45797  1.0000
  H   H283      1.0  0.46236  0.45762  0.36229  1.0000
  C   C163      1.0  0.35852  0.12101  0.61432  1.0000
  C   C164      1.0  0.17006  0.32789  0.64011  1.0000
  H   H284      1.0  0.17150  0.11557  0.38652  1.0000
  H   H285      1.0  0.06768  0.15706  0.55702  1.0000
  H   H286      1.0  0.02255  0.09635  0.55106  1.0000
  H   H287      1.0  0.11421  0.31428  0.50309  1.0000
  C   C165      1.0  0.46190  0.13154  0.37173  1.0000
  H   H288      1.0  0.16227  0.26847  0.43383  1.0000
  H   H289      1.0  0.11996  0.08125  0.36922  1.0000
  H   H290      1.0  0.11202  0.11626  0.34824  1.0000
  H   H291      1.0  0.40072  0.06026  0.37082  1.0000
  C   C166      1.0  0.42654  0.12866  0.36143  1.0000
  H   H292      1.0  0.98758  0.05378  0.34960  1.0000
  H   H293      1.0  0.15358  0.14954  0.36810  1.0000
  H   H294      1.0  0.37691  0.03630  0.34689  1.0000
  H   H295      1.0  0.02060  0.41168  0.52255  1.0000
  C   C167      1.0  0.10912  0.12872  0.59076  1.0000
  H   H296      1.0  0.08025  0.03019  0.39625  1.0000
  C   C168      1.0  0.41954  0.43653  0.38360  1.0000
  C   C169      1.0  0.23469  0.44519  0.57714  1.0000
  H   H297      1.0  0.00735  0.16977  0.53964  1.0000
  H   H298      1.0  0.02350  0.24258  0.47767  1.0000
  H   H299      1.0  0.37343  0.18592  0.62917  1.0000
  C   C170      1.0  0.09170  0.36130  0.51080  1.0000
  H   H300      1.0  0.36537  0.37896  0.35859  1.0000
  H   H301      1.0  0.46706  0.34520  0.46749  1.0000
  H   H302      1.0  0.13843  0.38330  0.52328  1.0000
  H   H303      1.0  0.35313  0.13902  0.59770  1.0000
  H   H304      1.0  0.39951  0.11692  0.64415  1.0000
  H   H305      1.0  0.33279  0.40270  0.59549  1.0000
  H   H306      1.0  0.99081  0.99171  0.35640  1.0000
  H   H307      1.0  0.05275  0.01282  0.35299  1.0000
  Fe  Fe22      1.0  0.47049  0.03266  0.65647  1.0000
  C   C171      1.0  0.02707  0.16619  0.66061  1.0000
  H   H308      1.0  0.04269  0.38262  0.38935  1.0000
  C   C172      1.0  0.12571  0.00450  0.38807  1.0000
  H   H309      1.0  0.12966  0.34672  0.48216  1.0000
  H   H310      1.0  0.04202  0.32007  0.49371  1.0000
  C   C173      1.0  0.38969  0.13448  0.62896  1.0000
  C   C174      1.0  0.22862  0.02647  0.34508  1.0000
  C   C175      1.0  0.06364  0.35296  0.42207  1.0000
  C   C176      1.0  0.38256  0.16700  0.64374  1.0000
  S   S39       1.0  0.14384  0.01647  0.42010  1.0000
  H   H311      1.0  0.43665  0.42027  0.39515  1.0000
  C   C177      1.0  0.10525  0.30416  0.44799  1.0000
  H   H312      1.0  0.10563  0.11980  0.53509  1.0000
  H   H313      1.0  0.40120  0.37170  0.63777  1.0000
  H   H314      1.0  0.08665  0.34935  0.41013  1.0000
  N   N9        1.0  0.08304  0.11062  0.57461  1.0000
  H   H315      1.0  0.34536  0.10234  0.56273  1.0000
  H   H316      1.0  0.28732  0.07192  0.54220  1.0000
  H   H317      1.0  0.10517  0.38860  0.54733  1.0000
  Fe  Fe23      1.0  0.46131  0.28377  0.35179  1.0000
  N   N10       1.0  0.08448  0.32473  0.46723  1.0000
  C   C178      1.0  0.14833  0.12553  0.37823  1.0000
  H   H318      1.0  0.12644  0.24775  0.41983  1.0000
  C   C179      1.0  0.07000  0.08121  0.59038  1.0000
  S   S40       1.0  0.31273  0.00600  0.48300  1.0000
  H   H319      1.0  0.37830  0.42913  0.62127  1.0000
  H   H320      1.0  0.12688  0.05800  0.56785  1.0000
  C   C180      1.0  0.28192  0.09235  0.55677  1.0000
  C   C181      1.0  0.14199  0.98409  0.36927  1.0000
  C   C182      1.0  0.03371  0.05746  0.62800  1.0000
  H   H321      1.0  0.29095  0.06497  0.59340  1.0000
  H   H322      1.0  0.04678  0.33221  0.41753  1.0000
  H   H323      1.0  0.98791  0.14470  0.56573  1.0000
  C   C183      1.0  0.00575  0.39790  0.50817  1.0000
  H   H324      1.0  0.35202  0.06933  0.39958  1.0000
  N   N11       1.0  0.36026  0.08613  0.60317  1.0000
  C   C184      1.0  0.39451  0.07613  0.59447  1.0000
  H   H325      1.0  0.13048  0.18590  0.61800  1.0000
  C   C185      1.0  0.33835  0.08358  0.57827  1.0000
  H   H326      1.0  0.08375  0.38429  0.50038  1.0000
  C   C186      1.0  0.36655  0.08969  0.34530  1.0000
  C   C187      1.0  0.13850  0.05881  0.52499  1.0000
  S   S41       1.0  0.27218  0.42829  0.65521  1.0000
  S   S42       1.0  0.46684  0.02590  0.61041  1.0000
  N   N12       1.0  0.40260  0.41724  0.36124  1.0000
  C   C188      1.0  0.35702  0.46224  0.35906  1.0000
  C   C189      1.0  0.34759  0.06159  0.62398  1.0000
  H   H327      1.0  0.39504  0.04938  0.58906  1.0000
  H   H328      1.0  0.40829  0.99096  0.54441  1.0000
  H   H329      1.0  0.33429  0.36715  0.61768  1.0000
  H   H330      1.0  0.14889  0.15002  0.63398  1.0000
  H   H331      1.0  0.34180  0.05920  0.56806  1.0000
  H   H332      1.0  0.39733  0.12045  0.56744  1.0000
  H   H333      1.0  0.04302  0.10909  0.62276  1.0000
  H   H334      1.0  0.36290  0.40350  0.38843  1.0000
  H   H335      1.0  0.46469  0.31382  0.42377  1.0000
  H   H336      1.0  0.43581  0.10267  0.57617  1.0000
  H   H337      1.0  0.35943  0.32798  0.38644  1.0000
  S   S43       1.0  0.00743  0.34801  0.54713  1.0000
  H   H338      1.0  0.38734  0.32009  0.41429  1.0000
  H   H339      1.0  0.47163  0.10692  0.37762  1.0000
  H   H340      1.0  0.01726  0.09134  0.59730  1.0000
  C   C190      1.0  0.34916  0.38739  0.60852  1.0000
  H   H341      1.0  0.09145  0.29743  0.42927  1.0000
  N   N13       1.0  0.40726  0.40872  0.66967  1.0000
  H   H342      1.0  0.06232  0.06108  0.57618  1.0000
  C   C191      1.0  0.07747  0.00452  0.35744  1.0000
  H   H343      1.0  0.25503  0.09239  0.56094  1.0000
  H   H344      1.0  0.09488  0.12143  0.63357  1.0000
  S   S44       1.0  0.40606  0.28489  0.35311  1.0000
  H   H345      1.0  0.09005  0.07018  0.60293  1.0000
  C   C192      1.0  0.38615  0.38863  0.65047  1.0000
  C   C193      1.0  0.17949  0.06507  0.34965  1.0000
  C   C194      1.0  0.30086  0.08761  0.58349  1.0000
  H   H346      1.0  0.05469  0.05383  0.64223  1.0000
  H   H347      1.0  0.14890  0.22935  0.44768  1.0000
  H   H348      1.0  0.16167  0.04462  0.52771  1.0000
  H   H349      1.0  0.43037  0.41254  0.61186  1.0000
  H   H350      1.0  0.42286  0.09271  0.52765  1.0000
  H   H351      1.0  0.32254  0.06858  0.63109  1.0000
  H   H352      1.0  0.03005  0.03468  0.61567  1.0000
  C   C195      1.0  0.39850  0.36460  0.39139  1.0000
  C   C196      1.0  0.07171  0.35549  0.45304  1.0000
  C   C197      1.0  0.36327  0.98937  0.56749  1.0000
  C   C198      1.0  0.03991  0.08725  0.60948  1.0000
  H   H353      1.0  0.35677  0.35217  0.41754  1.0000
  H   H354      1.0  0.34336  0.42000  0.64260  1.0000
  H   H355      1.0  0.13038  0.11232  0.59512  1.0000
  H   H356      1.0  0.36172  0.10952  0.36056  1.0000
  C   C199      1.0  0.11674  0.37107  0.53269  1.0000
  C   C200      1.0  0.40996  0.09647  0.57067  1.0000
  H   H357      1.0  0.00239  0.43853  0.47928  1.0000
  C   C201      1.0  0.38180  0.99336  0.54354  1.0000
  H   H358      1.0  0.41650  0.35075  0.37881  1.0000
  H   H359      1.0  0.01537  0.31091  0.45104  1.0000
  C   C202      1.0  0.05657  0.30485  0.47922  1.0000
  H   H360      1.0  0.21335  0.42959  0.58308  1.0000
  H   H361      1.0  0.36881  0.37670  0.59542  1.0000
  C   C203      1.0  0.10655  0.33572  0.49045  1.0000
  C   C204      1.0  0.18111  0.36048  0.64364  1.0000
  H   H362      1.0  0.32598  0.04840  0.37506  1.0000
  H   H363      1.0  0.20253  0.36530  0.65608  1.0000
  H   H364      1.0  0.04421  0.18609  0.65661  1.0000
  H   H365      1.0  0.38064  0.00083  0.49973  1.0000
  H   H366      1.0  0.04120  0.12166  0.52514  1.0000
  H   H367      1.0  0.47194  0.99611  0.50933  1.0000
  H   H368      1.0  0.33918  0.44760  0.37122  1.0000
  H   H369      1.0  0.47799  0.14249  0.35573  1.0000
  C   C205      1.0  0.47572  0.35669  0.44885  1.0000
  H   H370      1.0  0.29072  0.16016  0.34824  1.0000
  C   C206      1.0  0.12546  0.13235  0.40246  1.0000
  H   H371      1.0  0.04936  0.36497  0.46377  1.0000
  C   C207      1.0  0.42856  0.40148  0.34339  1.0000
  C   C208      1.0  0.41118  0.07725  0.54370  1.0000
  H   H372      1.0  0.42507  0.45275  0.64877  1.0000
  H   H373      1.0  0.09017  0.37584  0.45430  1.0000
  S   S45       1.0  0.46492  0.22961  0.36284  1.0000
  S   S46       1.0  0.98889  0.19186  0.61786  1.0000
  C   C209      1.0  0.00912  0.26497  0.47227  1.0000
  C   C210      1.0  0.36597  0.99903  0.51814  1.0000
  C   C211      1.0  0.36408  0.40894  0.63096  1.0000
  C   C212      1.0  0.03135  0.29066  0.45867  1.0000
  C   C213      1.0  0.99870  0.16322  0.64458  1.0000
  H   H374      1.0  0.13105  0.45267  0.34099  1.0000
  H   H375      1.0  0.10159  0.14258  0.39535  1.0000
  C   C214      1.0  0.05645  0.13485  0.56674  1.0000
  H   H376      1.0  0.36956  0.37201  0.66228  1.0000
  H   H377      1.0  0.02388  0.38907  0.42219  1.0000
  C   C215      1.0  0.14038  0.25318  0.43884  1.0000
  H   H378      1.0  0.36786  0.08006  0.66269  1.0000
  H   H379      1.0  0.04338  0.27835  0.44108  1.0000
  C   C216      1.0  0.38075  0.39154  0.37431  1.0000
  H   H380      1.0  0.41785  0.15403  0.35681  1.0000
  C   C217      1.0  0.38143  0.43931  0.34363  1.0000
  H   H381      1.0  0.13877  0.47874  0.66034  1.0000
  C   C218      1.0  0.99655  0.36517  0.51454  1.0000
  H   H382      1.0  0.11763  0.17343  0.65166  1.0000
  C   C219      1.0  0.37629  0.05782  0.36096  1.0000
  H   H383      1.0  0.13704  0.15054  0.41647  1.0000
  H   H384      1.0  0.01121  0.06171  0.64043  1.0000
  H   H385      1.0  0.21995  0.01197  0.36299  1.0000
  H   H386      1.0  0.34910  0.46706  0.57106  1.0000
  H   H387      1.0  0.39381  0.04986  0.64577  1.0000
  C   C220      1.0  0.35370  0.02974  0.66832  1.0000
  Fe  Fe24      1.0  0.43344  0.98332  0.61990  1.0000
  H   H388      1.0  0.20309  0.13561  0.34987  1.0000
  S   S47       1.0  0.43627  0.99032  0.66591  1.0000
  C   C221      1.0  0.13218  0.10158  0.35757  1.0000
  H   H389      1.0  0.35419  0.00568  0.65730  1.0000
  H   H390      1.0  0.23698  0.44453  0.55451  1.0000
  H   H391      1.0  0.36403  0.16317  0.66016  1.0000
  H   H392      1.0  0.45488  0.43287  0.66929  1.0000
  H   H393      1.0  0.31719  0.46730  0.61457  1.0000
  C   C222      1.0  0.98258  0.11485  0.67216  1.0000
  C   C223      1.0  0.32872  0.99222  0.56558  1.0000
  H   H394      1.0  0.46846  0.46983  0.41228  1.0000
  H   H395      1.0  0.47136  0.45798  0.61383  1.0000
  H   H396      1.0  0.28641  0.00032  0.53933  1.0000
  Fe  Fe25      1.0  0.21892  0.43383  0.66603  1.0000
  H   H397      1.0  0.00052  0.03190  0.39514  1.0000
  H   H398      1.0  0.24614  0.04575  0.35210  1.0000
  H   H399      1.0  0.02190  0.98736  0.41236  1.0000
  H   H400      1.0  0.09357  0.31122  0.66604  1.0000
  H   H401      1.0  0.46635  0.36676  0.67219  1.0000
  H   H402      1.0  0.05865  0.33840  0.66778  1.0000
  H   H403      1.0  0.98240  0.13480  0.53006  1.0000
  H   H404      1.0  0.22722  0.47950  0.60985  1.0000
  C   C224      1.0  0.22940  0.48059  0.58725  1.0000
  H   H405      1.0  0.11054  0.37004  0.67015  1.0000
  H   H406      1.0  0.43616  0.08208  0.34049  1.0000
  H   H407      1.0  0.36002  0.13604  0.81592  1.0000
  Fe  Fe26      1.0  0.02522  0.01179  0.79444  1.0000
  H   H408      1.0  0.37467  0.21526  0.97382  1.0000
  H   H409      1.0  0.05119  0.18151  0.77517  1.0000
  S   S48       1.0  0.22258  0.40407  0.70456  1.0000
  Fe  Fe27      1.0  0.27689  0.40386  0.69613  1.0000
  S   S49       1.0  0.31588  0.36445  0.69779  1.0000
  C   C225      1.0  0.11945  0.99536  0.83783  1.0000
  H   H410      1.0  0.00275  0.15458  0.79752  1.0000
  H   H411      1.0  0.33233  0.08055  0.83963  1.0000
  S   S50       1.0  0.05711  0.02493  0.83217  1.0000
  H   H412      1.0  0.43392  0.12942  0.79556  1.0000
  H   H413      1.0  0.99475  0.19363  0.75681  1.0000
  H   H414      1.0  0.34791  0.43363  0.92074  1.0000
  C   C226      1.0  0.43822  0.36188  0.93440  1.0000
  Fe  Fe28      1.0  0.00012  0.04676  0.74181  1.0000
  S   S51       1.0  0.47336  0.18926  0.77041  1.0000
  Fe  Fe29      1.0  0.44453  0.27915  0.84417  1.0000
  S   S52       1.0  0.39506  0.26448  0.86026  1.0000
  Fe  Fe30      1.0  0.44264  0.22264  0.79915  1.0000
  S   S53       1.0  0.39203  0.20712  0.81217  1.0000
  Fe  Fe31      1.0  0.38071  0.26116  0.81608  1.0000
  S   S54       1.0  0.33119  0.28377  0.80746  1.0000
  Fe  Fe32      1.0  0.41148  0.21213  0.85467  1.0000
  S   S55       1.0  0.40251  0.16936  0.88291  1.0000
  S   S56       1.0  0.42973  0.27737  0.79954  1.0000
  H   H415      1.0  0.20189  0.18426  0.94087  1.0000
  C   C227      1.0  0.08066  0.28799  0.94708  1.0000
  Fe  Fe33      1.0  0.20574  0.06898  0.98070  1.0000
  S   S57       1.0  0.22626  0.01784  0.97361  1.0000
  C   C228      1.0  0.25103  0.06561  0.85409  1.0000
  Fe  Fe34      1.0  0.24586  0.09888  0.93480  1.0000
  S   S58       1.0  0.26914  0.05026  0.92471  1.0000
  S   S59       1.0  0.25256  0.14493  0.90950  1.0000
  Fe  Fe35      1.0  0.21770  0.02952  0.92870  1.0000
  Fe  Fe36      1.0  0.27564  0.04418  0.97059  1.0000
  S   S60       1.0  0.19491  0.07864  0.93668  1.0000
  C   C229      1.0  0.40561  0.06281  0.94116  1.0000
  C   C230      1.0  0.29384  0.15113  0.90038  1.0000
  C   C231      1.0  0.30333  0.17978  0.88630  1.0000
  C   C232      1.0  0.33668  0.18533  0.88010  1.0000
  C   C233      1.0  0.36037  0.16206  0.88781  1.0000
  C   C234      1.0  0.35056  0.13292  0.90074  1.0000
  C   C235      1.0  0.31752  0.12766  0.90741  1.0000
  H   H416      1.0  0.28503  0.19796  0.88069  1.0000
  H   H417      1.0  0.34403  0.20785  0.86987  1.0000
  H   H418      1.0  0.36863  0.11452  0.90589  1.0000
  H   H419      1.0  0.31050  0.10558  0.91829  1.0000
  H   H420      1.0  0.99751  0.15896  0.73463  1.0000
  C   C236      1.0  0.42937  0.07330  0.77019  1.0000
  C   C237      1.0  0.43312  0.13463  0.70759  1.0000
  H   H421      1.0  0.10019  0.44458  0.75209  1.0000
  H   H422      1.0  0.41856  0.17708  0.73192  1.0000
  C   C238      1.0  0.35390  0.06376  0.84110  1.0000
  H   H423      1.0  0.30571  0.45315  0.78324  1.0000
  H   H424      1.0  0.45447  0.07584  0.77886  1.0000
  C   C239      1.0  0.13181  0.02611  0.88832  1.0000
  C   C240      1.0  0.10166  0.03105  0.87450  1.0000
  H   H425      1.0  0.13604  0.03775  0.90792  1.0000
  H   H426      1.0  0.08310  0.04674  0.88363  1.0000
  C   C241      1.0  0.29066  0.43404  0.79370  1.0000
  C   C242      1.0  0.12377  0.46701  0.70208  1.0000
  H   H427      1.0  0.15076  0.42149  0.73713  1.0000
  H   H428      1.0  0.43181  0.34023  0.77020  1.0000
  H   H429      1.0  0.05485  0.14678  0.69467  1.0000
  C   C243      1.0  0.39955  0.20509  0.96967  1.0000
  H   H430      1.0  0.35058  0.06260  0.88561  1.0000
  H   H431      1.0  0.01166  0.20595  0.00553  1.0000
  C   C244      1.0  0.34335  0.43177  0.96503  1.0000
  H   H432      1.0  0.31691  0.43727  0.83178  1.0000
  C   C245      1.0  0.08215  0.30820  0.92073  1.0000
  H   H433      1.0  0.07379  0.37708  0.98127  1.0000
  C   C246      1.0  0.32003  0.34280  0.72861  1.0000
  C   C247      1.0  0.29546  0.34393  0.74861  1.0000
  C   C248      1.0  0.29890  0.32529  0.77264  1.0000
  C   C249      1.0  0.32722  0.30621  0.77697  1.0000
  C   C250      1.0  0.35205  0.30562  0.75718  1.0000
  C   C251      1.0  0.34830  0.32367  0.73291  1.0000
  H   H434      1.0  0.27355  0.35858  0.74530  1.0000
  H   H435      1.0  0.27966  0.32578  0.78795  1.0000
  H   H436      1.0  0.37379  0.29070  0.76030  1.0000
  H   H437      1.0  0.36713  0.32250  0.71732  1.0000
  H   H438      1.0  0.36295  0.42049  0.69267  1.0000
  C   C252      1.0  0.35458  0.15551  0.99404  1.0000
  C   C253      1.0  0.09523  0.01596  0.84907  1.0000
  S   S61       1.0  0.01868  0.09228  0.71744  1.0000
  H   H439      1.0  0.45582  0.36281  0.79526  1.0000
  C   C254      1.0  0.38516  0.43318  0.68428  1.0000
  H   H440      1.0  0.39938  0.22480  0.92810  1.0000
  C   C255      1.0  0.02453  0.37866  0.96503  1.0000
  C   C256      1.0  0.46564  0.34959  0.89105  1.0000
  H   H441      1.0  0.42536  0.05563  0.92661  1.0000
  H   H442      1.0  0.03404  0.42153  0.72686  1.0000
  H   H443      1.0  0.03326  0.44155  0.77602  1.0000
  C   C257      1.0  0.36422  0.42257  0.99048  1.0000
  H   H444      1.0  0.44893  0.10581  0.85370  1.0000
  H   H445      1.0  0.37121  0.02723  0.87067  1.0000
  C   C258      1.0  0.07985  0.32846  0.67951  1.0000
  H   H446      1.0  0.42581  0.32092  0.90762  1.0000
  H   H447      1.0  0.45045  0.37913  0.76129  1.0000
  H   H448      1.0  0.31909  0.13806  0.76371  1.0000
  N   N14       1.0  0.16577  0.10564  0.83647  1.0000
  C   C259      1.0  0.19274  0.08832  0.85220  1.0000
  C   C260      1.0  0.13648  0.11280  0.85480  1.0000
  C   C261      1.0  0.15444  0.08231  0.81419  1.0000
  C   C262      1.0  0.17793  0.13698  0.82314  1.0000
  C   C263      1.0  0.19497  0.16235  0.84218  1.0000
  C   C264      1.0  0.12390  0.09354  0.79743  1.0000
  C   C265      1.0  0.14330  0.11939  0.88550  1.0000
  C   C266      1.0  0.11226  0.13090  0.90039  1.0000
  C   C267      1.0  0.20924  0.19118  0.82582  1.0000
  H   H449      1.0  0.40584  0.04517  0.95847  1.0000
  H   H450      1.0  0.18294  0.06528  0.86157  1.0000
  H   H451      1.0  0.20133  0.10332  0.86981  1.0000
  H   H452      1.0  0.12184  0.13386  0.84664  1.0000
  H   H453      1.0  0.11919  0.09142  0.85489  1.0000
  H   H454      1.0  0.14861  0.05764  0.82315  1.0000
  H   H455      1.0  0.19503  0.13115  0.80601  1.0000
  H   H456      1.0  0.15718  0.15036  0.81330  1.0000
  H   H457      1.0  0.21567  0.15119  0.85367  1.0000
  H   H458      1.0  0.17689  0.17284  0.85677  1.0000
  H   H459      1.0  0.12928  0.11653  0.78593  1.0000
  H   H460      1.0  0.10224  0.09800  0.81076  1.0000
  H   H461      1.0  0.15110  0.09597  0.89522  1.0000
  H   H462      1.0  0.16285  0.13800  0.88884  1.0000
  H   H463      1.0  0.10427  0.15539  0.89261  1.0000
  H   H464      1.0  0.09205  0.11267  0.89761  1.0000
  H   H465      1.0  0.11739  0.13300  0.92261  1.0000
  H   H466      1.0  0.22092  0.20915  0.84002  1.0000
  H   H467      1.0  0.22840  0.18227  0.81135  1.0000
  H   H468      1.0  0.18959  0.20413  0.81425  1.0000
  C   C268      1.0  0.37149  0.13302  0.77264  1.0000
  C   C269      1.0  0.99381  0.36295  0.96544  1.0000
  H   H469      1.0  0.42445  0.09590  0.75827  1.0000
  H   H470      1.0  0.34555  0.16583  0.74500  1.0000
  H   H471      1.0  0.33715  0.17352  0.78059  1.0000
  H   H472      1.0  0.36010  0.11154  0.95553  1.0000
  N   N15       1.0  0.10068  0.23346  0.96944  1.0000
  C   C270      1.0  0.10161  0.25600  0.94482  1.0000
  C   C271      1.0  0.12313  0.20397  0.96528  1.0000
  C   C272      1.0  0.06567  0.22092  0.97207  1.0000
  H   H473      1.0  0.15288  0.39011  0.71212  1.0000
  H   H474      1.0  0.41566  0.25254  0.95359  1.0000
  H   H475      1.0  0.05438  0.28243  0.95114  1.0000
  H   H476      1.0  0.26834  0.44619  0.80216  1.0000
  S   S62       1.0  0.03910  0.00820  0.74985  1.0000
  H   H477      1.0  0.01054  0.46732  0.75264  1.0000
  C   C273      1.0  0.04980  0.36549  0.98155  1.0000
  H   H478      1.0  0.32711  0.03119  0.86850  1.0000
  H   H479      1.0  0.38152  0.06086  0.93057  1.0000
  H   H480      1.0  0.09351  0.24216  0.92628  1.0000
  C   C274      1.0  0.40128  0.45262  0.70818  1.0000
  C   C275      1.0  0.38630  0.08413  0.83969  1.0000
  H   H481      1.0  0.11048  0.18469  0.95285  1.0000
  H   H482      1.0  0.05581  0.21340  0.95173  1.0000
  H   H483      1.0  0.04908  0.24094  0.97954  1.0000
  C   C276      1.0  0.45885  0.38936  0.93912  1.0000
  C   C277      1.0  0.06043  0.19094  0.99139  1.0000
  H   H484      1.0  0.38064  0.05835  0.78368  1.0000
  H   H485      1.0  0.09012  0.30396  0.96375  1.0000
  C   C278      1.0  0.43003  0.04415  0.75027  1.0000
  C   C279      1.0  0.17908  0.18001  0.95289  1.0000
  H   H486      1.0  0.18439  0.35090  0.74142  1.0000
  H   H487      1.0  0.14958  0.46417  0.70910  1.0000
  C   C280      1.0  0.45736  0.11048  0.70225  1.0000
  C   C281      1.0  0.39728  0.16831  0.96079  1.0000
  C   C282      1.0  0.42477  0.11995  0.81545  1.0000
  H   H488      1.0  0.38508  0.44428  0.93887  1.0000
  H   H489      1.0  0.37631  0.09121  0.98402  1.0000
  C   C283      1.0  0.45248  0.33401  0.70440  1.0000
  H   H490      1.0  0.41318  0.04655  0.80547  1.0000
  H   H491      1.0  0.41695  0.14248  0.82681  1.0000
  H   H492      1.0  0.45952  0.07955  0.82538  1.0000
  N   N16       1.0  0.38715  0.14383  0.98263  1.0000
  H   H493      1.0  0.07069  0.31424  0.69738  1.0000
  H   H494      1.0  0.27255  0.05804  0.84159  1.0000
  H   H495      1.0  0.43497  0.09898  0.96264  1.0000
  H   H496      1.0  0.32164  0.41513  0.96362  1.0000
  H   H497      1.0  0.41114  0.13517  0.69519  1.0000
  H   H498      1.0  0.24228  0.04371  0.86568  1.0000
  C   C284      1.0  0.44162  0.34210  0.91066  1.0000
  H   H499      1.0  0.36873  0.02723  0.68717  1.0000
  C   C285      1.0  0.14311  0.26887  0.99641  1.0000
  C   C286      1.0  0.16653  0.46767  0.78192  1.0000
  S   S63       1.0  0.25470  0.09462  0.97992  1.0000
  H   H500      1.0  0.17250  0.34525  0.77663  1.0000
  C   C287      1.0  0.00928  0.14772  0.77624  1.0000
  S   S64       1.0  0.03296  0.41463  0.94461  1.0000
  H   H501      1.0  0.21793  0.05868  0.82069  1.0000
  C   C288      1.0  0.46562  0.15845  0.74476  1.0000
  H   H502      1.0  0.13409  0.06236  0.76190  1.0000
  H   H503      1.0  0.18613  0.17638  0.97461  1.0000
  Fe  Fe37      1.0  0.27996  0.47511  0.67837  1.0000
  C   C289      1.0  0.08497  0.42551  0.74176  1.0000
  S   S65       1.0  0.45137  0.08228  0.67433  1.0000
  H   H504      1.0  0.43714  0.39988  0.70569  1.0000
  H   H505      1.0  0.05045  0.48026  0.76430  1.0000
  C   C290      1.0  0.02384  0.18416  0.99603  1.0000
  H   H506      1.0  0.15137  0.21344  0.92785  1.0000
  S   S66       1.0  0.00147  0.44498  0.86780  1.0000
  H   H507      1.0  0.16716  0.15711  0.94522  1.0000
  H   H508      1.0  0.11502  0.98340  0.81839  1.0000
  Fe  Fe38      1.0  0.23048  0.45331  0.72505  1.0000
  S   S67       1.0  0.46265  0.22623  0.84224  1.0000
  H   H509      1.0  0.36819  0.39542  0.98836  1.0000
  C   C291      1.0  0.45440  0.10547  0.83141  1.0000
  C   C292      1.0  0.15617  0.20978  0.95003  1.0000
  C   C293      1.0  0.98827  0.16694  0.75496  1.0000
  H   H510      1.0  0.37214  0.40162  0.93664  1.0000
  H   H511      1.0  0.28263  0.41521  0.77853  1.0000
  H   H512      1.0  0.37414  0.11398  0.75647  1.0000
  H   H513      1.0  0.40988  0.44346  0.88890  1.0000
  H   H514      1.0  0.40614  0.06817  0.84814  1.0000
  H   H515      1.0  0.12704  0.38473  0.77160  1.0000
  C   C294      1.0  0.15612  0.00567  0.87707  1.0000
  H   H516      1.0  0.10958  0.47989  0.71823  1.0000
  H   H517      1.0  0.08501  0.43689  0.68400  1.0000
  H   H518      1.0  0.06712  0.33099  0.92316  1.0000
  H   H519      1.0  0.07210  0.29378  0.90330  1.0000
  H   H520      1.0  0.25905  0.08509  0.86867  1.0000
  C   C295      1.0  0.41458  0.22630  0.94696  1.0000
  C   C296      1.0  0.03299  0.14384  0.68230  1.0000
  C   C297      1.0  0.35069  0.04511  0.86814  1.0000
  N   N17       1.0  0.39588  0.09691  0.81172  1.0000
  H   H521      1.0  0.42191  0.16189  0.95234  1.0000
  H   H522      1.0  0.34503  0.10034  0.79853  1.0000
  C   C298      1.0  0.38223  0.11072  0.96893  1.0000
  H   H523      1.0  0.32799  0.03564  0.67429  1.0000
  Fe  Fe39      1.0  0.01189  0.45244  0.91317  1.0000
  H   H524      1.0  0.41493  0.20787  0.98826  1.0000
  H   H525      1.0  0.05406  0.14700  0.75161  1.0000
  H   H526      1.0  0.12866  0.19208  0.98534  1.0000
  H   H527      1.0  0.38900  0.43409  0.98819  1.0000
  H   H528      1.0  0.41968  0.35559  0.94939  1.0000
  H   H529      1.0  0.39309  0.14964  0.77242  1.0000
  H   H530      1.0  0.33425  0.45748  0.96572  1.0000
  H   H531      1.0  0.17439  0.07794  0.79903  1.0000
  C   C299      1.0  0.08459  0.37983  0.70896  1.0000
  C   C300      1.0  0.43712  0.15833  0.72865  1.0000
  H   H532      1.0  0.42325  0.46688  0.85928  1.0000
  S   S68       1.0  0.28590  0.45045  0.71942  1.0000
  C   C301      1.0  0.42569  0.44306  0.87036  1.0000
  H   H533      1.0  0.07596  0.36468  0.72655  1.0000
  H   H534      1.0  0.33689  0.15978  0.97692  1.0000
  N   N18       1.0  0.36561  0.38804  0.82683  1.0000
  C   C302      1.0  0.39070  0.36692  0.81214  1.0000
  C   C303      1.0  0.34722  0.36688  0.84718  1.0000
  C   C304      1.0  0.34100  0.39970  0.80573  1.0000
  C   C305      1.0  0.38066  0.41789  0.84070  1.0000
  C   C306      1.0  0.41630  0.41408  0.85188  1.0000
  C   C307      1.0  0.40714  0.38344  0.78691  1.0000
  C   C308      1.0  0.31007  0.41781  0.81683  1.0000
  C   C309      1.0  0.36755  0.35175  0.87076  1.0000
  C   C310      1.0  0.34636  0.32846  0.88801  1.0000
  H   H535      1.0  0.42621  0.46153  0.70259  1.0000
  H   H536      1.0  0.00598  0.12072  0.77391  1.0000
  H   H537      1.0  0.37908  0.34357  0.80482  1.0000
  H   H538      1.0  0.41039  0.35843  0.82617  1.0000
  H   H539      1.0  0.32769  0.38140  0.85760  1.0000
  H   H540      1.0  0.33438  0.34638  0.83627  1.0000
  H   H541      1.0  0.33218  0.37845  0.79325  1.0000
  H   H542      1.0  0.35289  0.41695  0.79101  1.0000
  H   H543      1.0  0.38154  0.43938  0.82648  1.0000
  H   H544      1.0  0.36462  0.42619  0.85788  1.0000
  H   H545      1.0  0.43428  0.41334  0.83480  1.0000
  H   H546      1.0  0.41969  0.39114  0.86373  1.0000
  H   H547      1.0  0.38984  0.38315  0.76929  1.0000
  H   H548      1.0  0.41371  0.40953  0.79120  1.0000
  H   H549      1.0  0.29313  0.39996  0.82684  1.0000
  H   H550      1.0  0.38885  0.33746  0.86305  1.0000
  H   H551      1.0  0.37634  0.37153  0.88468  1.0000
  H   H552      1.0  0.32561  0.34212  0.89756  1.0000
  H   H553      1.0  0.33635  0.30811  0.87518  1.0000
  H   H554      1.0  0.36157  0.31740  0.90449  1.0000
  H   H555      1.0  0.12696  0.26419  0.93998  1.0000
  H   H556      1.0  0.43999  0.21797  0.94209  1.0000
  H   H557      1.0  0.17197  0.43463  0.81618  1.0000
  H   H558      1.0  0.10788  0.31566  0.91612  1.0000
  H   H559      1.0  0.37987  0.16723  0.94327  1.0000
  C   C311      1.0  0.01075  0.11811  0.68841  1.0000
  C   C312      1.0  0.22381  0.07863  0.83550  1.0000
  C   C313      1.0  0.43822  0.36519  0.77798  1.0000
  H   H560      1.0  0.05401  0.45954  0.71731  1.0000
  C   C314      1.0  0.34141  0.15382  0.76514  1.0000
  H   H561      1.0  0.35524  0.47521  0.72156  1.0000
  C   C315      1.0  0.36701  0.11644  0.80089  1.0000
  H   H562      1.0  0.08970  0.27008  0.00054  1.0000
  H   H563      1.0  0.23403  0.10010  0.82429  1.0000
  C   C316      1.0  0.04595  0.15478  0.77236  1.0000
  H   H564      1.0  0.01146  0.17830  0.97638  1.0000
  H   H565      1.0  0.30113  0.44197  0.00342  1.0000
  H   H566      1.0  0.43520  0.02067  0.76121  1.0000
  C   C317      1.0  0.10257  0.35648  0.68868  1.0000
  C   C318      1.0  0.15629  0.45286  0.80663  1.0000
  C   C319      1.0  0.41146  0.09814  0.95120  1.0000
  C   C320      1.0  0.10911  0.25157  0.99555  1.0000
  S   S69       1.0  0.20595  0.45691  0.76773  1.0000
  Fe  Fe40      1.0  0.47560  0.45766  0.99321  1.0000
  H   H567      1.0  0.07957  0.40719  0.75812  1.0000
  C   C321      1.0  0.40363  0.06777  0.79332  1.0000
  H   H568      1.0  0.11881  0.44984  0.83825  1.0000
  H   H569      1.0  0.12454  0.34500  0.69820  1.0000
  H   H570      1.0  0.38374  0.10507  0.85436  1.0000
  C   C322      1.0  0.04443  0.33748  0.99835  1.0000
  H   H571      1.0  0.40331  0.43645  0.72647  1.0000
  H   H572      1.0  0.10737  0.04369  0.78721  1.0000
  H   H573      1.0  0.09187  0.07560  0.76511  1.0000
  N   N19       1.0  0.10389  0.40944  0.71875  1.0000
  S   S70       1.0  0.32876  0.03430  0.98645  1.0000
  H   H574      1.0  0.43017  0.32354  0.71431  1.0000
  C   C323      1.0  0.13768  0.37384  0.75270  1.0000
  H   H575      1.0  0.45165  0.44028  0.87705  1.0000
  H   H576      1.0  0.06172  0.38804  0.69847  1.0000
  C   C324      1.0  0.17282  0.36308  0.75939  1.0000
  C   C325      1.0  0.11385  0.06714  0.77666  1.0000
  C   C326      1.0  0.42136  0.38593  0.69114  1.0000
  H   H577      1.0  0.46752  0.31317  0.69645  1.0000
  H   H578      1.0  0.41456  0.11369  0.93271  1.0000
  C   C327      1.0  0.03552  0.45849  0.75823  1.0000
  C   C328      1.0  0.10863  0.43280  0.69499  1.0000
  H   H579      1.0  0.12355  0.35133  0.74735  1.0000
  C   C329      1.0  0.13736  0.39954  0.72918  1.0000
  H   H580      1.0  0.16258  0.25012  0.00013  1.0000
  H   H581      1.0  0.18796  0.38473  0.76552  1.0000
  S   S71       1.0  0.19498  0.99909  0.89358  1.0000
  S   S72       1.0  0.45326  0.41314  0.96977  1.0000
  H   H582      1.0  0.35260  0.04542  0.82425  1.0000
  C   C330      1.0  0.05135  0.44099  0.73383  1.0000
  H   H583      1.0  0.40618  0.04207  0.73931  1.0000
  H   H584      1.0  0.07142  0.16809  0.98270  1.0000
  H   H585      1.0  0.40090  0.37517  0.70356  1.0000
  H   H586      1.0  0.16956  0.23170  0.95759  1.0000
  C   C331      1.0  0.36338  0.42753  0.93874  1.0000
  H   H587      1.0  0.12522  0.42158  0.67941  1.0000
  H   H588      1.0  0.14870  0.28234  0.97729  1.0000
  H   H589      1.0  0.04189  0.46430  0.99599  1.0000
  H   H590      1.0  0.06034  0.14054  0.78763  1.0000
  C   C332      1.0  0.12609  0.46153  0.81930  1.0000
  H   H591      1.0  0.43809  0.14843  0.99561  1.0000
  C   C333      1.0  0.14958  0.99023  0.85178  1.0000
  S   S73       1.0  0.47065  0.32602  0.86022  1.0000
  H   H592      1.0  0.46729  0.34744  0.71991  1.0000
  S   S74       1.0  0.98758  0.05183  0.78671  1.0000
  C   C334      1.0  0.44307  0.35702  0.68087  1.0000
  H   H593      1.0  0.44968  0.04800  0.73478  1.0000
  C   C335      1.0  0.98855  0.33472  0.98204  1.0000
  C   C336      1.0  0.41339  0.14315  0.00456  1.0000
  C   C337      1.0  0.01367  0.32186  0.99882  1.0000
  H   H594      1.0  0.39609  0.04038  0.00414  1.0000
  H   H595      1.0  0.28816  0.15166  0.00537  1.0000
  H   H596      1.0  0.35752  0.17965  0.00463  1.0000
  H   H597      1.0  0.33264  0.10779  0.00664  1.0000
  H   H598      1.0  0.45741  0.55666  0.10893  1.0000
  H   H599      1.0  0.10043  0.79211  0.11457  1.0000
  H   H600      1.0  0.46141  0.55445  0.14558  1.0000
  S   S75       1.0  0.25487  0.48666  0.23600  1.0000
  H   H601      1.0  0.02602  0.83776  0.14747  1.0000
  H   H602      1.0  0.04309  0.79027  0.07354  1.0000
  S   S76       1.0  0.07426  0.96787  0.30853  1.0000
  H   H603      1.0  0.46350  0.88596  0.05763  1.0000
  C   C338      1.0  0.33723  0.48328  0.33900  1.0000
  H   H604      1.0  0.04586  0.76700  0.10473  1.0000
  S   S77       1.0  0.15601  0.49657  0.24832  1.0000
  H   H605      1.0  0.42584  0.86534  0.09867  1.0000
  H   H606      1.0  0.02083  0.67472  0.13901  1.0000
  H   H607      1.0  0.45304  0.96416  0.05920  1.0000
  H   H608      1.0  0.00542  0.70621  0.02142  1.0000
  C   C339      1.0  0.03196  0.71166  0.07490  1.0000
  H   H609      1.0  0.00003  0.71074  0.12602  1.0000
  H   H610      1.0  0.99728  0.91667  0.11920  1.0000
  H   H611      1.0  0.33814  0.52826  0.04376  1.0000
  C   C340      1.0  0.46842  0.75742  0.24718  1.0000
  C   C341      1.0  0.10436  0.51184  0.28315  1.0000
  C   C342      1.0  0.08472  0.50889  0.30695  1.0000
  H   H612      1.0  0.09689  0.52868  0.26715  1.0000
  H   H613      1.0  0.06260  0.52353  0.30915  1.0000
  H   H614      1.0  0.37303  0.53292  0.08980  1.0000
  H   H615      1.0  0.32508  0.54190  0.12063  1.0000
  N   N20       1.0  0.05957  0.72467  0.05728  1.0000
  H   H616      1.0  0.01760  0.69263  0.06367  1.0000
  C   C343      1.0  0.36442  0.51304  0.10274  1.0000
  C   C344      1.0  0.02703  0.71819  0.01180  1.0000
  H   H617      1.0  0.99766  0.81910  0.04058  1.0000
  H   H618      1.0  0.39485  0.89368  0.11087  1.0000
  H   H619      1.0  0.05930  0.71110  0.11418  1.0000
  H   H620      1.0  0.02676  0.76023  0.03874  1.0000
  C   C345      1.0  0.04257  0.69512  0.10214  1.0000
  S   S78       1.0  0.29111  0.50105  0.15967  1.0000
  H   H621      1.0  0.01966  0.88384  0.18079  1.0000
  S   S79       1.0  0.98489  0.94011  0.28048  1.0000
  C   C346      1.0  0.98495  0.93914  0.11106  1.0000
  C   C347      1.0  0.32558  0.49281  0.13771  1.0000
  H   H622      1.0  0.00420  0.95723  0.10505  1.0000
  C   C348      1.0  0.99810  0.87236  0.17196  1.0000
  H   H623      1.0  0.47887  0.82664  0.14174  1.0000
  C   C349      1.0  0.06032  0.77746  0.08753  1.0000
  C   C350      1.0  0.41983  0.94005  0.01602  1.0000
  H   H624      1.0  0.04557  0.49175  0.02517  1.0000
  N   N21       1.0  0.44969  0.92461  0.02932  1.0000
  H   H625      1.0  0.37920  0.53019  0.02954  1.0000
  H   H626      1.0  0.46870  0.91946  0.22960  1.0000
  H   H627      1.0  0.99765  0.94188  0.33914  1.0000
  H   H628      1.0  0.06897  0.49551  0.18345  1.0000
  H   H629      1.0  0.46287  0.88449  0.27124  1.0000
  H   H630      1.0  0.01394  0.73160  0.07958  1.0000
  H   H631      1.0  0.38776  0.87076  0.07982  1.0000
  C   C351      1.0  0.33719  0.51808  0.12033  1.0000
  H   H632      1.0  0.37703  0.91246  0.03162  1.0000
  H   H633      1.0  0.13859  0.95692  0.33127  1.0000
  C   C352      1.0  0.42247  0.91162  0.07600  1.0000
  H   H634      1.0  0.00080  0.88399  0.32318  1.0000
  H   H635      1.0  0.09613  0.73773  0.08786  1.0000
  H   H636      1.0  0.10519  0.50868  0.20207  1.0000
  Fe  Fe41      1.0  0.98041  0.95410  0.23603  1.0000
  H   H637      1.0  0.45942  0.77443  0.26342  1.0000
  H   H638      1.0  0.09398  0.68591  0.06761  1.0000
  H   H639      1.0  0.99363  0.85831  0.02344  1.0000
  H   H640      1.0  0.09717  0.76254  0.05823  1.0000
  C   C353      1.0  0.08332  0.80352  0.09960  1.0000
  H   H641      1.0  0.06853  0.82261  0.11039  1.0000
  C   C354      1.0  0.09519  0.48985  0.18773  1.0000
  C   C355      1.0  0.40683  0.88346  0.09224  1.0000
  H   H642      1.0  0.06647  0.67523  0.04111  1.0000
  C   C356      1.0  0.01274  0.68748  0.12008  1.0000
  C   C357      1.0  0.47231  0.90951  0.00818  1.0000
  H   H643      1.0  0.05528  0.67135  0.09798  1.0000
  C   C358      1.0  0.00162  0.84610  0.15296  1.0000
  H   H644      1.0  0.42559  0.87882  0.04114  1.0000
  Fe  Fe42      1.0  0.44964  0.49291  0.04582  1.0000
  C   C359      1.0  0.13339  0.49312  0.27974  1.0000
  H   H645      1.0  0.41077  0.96119  0.02844  1.0000
  C   C360      1.0  0.44083  0.89867  0.05026  1.0000
  C   C361      1.0  0.08143  0.69613  0.04926  1.0000
  H   H646      1.0  0.09771  0.81586  0.08320  1.0000
  H   H647      1.0  0.44001  0.92438  0.08986  1.0000
  C   C362      1.0  0.46893  0.95135  0.04394  1.0000
  C   C363      1.0  0.09420  0.48769  0.32813  1.0000
  H   H648      1.0  0.44940  0.75587  0.23095  1.0000
  C   C364      1.0  0.07994  0.74990  0.07252  1.0000
  H   H649      1.0  0.99527  0.67111  0.10903  1.0000
  H   H650      1.0  0.40289  0.92947  0.07048  1.0000
  H   H651      1.0  0.34502  0.54774  0.01111  1.0000
  H   H652      1.0  0.98025  0.91988  0.07045  1.0000
  H   H653      1.0  0.14074  0.66296  0.04002  1.0000
  C   C365      1.0  0.38058  0.48251  0.10220  1.0000
  C   C366      1.0  0.04495  0.74120  0.03243  1.0000
  Fe  Fe43      1.0  0.02592  0.97748  0.28469  1.0000
  C   C367      1.0  0.35271  0.52702  0.02454  1.0000
  C   C368      1.0  0.38917  0.91764  0.01175  1.0000
  H   H654      1.0  0.35381  0.49913  0.32656  1.0000
  H   H655      1.0  0.45610  0.49888  0.12392  1.0000
  H   H656      1.0  0.12635  0.72282  0.03697  1.0000
  C   C369      1.0  0.34682  0.49406  0.01000  1.0000
  H   H657      1.0  0.11295  0.65423  0.01196  1.0000
  C   C370      1.0  0.10910  0.70425  0.02841  1.0000
  S   S80       1.0  0.98025  0.79744  0.11707  1.0000
  H   H658      1.0  0.05723  0.48712  0.13110  1.0000
  C   C371      1.0  0.98336  0.89077  0.33977  1.0000
  C   C372      1.0  0.47377  0.54864  0.12588  1.0000
  H   H659      1.0  0.06411  0.75523  0.02101  1.0000
  H   H660      1.0  0.10932  0.49135  0.16832  1.0000
  C   C373      1.0  0.97979  0.83800  0.03352  1.0000
  C   C374      1.0  0.12901  0.67333  0.02139  1.0000
  H   H661      1.0  0.47205  0.73255  0.25631  1.0000
  H   H662      1.0  0.09899  0.71405  0.00900  1.0000
  H   H663      1.0  0.98239  0.76193  0.41544  1.0000
  C   C375      1.0  0.38516  0.50255  0.58454  1.0000
  C   C376      1.0  0.25829  0.50323  0.57804  1.0000
  C   C377      1.0  0.01632  0.96444  0.40072  1.0000
  H   H664      1.0  0.31997  0.49951  0.35043  1.0000
  H   H665      1.0  0.03806  0.66664  0.40497  1.0000
  S   S81       1.0  0.00964  0.49937  0.42100  1.0000
  C   C378      1.0  0.22405  0.59270  0.57736  1.0000
  C   C379      1.0  0.25103  0.53946  0.61790  1.0000
  H   H666      1.0  0.29077  0.58074  0.58679  1.0000
  S   S82       1.0  0.47511  0.94637  0.62125  1.0000
  H   H667      1.0  0.23216  0.55159  0.54965  1.0000
  C   C380      1.0  0.06639  0.93722  0.42175  1.0000
  H   H668      1.0  0.98363  0.76259  0.49020  1.0000
  H   H669      1.0  0.35336  0.56194  0.56083  1.0000
  H   H670      1.0  0.22355  0.57195  0.66327  1.0000
  C   C381      1.0  0.01195  0.65880  0.40670  1.0000
  H   H671      1.0  0.38235  0.54085  0.64685  1.0000
  H   H672      1.0  0.03046  0.77617  0.51933  1.0000
  H   H673      1.0  0.28339  0.56250  0.53662  1.0000
  H   H674      1.0  0.25910  0.50170  0.55531  1.0000
  C   C382      1.0  0.26424  0.56983  0.63407  1.0000
  C   C383      1.0  0.19848  0.60697  0.55773  1.0000
  C   C384      1.0  0.99572  0.92177  0.35440  1.0000
  H   H675      1.0  0.41588  0.53870  0.60422  1.0000
  C   C385      1.0  0.99703  0.76076  0.43466  1.0000
  H   H676      1.0  0.42649  0.48368  0.36117  1.0000
  H   H677      1.0  0.98446  0.82267  0.41010  1.0000
  H   H678      1.0  0.47560  0.85919  0.64424  1.0000
  H   H679      1.0  0.26315  0.51780  0.62779  1.0000
  C   C386      1.0  0.39463  0.52280  0.60643  1.0000
  C   C387      1.0  0.99267  0.73840  0.48259  1.0000
  H   H680      1.0  0.16669  0.97571  0.37367  1.0000
  H   H681      1.0  0.46363  0.66430  0.42696  1.0000
  C   C388      1.0  0.25085  0.57054  0.66328  1.0000
  C   C389      1.0  0.00009  0.70101  0.44394  1.0000
  C   C390      1.0  0.02895  0.93557  0.41871  1.0000
  H   H682      1.0  0.01807  0.93706  0.43951  1.0000
  H   H683      1.0  0.09870  0.49449  0.66988  1.0000
  H   H684      1.0  0.24698  0.60709  0.57456  1.0000
  C   C391      1.0  0.03728  0.74961  0.51811  1.0000
  S   S83       1.0  0.40441  0.50468  0.55159  1.0000
  C   C392      1.0  0.22931  0.55538  0.57207  1.0000
  S   S84       1.0  0.07143  0.48400  0.35941  1.0000
  S   S85       1.0  0.46602  0.50246  0.48969  1.0000
  H   H685      1.0  0.19453  0.63357  0.56236  1.0000
  C   C393      1.0  0.30191  0.55208  0.55083  1.0000
  H   H686      1.0  0.34290  0.56796  0.52547  1.0000
  C   C394      1.0  0.98729  0.60557  0.48120  1.0000
  N   N22       1.0  0.98437  0.73324  0.45279  1.0000
  C   C395      1.0  0.33398  0.57125  0.54679  1.0000
  H   H687      1.0  0.02840  0.81712  0.41465  1.0000
  C   C396      1.0  0.33844  0.48312  0.61233  1.0000
  H   H688      1.0  0.01355  0.62153  0.51733  1.0000
  S   S86       1.0  0.98624  0.54168  0.36763  1.0000
  H   H689      1.0  0.44414  0.82967  0.65329  1.0000
  Fe  Fe44      1.0  0.01954  0.49801  0.37513  1.0000
  H   H690      1.0  0.07860  0.93475  0.40148  1.0000
  H   H691      1.0  0.03196  0.96583  0.38210  1.0000
  H   H692      1.0  0.02084  0.91630  0.36202  1.0000
  H   H693      1.0  0.22425  0.53669  0.62234  1.0000
  H   H694      1.0  0.00489  0.58645  0.47609  1.0000
  H   H695      1.0  0.28135  0.49147  0.58519  1.0000
  H   H696      1.0  0.17456  0.59390  0.55997  1.0000
  H   H697      1.0  0.07503  0.91677  0.43507  1.0000
  S   S87       1.0  0.32157  0.50927  0.66336  1.0000
  S   S88       1.0  0.38160  0.98029  0.60012  1.0000
  H   H698      1.0  0.04521  0.74902  0.47460  1.0000
  H   H699      1.0  0.02274  0.91113  0.40987  1.0000
  H   H700      1.0  0.03741  0.70929  0.48984  1.0000
  H   H701      1.0  0.02740  0.70329  0.44382  1.0000
  Fe  Fe45      1.0  0.45799  0.50817  0.53552  1.0000
  H   H702      1.0  0.99236  0.70748  0.39958  1.0000
  H   H703      1.0  0.07400  0.96107  0.43114  1.0000
  H   H704      1.0  0.29152  0.56860  0.63543  1.0000
  C   C397      1.0  0.02981  0.73570  0.48975  1.0000
  H   H705      1.0  0.02266  0.75554  0.42777  1.0000
  H   H706      1.0  0.20563  0.48932  0.57883  1.0000
  H   H707      1.0  0.06400  0.74727  0.52243  1.0000
  H   H708      1.0  0.33014  0.59805  0.55059  1.0000
  N   N23       1.0  0.25706  0.53888  0.58733  1.0000
  H   H709      1.0  0.43282  0.49650  0.41063  1.0000
  C   C398      1.0  0.99017  0.68784  0.41531  1.0000
  H   H710      1.0  0.21440  0.59649  0.59837  1.0000
  H   H711      1.0  0.30698  0.52601  0.54506  1.0000
  H   H712      1.0  0.25794  0.59361  0.62433  1.0000
  H   H713      1.0  0.30947  0.54243  0.59369  1.0000
  H   H714      1.0  0.20708  0.60480  0.53622  1.0000
  C   C399      1.0  0.29008  0.55429  0.58094  1.0000
  H   H715      1.0  0.46939  0.50658  0.39151  1.0000
  C   C400      1.0  0.37540  0.52408  0.63061  1.0000
  H   H716      1.0  0.00386  0.64926  0.38650  1.0000
  C   C401      1.0  0.34694  0.50452  0.63364  1.0000
  C   C402      1.0  0.99812  0.79610  0.44721  1.0000
  H   H717      1.0  0.01007  0.63834  0.42179  1.0000
  C   C403      1.0  0.46619  0.84303  0.66087  1.0000
  H   H718      1.0  0.20548  0.54343  0.57728  1.0000
  H   H719      1.0  0.99444  0.68106  0.45897  1.0000
  H   H720      1.0  0.01820  0.79783  0.46251  1.0000
  C   C404      1.0  0.00476  0.82222  0.42530  1.0000
  N   N24       1.0  0.98046  0.96328  0.39290  1.0000
  H   H721      1.0  0.02362  0.73554  0.53398  1.0000
  C   C405      1.0  0.45358  0.48591  0.39867  1.0000
  H   H722      1.0  0.47413  0.61507  0.45618  1.0000
  C   C406      1.0  0.12586  0.97333  0.34520  1.0000
  H   H723      1.0  0.00636  0.84701  0.43501  1.0000
  C   C407      1.0  0.99214  0.62556  0.50463  1.0000
  C   C408      1.0  0.35689  0.48273  0.58778  1.0000
  H   H724      1.0  0.98154  0.86970  0.35424  1.0000
  C   C409      1.0  0.01463  0.73776  0.98714  1.0000
  C   C410      1.0  0.45618  0.74587  0.73215  1.0000
  H   H725      1.0  0.04344  0.69849  0.00391  1.0000
  H   H726      1.0  0.47950  0.92819  0.99263  1.0000
  H   H727      1.0  0.45240  0.74989  0.77654  1.0000
  C   C411      1.0  0.12414  0.48980  0.67718  1.0000
  H   H728      1.0  0.99024  0.55566  0.98527  1.0000
  C   C412      1.0  0.36370  0.93454  0.99353  1.0000
  H   H729      1.0  0.32007  0.49214  0.00606  1.0000
  C   C413      1.0  0.99275  0.89108  0.69659  1.0000
  H   H730      1.0  0.42669  0.95105  0.99593  1.0000
  S   S89       1.0  0.22531  0.48340  0.68629  1.0000
  C   C414      1.0  0.11596  0.50048  0.78299  1.0000
  Fe  Fe46      1.0  0.00055  0.52816  0.90990  1.0000
  H   H731      1.0  0.25876  0.54814  0.67459  1.0000
  H   H732      1.0  0.13556  0.51380  0.68282  1.0000
  Fe  Fe47      1.0  0.03425  0.48960  0.86105  1.0000
  H   H733      1.0  0.45581  0.60761  0.88812  1.0000
  H   H734      1.0  0.98640  0.56480  0.79654  1.0000
  H   H735      1.0  0.01569  0.86999  0.76726  1.0000
  H   H736      1.0  0.36035  0.49502  0.99027  1.0000
  H   H737      1.0  0.46167  0.60967  0.82374  1.0000
  H   H738      1.0  0.98879  0.54316  0.76411  1.0000
  H   H739      1.0  0.45677  0.78795  0.68934  1.0000
  H   H740      1.0  0.47625  0.73614  0.67768  1.0000
  H   H741      1.0  0.03548  0.74966  0.97622  1.0000
  H   H742      1.0  0.43928  0.88915  0.97710  1.0000
  H   H743      1.0  0.43728  0.86216  0.76907  1.0000
  S   S90       1.0  0.99225  0.58034  0.92829  1.0000
  H   H744      1.0  0.39188  0.49484  0.73451  1.0000
  H   H745      1.0  0.38009  0.50092  0.69941  1.0000
  H   H746      1.0  0.44446  0.90184  0.73061  1.0000
  H   H747      1.0  0.34182  0.91833  0.99117  1.0000
  H   H748      1.0  0.10072  0.51936  0.77383  1.0000
  H   H749      1.0  0.47514  0.84437  0.96108  1.0000
  H   H750      1.0  0.45123  0.72641  0.71674  1.0000
  C   C415      1.0  0.45866  0.88022  0.99124  1.0000
  C   C416      1.0  0.44800  0.73135  0.76017  1.0000
  S   S91       1.0  0.99163  0.52538  0.86441  1.0000
  H   H751      1.0  0.03363  0.86025  0.70781  1.0000
  S   S92       1.0  0.98718  0.97102  0.79085  1.0000
  H   H752      1.0  0.42165  0.72410  0.76086  1.0000
  H   H753      1.0  0.99679  0.75705  0.99365  1.0000
  H   H754      1.0  0.46314  0.70901  0.76414  1.0000
  H   H755      1.0  0.00202  0.72082  0.97266  1.0000
  Fe  Fe48      1.0  0.99788  0.97072  0.74529  1.0000
  H   H756      1.0  0.47784  0.81531  0.71174  1.0000
  H   H757      1.0  0.43902  0.76683  0.72879  1.0000
  H   H758      1.0  0.46045  0.57374  0.93045  1.0000
  S   S93       1.0  0.44099  0.50052  0.00038  1.0000
  H   H759      1.0  0.99504  0.83836  0.74745  1.0000
  C   C417      1.0  0.46502  0.88696  0.73734  1.0000
  S   S94       1.0  0.04606  0.49622  0.90595  1.0000
  C   C418      1.0  0.47546  0.59561  0.92798  1.0000
  H   H760      1.0  0.16801  0.97420  0.84286  1.0000
  C   C419      1.0  0.01232  0.86266  0.69472  1.0000
  C   C420      1.0  0.98411  0.59932  0.96075  1.0000
  C   C421      1.0  0.14601  0.49158  0.77019  1.0000
  C   C422      1.0  0.47287  0.61497  0.90396  1.0000
  S   S95       1.0  0.00426  0.92159  0.72160  1.0000
  C   C423      1.0  0.46104  0.86436  0.75921  1.0000
  S   S96       1.0  0.06694  0.49781  0.82253  1.0000
  C   C424      1.0  0.98447  0.58176  0.98544  1.0000
  H   H761      1.0  0.46800  0.60304  0.78761  1.0000
  C   C425      1.0  0.38077  0.48268  0.71638  1.0000
  H   H762      1.0  0.01337  0.82819  0.77987  1.0000
  C   C426      1.0  0.10564  0.48559  0.80767  1.0000
  H   H763      1.0  0.15371  0.50394  0.75167  1.0000
  C   C427      1.0  0.99986  0.84761  0.76845  1.0000
  H   H764      1.0  0.37405  0.93956  0.97292  1.0000
  H   H765      1.0  0.02060  0.81560  0.67530  1.0000
  H   H766      1.0  0.45893  0.85908  0.67831  1.0000
  C   C428      1.0  0.00489  0.83717  0.67616  1.0000
  H   H767      1.0  0.26068  0.59250  0.67419  1.0000
  H   H768      1.0  0.39533  0.89357  0.00241  1.0000
  H   H769      1.0  0.44863  0.86029  0.00434  1.0000
  H   H770      1.0  0.35549  0.95818  0.00284  1.0000
  H   H771      1.0  0.00747  0.48933  0.00642  1.0000
  H   H772      1.0  0.14871  0.67975  0.00653  1.0000
  C   C429      1.0  0.58396  0.46406  0.19889  1.0000
  C   C430      1.0  0.51610  0.40889  0.11939  1.0000
  H   H773      1.0  0.58049  0.43870  0.20710  1.0000
  H   H774      1.0  0.51978  0.36888  0.08993  1.0000
  C   C431      1.0  0.74951  0.07446  0.05934  1.0000
  H   H775      1.0  0.52034  0.11265  0.27961  1.0000
  N   N25       1.0  0.72655  0.05801  0.03931  1.0000
  C   C432      1.0  0.63571  0.00368  0.25747  1.0000
  N   N26       1.0  0.50895  0.46222  0.14846  1.0000
  H   H776      1.0  0.65394  0.47516  0.13607  1.0000
  C   C433      1.0  0.48351  0.14852  0.26847  1.0000
  H   H777      1.0  0.53265  0.47566  0.20207  1.0000
  H   H778      1.0  0.76829  0.05766  0.01132  1.0000
  H   H779      1.0  0.49855  0.39465  0.13216  1.0000
  H   H780      1.0  0.53108  0.40881  0.07655  1.0000
  H   H781      1.0  0.73350  0.46542  0.12087  1.0000
  H   H782      1.0  0.94453  0.36074  0.07566  1.0000
  C   C434      1.0  0.60029  0.99941  0.05921  1.0000
  S   S97       1.0  0.57830  0.99622  0.09103  1.0000
  H   H783      1.0  0.95991  0.33432  0.04857  1.0000
  H   H784      1.0  0.77459  0.06357  0.05764  1.0000
  H   H785      1.0  0.66457  0.04619  0.07058  1.0000
  H   H786      1.0  0.64841  0.98643  0.24335  1.0000
  C   C435      1.0  0.59858  0.00701  0.25054  1.0000
  C   C436      1.0  0.59350  0.02375  0.03964  1.0000
  H   H787      1.0  0.57366  0.04104  0.04323  1.0000
  H   H788      1.0  0.67952  0.03422  0.26051  1.0000
  H   H789      1.0  0.80088  0.11407  0.07818  1.0000
  H   H790      1.0  0.70517  0.00978  0.03373  1.0000
  C   C437      1.0  0.50834  0.44644  0.12044  1.0000
  H   H791      1.0  0.56218  0.46171  0.14471  1.0000
  H   H792      1.0  0.80790  0.46322  0.30380  1.0000
  C   C438      1.0  0.75493  0.00145  0.04828  1.0000
  H   H793      1.0  0.77951  0.15298  0.07594  1.0000
  Fe  Fe49      1.0  0.48996  0.04306  0.16184  1.0000
  C   C439      1.0  0.65308  0.03709  0.25529  1.0000
  H   H794      1.0  0.65132  0.04689  0.23411  1.0000
  C   C440      1.0  0.61331  0.02667  0.01587  1.0000
  C   C441      1.0  0.50101  0.10187  0.23936  1.0000
  H   H795      1.0  0.76997  0.00497  0.02961  1.0000
  C   C442      1.0  0.50307  0.12019  0.26401  1.0000
  Fe  Fe50      1.0  0.53048  0.00720  0.11555  1.0000
  H   H796      1.0  0.76640  0.11778  0.03645  1.0000
  H   H797      1.0  0.48819  0.39873  0.08242  1.0000
  C   C443      1.0  0.52307  0.00486  0.25863  1.0000
  S   S98       1.0  0.48786  0.17108  0.29991  1.0000
  H   H798      1.0  0.95712  0.31899  0.08305  1.0000
  H   H799      1.0  0.62813  0.09041  0.08488  1.0000
  H   H800      1.0  0.53468  0.02930  0.26210  1.0000
  C   C444      1.0  0.74090  0.05852  0.01064  1.0000
  H   H801      1.0  0.54155  0.40384  0.12642  1.0000
  S   S99       1.0  0.48307  0.44960  0.03830  1.0000
  C   C445      1.0  0.54284  0.45636  0.16034  1.0000
  H   H802      1.0  0.54598  0.42987  0.16589  1.0000
  H   H803      1.0  0.64198  0.05523  0.26969  1.0000
  H   H804      1.0  0.77017  0.00856  0.06618  1.0000
  H   H805      1.0  0.48423  0.44994  0.11021  1.0000
  S   S100      1.0  0.53506  0.01041  0.16167  1.0000
  H   H806      1.0  0.71213  0.02009  0.06855  1.0000
  H   H807      1.0  0.59623  0.01989  0.23049  1.0000
  C   C446      1.0  0.51360  0.39562  0.09024  1.0000
  C   C447      1.0  0.63977  0.00490  0.01082  1.0000
  H   H808      1.0  0.86072  0.47043  0.32883  1.0000
  C   C448      1.0  0.67331  0.07182  0.06680  1.0000
  H   H809      1.0  0.97895  0.10263  0.13696  1.0000
  C   C449      1.0  0.75415  0.11221  0.05618  1.0000
  S   S101      1.0  0.94442  0.99546  0.24525  1.0000
  H   H810      1.0  0.76491  0.12172  0.09921  1.0000
  C   C450      1.0  0.77622  0.12593  0.07881  1.0000
  H   H811      1.0  0.50967  0.02580  0.02979  1.0000
  H   H812      1.0  0.48503  0.45869  0.18793  1.0000
  H   H813      1.0  0.97785  0.06844  0.17925  1.0000
  H   H814      1.0  0.68852  0.07993  0.08435  1.0000
  H   H815      1.0  0.63911  0.99464  0.27869  1.0000
  C   C451      1.0  0.49939  0.00619  0.04318  1.0000
  H   H816      1.0  0.58825  0.02465  0.26576  1.0000
  H   H817      1.0  0.74169  0.06928  0.08072  1.0000
  H   H818      1.0  0.51677  0.08074  0.23612  1.0000
  C   C452      1.0  0.72280  0.02226  0.04769  1.0000
  H   H819      1.0  0.62819  0.45375  0.09351  1.0000
  H   H820      1.0  0.52644  0.45910  0.10688  1.0000
  C   C453      1.0  0.61836  0.47576  0.10309  1.0000
  H   H821      1.0  0.54619  0.99532  0.21997  1.0000
  C   C454      1.0  0.96264  0.34116  0.07047  1.0000
  C   C455      1.0  0.64280  0.09391  0.06591  1.0000
  C   C456      1.0  0.69271  0.07349  0.03948  1.0000
  H   H822      1.0  0.73041  0.12559  0.05742  1.0000
  C   C457      1.0  0.55204  0.47682  0.18617  1.0000
  C   C458      1.0  0.48409  0.44670  0.16751  1.0000
  H   H823      1.0  0.49047  0.42041  0.17152  1.0000
  H   H824      1.0  0.51975  0.99579  0.05560  1.0000
  H   H825      1.0  0.62704  0.08740  0.04817  1.0000
  H   H826      1.0  0.60408  0.46369  0.18349  1.0000
  S   S102      1.0  0.57244  0.47376  0.06156  1.0000
  H   H827      1.0  0.69373  0.09979  0.03321  1.0000
  H   H828      1.0  0.59159  0.48055  0.21591  1.0000
  H   H829      1.0  0.65000  0.12033  0.06440  1.0000
  H   H830      1.0  0.67704  0.06138  0.02376  1.0000
  S   S103      1.0  0.48829  0.04419  0.11527  1.0000
  H   H831      1.0  0.49252  0.02338  0.22522  1.0000
  H   H832      1.0  0.51852  0.99305  0.27874  1.0000
  C   C459      1.0  0.54487  0.98272  0.24011  1.0000
  C   C460      1.0  0.48959  0.01101  0.24538  1.0000
  H   H833      1.0  0.48103  0.01755  0.05711  1.0000
  H   H834      1.0  0.75205  0.47905  0.08930  1.0000
  Fe  Fe51      1.0  0.95016  0.98210  0.29001  1.0000
  H   H835      1.0  0.61937  0.98198  0.20175  1.0000
  C   C461      1.0  0.72779  0.00322  0.36471  1.0000
  S   S104      1.0  0.95887  0.41492  0.43474  1.0000
  H   H836      1.0  0.59335  0.01089  0.43405  1.0000
  H   H837      1.0  0.61661  0.00970  0.47837  1.0000
  N   N27       1.0  0.59471  0.39590  0.48334  1.0000
  H   H838      1.0  0.48835  0.42069  0.59950  1.0000
  H   H839      1.0  0.69488  0.36365  0.44099  1.0000
  C   C462      1.0  0.77370  0.44947  0.66239  1.0000
  C   C463      1.0  0.60244  0.44998  0.45517  1.0000
  H   H840      1.0  0.62852  0.44552  0.44946  1.0000
  H   H841      1.0  0.63810  0.38483  0.43918  1.0000
  H   H842      1.0  0.58984  0.34491  0.49646  1.0000
  Fe  Fe52      1.0  0.50036  0.46105  0.50045  1.0000
  H   H843      1.0  0.59930  0.43790  0.51093  1.0000
  H   H844      1.0  0.76356  0.47497  0.66462  1.0000
  H   H845      1.0  0.96834  0.32347  0.50077  1.0000
  C   C464      1.0  0.58506  0.41458  0.50897  1.0000
  H   H846      1.0  0.55732  0.42192  0.46070  1.0000
  C   C465      1.0  0.64688  0.37389  0.45860  1.0000
  H   H847      1.0  0.59108  0.34420  0.44248  1.0000
  H   H848      1.0  0.58714  0.40321  0.43961  1.0000
  C   C466      1.0  0.58658  0.47023  0.43232  1.0000
  H   H849      1.0  0.57219  0.29542  0.46951  1.0000
  H   H850      1.0  0.49841  0.43216  0.63409  1.0000
  H   H851      1.0  0.69197  0.40320  0.45778  1.0000
  H   H852      1.0  0.65106  0.03277  0.55974  1.0000
  H   H853      1.0  0.74155  0.01555  0.38150  1.0000
  H   H854      1.0  0.61784  0.09699  0.50320  1.0000
  C   C467      1.0  0.59172  0.05534  0.48544  1.0000
  C   C468      1.0  0.55429  0.31212  0.45936  1.0000
  H   H855      1.0  0.57475  0.37310  0.53725  1.0000
  H   H856      1.0  0.63852  0.37506  0.50160  1.0000
  H   H857      1.0  0.56728  0.06557  0.49083  1.0000
  H   H858      1.0  0.55074  0.36134  0.44413  1.0000
  H   H859      1.0  0.64097  0.34710  0.45885  1.0000
  H   H860      1.0  0.51211  0.99477  0.46984  1.0000
  H   H861      1.0  0.53142  0.31348  0.47180  1.0000
  S   S105      1.0  0.49091  0.46558  0.54586  1.0000
  H   H862      1.0  0.69465  0.36562  0.47782  1.0000
  C   C469      1.0  0.56905  0.34656  0.45556  1.0000
  C   C470      1.0  0.59198  0.01714  0.48617  1.0000
  H   H863      1.0  0.84601  0.03419  0.38348  1.0000
  H   H864      1.0  0.77180  0.38834  0.65303  1.0000
  C   C471      1.0  0.82645  0.47089  0.64080  1.0000
  H   H865      1.0  0.55182  0.36622  0.49329  1.0000
  H   H866      1.0  0.95748  0.02994  0.40372  1.0000
  C   C472      1.0  0.64766  0.98708  0.53721  1.0000
  C   C473      1.0  0.58414  0.41664  0.45920  1.0000
  H   H867      1.0  0.76825  0.32495  0.65965  1.0000
  H   H868      1.0  0.71512  0.40590  0.63957  1.0000
  H   H869      1.0  0.64420  0.41480  0.48747  1.0000
  H   H870      1.0  0.60874  0.06434  0.52698  1.0000
  C   C474      1.0  0.58965  0.39607  0.53655  1.0000
  H   H871      1.0  0.59773  0.02577  0.58420  1.0000
  C   C475      1.0  0.63145  0.39078  0.48394  1.0000
  H   H872      1.0  0.58237  0.40424  0.58011  1.0000
  C   C476      1.0  0.81167  0.45219  0.66503  1.0000
  S   S106      1.0  0.51611  0.00021  0.65892  1.0000
  H   H873      1.0  0.61581  0.38959  0.54001  1.0000
  C   C477      1.0  0.66858  0.42820  0.65006  1.0000
  Fe  Fe53      1.0  0.50921  0.98959  0.61375  1.0000
  H   H874      1.0  0.65927  0.42793  0.62871  1.0000
  H   H875      1.0  0.64147  0.05927  0.50214  1.0000
  C   C478      1.0  0.57651  0.36318  0.48355  1.0000
  C   C479      1.0  0.85044  0.00924  0.37640  1.0000
  H   H876      1.0  0.58707  0.45638  0.41270  1.0000
  H   H877      1.0  0.91134  0.99183  0.45293  1.0000
  H   H878      1.0  0.55761  0.98671  0.42789  1.0000
  C   C480      1.0  0.68438  0.37685  0.45893  1.0000
  H   H879      1.0  0.50947  0.39583  0.38244  1.0000
  C   C481      1.0  0.96833  0.05369  0.36574  1.0000
  C   C482      1.0  0.87379  0.00372  0.35536  1.0000
  H   H880      1.0  0.51067  0.42774  0.42599  1.0000
  H   H881      1.0  0.55866  0.42198  0.50787  1.0000
  C   C483      1.0  0.97676  0.34808  0.49585  1.0000
  H   H882      1.0  0.59357  0.44085  0.56138  1.0000
  H   H883      1.0  0.95014  0.35017  0.45765  1.0000
  C   C484      1.0  0.57881  0.41774  0.56057  1.0000
  H   H884      1.0  0.55236  0.42429  0.55875  1.0000
  H   H885      1.0  0.88689  0.02433  0.34644  1.0000
  C   C485      1.0  0.49958  0.38491  0.40088  1.0000
  S   S107      1.0  0.49390  0.40834  0.48268  1.0000
  C   C486      1.0  0.54739  0.03819  0.42979  1.0000
  H   H886      1.0  0.48597  0.03746  0.51782  1.0000
  C   C487      1.0  0.61652  0.06975  0.50567  1.0000
  H   H887      1.0  0.96820  0.07834  0.37576  1.0000
  C   C488      1.0  0.97559  0.02694  0.38693  1.0000
  H   H888      1.0  0.52060  0.03259  0.43022  1.0000
  C   C489      1.0  0.63649  0.01079  0.55621  1.0000
  H   H889      1.0  0.82327  0.42740  0.66599  1.0000
  C   C490      1.0  0.55659  0.04656  0.40028  1.0000
  C   C491      1.0  0.50016  0.40320  0.42559  1.0000
  H   H890      1.0  0.59185  0.00914  0.50785  1.0000
  H   H891      1.0  0.85324  0.47457  0.64413  1.0000
  H   H892      1.0  0.54788  0.30154  0.43907  1.0000
  H   H893      1.0  0.55153  0.06054  0.44234  1.0000
  Fe  Fe54      1.0  0.96880  0.46365  0.41157  1.0000
  H   H894      1.0  0.72111  0.36324  0.66845  1.0000
  C   C492      1.0  0.53128  0.00838  0.48163  1.0000
  H   H895      1.0  0.76852  0.44216  0.64088  1.0000
  H   H896      1.0  0.55193  0.02509  0.38663  1.0000
  H   H897      1.0  0.60205  0.46549  0.47379  1.0000
  C   C493      1.0  0.97662  0.13727  0.65049  1.0000
  C   C494      1.0  0.96610  0.36353  0.47149  1.0000
  H   H898      1.0  0.52551  0.03492  0.47880  1.0000
  N   N28       1.0  0.56501  0.99990  0.47051  1.0000
  H   H899      1.0  0.95453  0.13468  0.63836  1.0000
  H   H900      1.0  0.58297  0.05365  0.39891  1.0000
  C   C495      1.0  0.56710  0.00783  0.44028  1.0000
  H   H901      1.0  0.54150  0.06774  0.39308  1.0000
  H   H902      1.0  0.54245  0.01580  0.52540  1.0000
  H   H903      1.0  0.59901  0.06399  0.46477  1.0000
  C   C496      1.0  0.52535  0.00122  0.51246  1.0000
  S   S108      1.0  0.68432  0.99516  0.51797  1.0000
  C   C497      1.0  0.49037  0.01065  0.52104  1.0000
  C   C498      1.0  0.60619  0.00689  0.57019  1.0000
  H   H904      1.0  0.56066  0.47635  0.43761  1.0000
  H   H905      1.0  0.73278  0.01683  0.34543  1.0000
  H   H906      1.0  0.82299  0.45667  0.62157  1.0000
  C   C499      1.0  0.48879  0.38895  0.44996  1.0000
  S   S109      1.0  0.48880  0.32982  0.36836  1.0000
  H   H907      1.0  0.71395  0.44986  0.63719  1.0000
  H   H908      1.0  0.65890  0.45075  0.66028  1.0000
  H   H909      1.0  0.48695  0.00516  0.54314  1.0000
  C   C500      1.0  0.48688  0.35245  0.39988  1.0000
  S   S110      1.0  0.80411  0.99166  0.41534  1.0000
  C   C501      1.0  0.70620  0.42856  0.64991  1.0000
  H   H910      1.0  0.94389  0.04959  0.35614  1.0000
  H   H911      1.0  0.65919  0.40596  0.66084  1.0000
  C   C502      1.0  0.97345  0.99193  0.37400  1.0000
  C   C503      1.0  0.97497  0.39634  0.46523  1.0000
  H   H912      1.0  0.70110  0.00436  0.36958  1.0000
  C   C504      1.0  0.83278  0.98292  0.38834  1.0000
  H   H913      1.0  0.82169  0.47206  0.39116  1.0000
  H   H914      1.0  0.94866  0.98939  0.36460  1.0000
  H   H915      1.0  0.93412  0.20330  0.66680  1.0000
  S   S111      1.0  0.97952  0.46115  0.36610  1.0000
  H   H916      1.0  0.91559  0.99005  0.40215  1.0000
  H   H917      1.0  0.96780  0.98626  0.43158  1.0000
  H   H918      1.0  0.89592  0.11851  0.76928  1.0000
  H   H919      1.0  0.95750  0.18911  0.79510  1.0000
  H   H920      1.0  0.50597  0.11589  0.83936  1.0000
  H   H921      1.0  0.87173  0.19519  0.82347  1.0000
  H   H922      1.0  0.88670  0.16996  0.77939  1.0000
  C   C505      1.0  0.75108  0.41748  0.73488  1.0000
  C   C506      1.0  0.48553  0.12595  0.82684  1.0000
  C   C507      1.0  0.92722  0.20736  0.68856  1.0000
  H   H923      1.0  0.49886  0.41789  0.92264  1.0000
  H   H924      1.0  0.90469  0.21010  0.78309  1.0000
  H   H925      1.0  0.75527  0.45886  0.76346  1.0000
  N   N29       1.0  0.75680  0.42616  0.68210  1.0000
  H   H926      1.0  0.73206  0.36563  0.70356  1.0000
  H   H927      1.0  0.50459  0.09209  0.71486  1.0000
  H   H928      1.0  0.51208  0.13411  0.75154  1.0000
  Fe  Fe55      1.0  0.95053  0.01094  0.78110  1.0000
  C   C508      1.0  0.76189  0.43225  0.76223  1.0000
  H   H929      1.0  0.72391  0.41930  0.73409  1.0000
  C   C509      1.0  0.73071  0.08731  0.99143  1.0000
  H   H930      1.0  0.93485  0.23277  0.69440  1.0000
  H   H931      1.0  0.70600  0.41484  0.69264  1.0000
  H   H932      1.0  0.50469  0.38343  0.88069  1.0000
  H   H933      1.0  0.77893  0.32693  0.69559  1.0000
  H   H934      1.0  0.54407  0.98545  0.75937  1.0000
  H   H935      1.0  0.80085  0.98534  0.85607  1.0000
  C   C510      1.0  0.89279  0.01224  0.85373  1.0000
  H   H936      1.0  0.90858  0.18567  0.73824  1.0000
  H   H937      1.0  0.95481  0.10998  0.76459  1.0000
  H   H938      1.0  0.81828  0.46618  0.68381  1.0000
  H   H939      1.0  0.96515  0.09533  0.67648  1.0000
  N   N30       1.0  0.95136  0.16246  0.75684  1.0000
  H   H940      1.0  0.89602  0.15854  0.82888  1.0000
  Fe  Fe56      1.0  0.95954  0.48169  0.87309  1.0000
  H   H941      1.0  0.74665  0.06253  0.95400  1.0000
  C   C511      1.0  0.89658  0.18420  0.82077  1.0000
  C   C512      1.0  0.90675  0.11749  0.74848  1.0000
  H   H942      1.0  0.95501  0.12030  0.72969  1.0000
  C   C513      1.0  0.48557  0.11022  0.71867  1.0000
  C   C514      1.0  0.88047  0.48068  0.77698  1.0000
  C   C515      1.0  0.75046  0.08645  0.96480  1.0000
  S   S112      1.0  0.95975  0.00907  0.73515  1.0000
  C   C516      1.0  0.90247  0.08196  0.73844  1.0000
  H   H943      1.0  0.87587  0.07574  0.73741  1.0000
  C   C517      1.0  0.93580  0.18655  0.73709  1.0000
  H   H944      1.0  0.88813  0.01741  0.89762  1.0000
  H   H945      1.0  0.75871  0.39119  0.73517  1.0000
  H   H946      1.0  0.96467  0.32287  0.98199  1.0000
  C   C518      1.0  0.94097  0.17008  0.78594  1.0000
  H   H947      1.0  0.93661  0.15701  0.69925  1.0000
  H   H948      1.0  0.74217  0.10669  0.95111  1.0000
  H   H949      1.0  0.91337  0.07875  0.71776  1.0000
  S   S113      1.0  0.66630  0.01224  0.98194  1.0000
  H   H950      1.0  0.89206  0.47349  0.75797  1.0000
  C   C519      1.0  0.76773  0.43554  0.71061  1.0000
  H   H951      1.0  0.48129  0.15208  0.83289  1.0000
  C   C520      1.0  0.82646  0.99265  0.85567  1.0000
  C   C521      1.0  0.87680  0.00462  0.82915  1.0000
  C   C522      1.0  0.94454  0.18176  0.70643  1.0000
  S   S114      1.0  0.82123  0.00144  0.91265  1.0000
  H   H952      1.0  0.77714  0.08975  0.96892  1.0000
  H   H953      1.0  0.49297  0.12519  0.80497  1.0000
  H   H954      1.0  0.71377  0.45714  0.68672  1.0000
  H   H955      1.0  0.79455  0.43101  0.71327  1.0000
  H   H956      1.0  0.79095  0.38532  0.68529  1.0000
  H   H957      1.0  0.91449  0.19906  0.83275  1.0000
  H   H958      1.0  0.94265  0.21231  0.74288  1.0000
  C   C523      1.0  0.84222  0.00098  0.88021  1.0000
  C   C524      1.0  0.84348  0.99486  0.83042  1.0000
  H   H959      1.0  0.91435  0.06446  0.75288  1.0000
  C   C525      1.0  0.48974  0.13417  0.73954  1.0000
  H   H960      1.0  0.60836  0.04629  0.00144  1.0000
  S   S115      1.0  0.89662  0.00769  0.79632  1.0000
  C   C526      1.0  0.48603  0.37727  0.89563  1.0000
  C   C527      1.0  0.94355  0.12707  0.74956  1.0000
  C   C528      1.0  0.72022  0.43181  0.67936  1.0000
  H   H961      1.0  0.83063  0.98904  0.81167  1.0000
  H   H962      1.0  0.97409  0.37245  0.95287  1.0000
  C   C529      1.0  0.90577  0.18412  0.79045  1.0000
  H   H963      1.0  0.91830  0.01989  0.85333  1.0000
  H   H964      1.0  0.76443  0.46255  0.71371  1.0000
  H   H965      1.0  0.94387  0.14768  0.79903  1.0000
  H   H966      1.0  0.89274  0.13376  0.73448  1.0000
  H   H967      1.0  0.78892  0.42965  0.76494  1.0000
  C   C530      1.0  0.75851  0.32912  0.68062  1.0000
  H   H968      1.0  0.74946  0.41910  0.77928  1.0000
  H   H969      1.0  0.90007  0.20502  0.69042  1.0000
  H   H970      1.0  0.70430  0.08490  0.98584  1.0000
  C   C531      1.0  0.87554  0.01077  0.87893  1.0000
  C   C532      1.0  0.48277  0.39695  0.91946  1.0000
  H   H971      1.0  0.92444  0.47187  0.80116  1.0000
  H   H972      1.0  0.91556  0.48107  0.96308  1.0000
  C   C533      1.0  0.74228  0.36311  0.68274  1.0000
  H   H973      1.0  0.74009  0.30957  0.68516  1.0000
  C   C534      1.0  0.89898  0.47968  0.80152  1.0000
  H   H974      1.0  0.73430  0.11181  0.00102  1.0000
  S   S116      1.0  0.72081  0.98368  0.91659  1.0000
  H   H975      1.0  0.73339  0.03594  0.99920  1.0000
  H   H976      1.0  0.97130  0.18462  0.70272  1.0000
  H   H977      1.0  0.51023  0.98235  0.78348  1.0000
  C   C535      1.0  0.76697  0.39111  0.67536  1.0000
  H   H978      1.0  0.68698  0.54214  0.02299  1.0000
  H   H979      1.0  0.93980  0.57198  0.24976  1.0000
  Fe  Fe57      1.0  0.93826  0.70114  0.05559  1.0000
  S   S117      1.0  0.88576  0.71256  0.04432  1.0000
  Fe  Fe58      1.0  0.94413  0.76538  0.09204  1.0000
  S   S118      1.0  0.89235  0.78022  0.08258  1.0000
  Fe  Fe59      1.0  0.87969  0.72663  0.08850  1.0000
  S   S119      1.0  0.83518  0.71663  0.11471  1.0000
  Fe  Fe60      1.0  0.90322  0.76502  0.03950  1.0000
  C   C536      1.0  0.65242  0.88787  0.29196  1.0000
  S   S120      1.0  0.93087  0.71214  0.10072  1.0000
  H   H980      1.0  0.64044  0.48647  0.04144  1.0000
  Fe  Fe61      1.0  0.68846  0.54024  0.18853  1.0000
  S   S121      1.0  0.70782  0.58950  0.17472  1.0000
  Fe  Fe62      1.0  0.74966  0.53031  0.22749  1.0000
  S   S122      1.0  0.77183  0.57850  0.21482  1.0000
  Fe  Fe63      1.0  0.72056  0.59842  0.21855  1.0000
  S   S123      1.0  0.71291  0.64644  0.24076  1.0000
  Fe  Fe64      1.0  0.75675  0.56427  0.17231  1.0000
  S   S124      1.0  0.78993  0.56937  0.13549  1.0000
  S   S125      1.0  0.69834  0.55111  0.23337  1.0000
  S   S126      1.0  0.73747  0.51413  0.18408  1.0000
  H   H981      1.0  0.58250  0.55315  0.13870  1.0000
  C   C537      1.0  0.55598  0.92002  0.31352  1.0000
  S   S127      1.0  0.50909  0.73539  0.31050  1.0000
  H   H982      1.0  0.83840  0.95619  0.04499  1.0000
  Fe  Fe65      1.0  0.53042  0.78702  0.31080  1.0000
  S   S128      1.0  0.57927  0.77176  0.29345  1.0000
  Fe  Fe66      1.0  0.50020  0.96700  0.16328  1.0000
  H   H983      1.0  0.94298  0.63643  0.10498  1.0000
  Fe  Fe67      1.0  0.55910  0.72015  0.29573  1.0000
  S   S129      1.0  0.56392  0.68269  0.26197  1.0000
  H   H984      1.0  0.82074  0.52232  0.17771  1.0000
  H   H985      1.0  0.93908  0.63114  0.15505  1.0000
  H   H986      1.0  0.85603  0.64555  0.16519  1.0000
  C   C538      1.0  0.87433  0.51482  0.30747  1.0000
  S   S130      1.0  0.52005  0.92120  0.18655  1.0000
  H   H987      1.0  0.62601  0.79625  0.24279  1.0000
  C   C539      1.0  0.53464  0.85306  0.24715  1.0000
  C   C540      1.0  0.53774  0.87273  0.22340  1.0000
  C   C541      1.0  0.56651  0.61986  0.32274  1.0000
  H   H988      1.0  0.55342  0.83523  0.25225  1.0000
  H   H989      1.0  0.55885  0.86945  0.21019  1.0000
  C   C542      1.0  0.67144  0.65711  0.24543  1.0000
  C   C543      1.0  0.66339  0.68337  0.26289  1.0000
  C   C544      1.0  0.63036  0.69139  0.26791  1.0000
  C   C545      1.0  0.60530  0.67360  0.25504  1.0000
  C   C546      1.0  0.61330  0.64799  0.23692  1.0000
  C   C547      1.0  0.64635  0.63942  0.23238  1.0000
  H   H990      1.0  0.68276  0.69710  0.27297  1.0000
  H   H991      1.0  0.62440  0.71121  0.28191  1.0000
  H   H992      1.0  0.59395  0.63439  0.22674  1.0000
  H   H993      1.0  0.65244  0.61920  0.21878  1.0000
  H   H994      1.0  0.69708  0.50726  0.04424  1.0000
  H   H995      1.0  0.95526  0.61387  0.24654  1.0000
  C   C548      1.0  0.86435  0.53746  0.28722  1.0000
  C   C549      1.0  0.83429  0.53354  0.27302  1.0000
  H   H996      1.0  0.88004  0.55825  0.28257  1.0000
  H   H997      1.0  0.82701  0.55145  0.25781  1.0000
  H   H998      1.0  0.88617  0.53829  0.20663  1.0000
  H   H999      1.0  0.57257  0.74323  0.16269  1.0000
  C   C550      1.0  0.62655  0.97746  0.05402  1.0000
  H   H1000     1.0  0.49561  0.90129  0.01816  1.0000
  H   H1001     1.0  0.91007  0.57607  0.15523  1.0000
  H   H1002     1.0  0.69575  0.91455  0.28005  1.0000
  C   C551      1.0  0.56708  0.69954  0.18810  1.0000
  H   H1003     1.0  0.74576  0.93176  0.29092  1.0000
  H   H1004     1.0  0.53665  0.81126  0.19959  1.0000
  H   H1005     1.0  0.55690  0.53191  0.09585  1.0000
  H   H1006     1.0  0.52725  0.51187  0.14181  1.0000
  H   H1007     1.0  0.82665  0.69408  0.18848  1.0000
  H   H1008     1.0  0.49574  0.73814  0.20009  1.0000
  H   H1009     1.0  0.84189  0.80665  0.04378  1.0000
  C   C552      1.0  0.82168  0.67571  0.11879  1.0000
  C   C553      1.0  0.79686  0.66905  0.13794  1.0000
  C   C554      1.0  0.78684  0.63645  0.14297  1.0000
  C   C555      1.0  0.80105  0.61042  0.12838  1.0000
  C   C556      1.0  0.82498  0.61712  0.10844  1.0000
  C   C557      1.0  0.83565  0.64972  0.10389  1.0000
  H   H1010     1.0  0.78584  0.68914  0.14935  1.0000
  H   H1011     1.0  0.76831  0.63153  0.15834  1.0000
  H   H1012     1.0  0.83589  0.59701  0.09699  1.0000
  H   H1013     1.0  0.85469  0.65478  0.08899  1.0000
  S   S131      1.0  0.63590  0.52996  0.17256  1.0000
  H   H1014     1.0  0.58962  0.70288  0.20053  1.0000
  H   H1015     1.0  0.53111  0.95953  0.23607  1.0000
  H   H1016     1.0  0.59945  0.91161  0.18448  1.0000
  H   H1017     1.0  0.55800  0.55055  0.32769  1.0000
  H   H1018     1.0  0.69031  0.61948  0.33252  1.0000
  C   C558      1.0  0.57750  0.55559  0.27831  1.0000
  H   H1019     1.0  0.53048  0.93504  0.27734  1.0000
  S   S132      1.0  0.77565  0.49971  0.26087  1.0000
  Fe  Fe68      1.0  0.52504  0.48559  0.03750  1.0000
  C   C559      1.0  0.71971  0.94852  0.33976  1.0000
  C   C560      1.0  0.93359  0.59858  0.25220  1.0000
  H   H1020     1.0  0.72418  0.65420  0.04458  1.0000
  H   H1021     1.0  0.63214  0.95845  0.06884  1.0000
  H   H1022     1.0  0.76175  0.89254  0.29930  1.0000
  H   H1023     1.0  0.87921  0.53642  0.17019  1.0000
  H   H1024     1.0  0.72010  0.57910  0.04398  1.0000
  H   H1025     1.0  0.87390  0.59457  0.14185  1.0000
  C   C561      1.0  0.63299  0.77678  0.22783  1.0000
  H   H1026     1.0  0.71715  0.63012  0.09107  1.0000
  H   H1027     1.0  0.56608  0.90951  0.27155  1.0000
  C   C562      1.0  0.57804  0.96177  0.27925  1.0000
  H   H1028     1.0  0.93019  0.62190  0.19871  1.0000
  H   H1029     1.0  0.92417  0.57882  0.20110  1.0000
  H   H1030     1.0  0.65258  0.52837  0.07845  1.0000
  H   H1031     1.0  0.62568  0.65535  0.31906  1.0000
  Fe  Fe69      1.0  0.59368  0.76281  0.33711  1.0000
  C   C563      1.0  0.64896  0.50562  0.02679  1.0000
  C   C564      1.0  0.55400  0.73310  0.17719  1.0000
  C   C565      1.0  0.64574  0.97978  0.02989  1.0000
  H   H1032     1.0  0.56668  0.78387  0.23301  1.0000
  H   H1033     1.0  0.62156  0.94147  0.16435  1.0000
  C   C566      1.0  0.61682  0.93280  0.18556  1.0000
  C   C567      1.0  0.74420  0.63981  0.05443  1.0000
  H   H1034     1.0  0.60498  0.79724  0.19489  1.0000
  H   H1035     1.0  0.90297  0.65017  0.14083  1.0000
  C   C568      1.0  0.48368  0.97911  0.02574  1.0000
  H   H1036     1.0  0.88311  0.59186  0.24144  1.0000
  C   C569      1.0  0.83957  0.64630  0.20627  1.0000
  C   C570      1.0  0.70322  0.89453  0.32155  1.0000
  C   C571      1.0  0.53799  0.79081  0.18449  1.0000
  H   H1037     1.0  0.71774  0.96496  0.32158  1.0000
  C   C572      1.0  0.51555  0.74617  0.21432  1.0000
  H   H1038     1.0  0.91478  0.87654  0.17320  1.0000
  C   C573      1.0  0.83907  0.51946  0.19437  1.0000
  H   H1039     1.0  0.58538  0.65257  0.17306  1.0000
  C   C574      1.0  0.78381  0.58606  0.32132  1.0000
  H   H1040     1.0  0.75971  0.50132  0.12081  1.0000
  C   C575      1.0  0.82349  0.48417  0.29916  1.0000
  C   C576      1.0  0.67750  0.52525  0.03904  1.0000
  H   H1041     1.0  0.57803  0.92794  0.23016  1.0000
  H   H1042     1.0  0.79337  0.84378  0.04498  1.0000
  H   H1043     1.0  0.55867  0.79765  0.17068  1.0000
  C   C577      1.0  0.48392  0.88113  0.25794  1.0000
  H   H1044     1.0  0.62452  0.57401  0.28975  1.0000
  H   H1045     1.0  0.76096  0.65734  0.06505  1.0000
  H   H1046     1.0  0.57642  0.57701  0.23737  1.0000
  H   H1047     1.0  0.94756  0.82982  0.06747  1.0000
  H   H1048     1.0  0.94228  0.59348  0.11450  1.0000
  C   C578      1.0  0.72055  0.54086  0.08753  1.0000
  H   H1049     1.0  0.63665  0.88375  0.31022  1.0000
  H   H1050     1.0  0.51586  0.66317  0.30980  1.0000
  H   H1051     1.0  0.66577  0.96264  0.02647  1.0000
  H   H1052     1.0  0.86849  0.96037  0.01775  1.0000
  H   H1053     1.0  0.48961  0.94027  0.05581  1.0000
  C   C579      1.0  0.63328  0.48809  0.12713  1.0000
  C   C580      1.0  0.58394  0.55366  0.24752  1.0000
  C   C581      1.0  0.81369  0.50657  0.27864  1.0000
  C   C582      1.0  0.60666  0.77323  0.20573  1.0000
  H   H1054     1.0  0.81068  0.68704  0.22236  1.0000
  H   H1055     1.0  0.89790  0.63390  0.23877  1.0000
  H   H1056     1.0  0.49884  0.84524  0.17077  1.0000
  H   H1057     1.0  0.55084  0.55963  0.28137  1.0000
  H   H1058     1.0  0.64657  0.62592  0.29762  1.0000
  N   N31       1.0  0.54512  0.75845  0.19862  1.0000
  C   C583      1.0  0.62279  0.60411  0.33428  1.0000
  H   H1059     1.0  0.84524  0.63682  0.22692  1.0000
  H   H1060     1.0  0.56942  0.53313  0.23849  1.0000
  C   C584      1.0  0.83700  0.82291  0.02674  1.0000
  C   C585      1.0  0.60187  0.96096  0.20232  1.0000
  N   N32       1.0  0.69269  0.56358  0.07962  1.0000
  H   H1061     1.0  0.49533  0.79515  0.22642  1.0000
  C   C586      1.0  0.70630  0.59035  0.06131  1.0000
  C   C587      1.0  0.67812  0.57800  0.10534  1.0000
  H   H1062     1.0  0.50773  0.77386  0.14984  1.0000
  C   C588      1.0  0.75655  0.91739  0.30808  1.0000
  H   H1063     1.0  0.48405  0.78654  0.17919  1.0000
  C   C589      1.0  0.64996  0.60339  0.10130  1.0000
  C   C590      1.0  0.73005  0.61542  0.07518  1.0000
  H   H1064     1.0  0.95300  0.95371  0.07829  1.0000
  H   H1065     1.0  0.59547  0.68731  0.15160  1.0000
  H   H1066     1.0  0.92109  0.82968  0.14056  1.0000
  C   C591      1.0  0.63961  0.61865  0.12859  1.0000
  H   H1067     1.0  0.73821  0.55411  0.10086  1.0000
  H   H1068     1.0  0.64044  0.92450  0.19464  1.0000
  H   H1069     1.0  0.68545  0.66178  0.32184  1.0000
  H   H1070     1.0  0.68604  0.60460  0.05155  1.0000
  H   H1071     1.0  0.69768  0.58958  0.11796  1.0000
  H   H1072     1.0  0.66772  0.55817  0.11841  1.0000
  C   C592      1.0  0.50749  0.85682  0.26449  1.0000
  C   C593      1.0  0.78983  0.93426  0.31461  1.0000
  C   C594      1.0  0.59868  0.58303  0.29185  1.0000
  H   H1073     1.0  0.92779  0.60305  0.27411  1.0000
  H   H1074     1.0  0.59722  0.60541  0.27869  1.0000
  S   S133      1.0  0.50224  0.83246  0.29472  1.0000
  H   H1075     1.0  0.62793  0.59111  0.09253  1.0000
  H   H1076     1.0  0.65745  0.62385  0.08759  1.0000
  C   C595      1.0  0.50358  0.49916  0.14627  1.0000
  H   H1077     1.0  0.97837  0.86102  0.07290  1.0000
  C   C596      1.0  0.93615  0.90585  0.09442  1.0000
  C   C597      1.0  0.50631  0.79197  0.16684  1.0000
  C   C598      1.0  0.57816  0.51959  0.10441  1.0000
  C   C599      1.0  0.93522  0.87784  0.04893  1.0000
  H   H1078     1.0  0.85003  0.89596  0.04734  1.0000
  C   C600      1.0  0.66608  0.54523  0.06442  1.0000
  H   H1079     1.0  0.94869  0.89718  0.03723  1.0000
  H   H1080     1.0  0.75113  0.60265  0.08487  1.0000
  H   H1081     1.0  0.66027  0.63288  0.13769  1.0000
  H   H1082     1.0  0.61861  0.63570  0.12527  1.0000
  H   H1083     1.0  0.63176  0.59913  0.14320  1.0000
  N   N33       1.0  0.91484  0.89320  0.07144  1.0000
  C   C601      1.0  0.89571  0.92175  0.05960  1.0000
  C   C602      1.0  0.53115  0.61181  0.31315  1.0000
  C   C603      1.0  0.55633  0.93062  0.28354  1.0000
  C   C604      1.0  0.89224  0.86706  0.08284  1.0000
  C   C605      1.0  0.86613  0.87900  0.10384  1.0000
  C   C606      1.0  0.96373  0.93041  0.08627  1.0000
  H   H1084     1.0  0.61044  0.54906  0.24328  1.0000
  H   H1085     1.0  0.49499  0.50939  0.16620  1.0000
  C   C607      1.0  0.57595  0.67624  0.16462  1.0000
  C   C608      1.0  0.84385  0.85047  0.11265  1.0000
  H   H1086     1.0  0.67104  0.93446  0.30587  1.0000
  C   C609      1.0  0.67344  0.64108  0.33297  1.0000
  H   H1087     1.0  0.91269  0.93926  0.04915  1.0000
  H   H1088     1.0  0.88393  0.93653  0.07615  1.0000
  H   H1089     1.0  0.75649  0.58647  0.32063  1.0000
  C   C610      1.0  0.59058  0.49124  0.09159  1.0000
  C   C611      1.0  0.68141  0.91045  0.29906  1.0000
  H   H1090     1.0  0.58395  0.53116  0.28722  1.0000
  H   H1091     1.0  0.87936  0.85374  0.06605  1.0000
  H   H1092     1.0  0.90689  0.84787  0.09356  1.0000
  H   H1093     1.0  0.85012  0.89853  0.09521  1.0000
  H   H1094     1.0  0.87814  0.88881  0.12253  1.0000
  H   H1095     1.0  0.83729  0.94392  0.29583  1.0000
  H   H1096     1.0  0.79224  0.56283  0.31149  1.0000
  S   S134      1.0  0.49243  0.52881  0.04654  1.0000
  H   H1097     1.0  0.71150  0.87037  0.31311  1.0000
  H   H1098     1.0  0.54828  0.68695  0.20083  1.0000
  H   H1099     1.0  0.81984  0.90449  0.28688  1.0000
  C   C612      1.0  0.48011  0.51154  0.12347  1.0000
  N   N34       1.0  0.73225  0.91472  0.33134  1.0000
  C   C613      1.0  0.64085  0.63260  0.31909  1.0000
  H   H1100     1.0  0.82519  0.85959  0.12745  1.0000
  H   H1101     1.0  0.83082  0.83983  0.09472  1.0000
  H   H1102     1.0  0.85847  0.83075  0.12276  1.0000
  C   C614      1.0  0.97791  0.59816  0.01047  1.0000
  H   H1103     1.0  0.49724  0.56263  0.12441  1.0000
  H   H1104     1.0  0.66135  0.86356  0.28437  1.0000
  C   C615      1.0  0.86887  0.91248  0.03833  1.0000
  H   H1105     1.0  0.77870  0.86132  0.33434  1.0000
  H   H1106     1.0  0.77054  0.95021  0.05153  1.0000
  N   N35       1.0  0.88251  0.60541  0.18462  1.0000
  C   C616      1.0  0.85661  0.57965  0.19079  1.0000
  C   C617      1.0  0.86755  0.63970  0.18528  1.0000
  C   C618      1.0  0.89499  0.59899  0.15592  1.0000
  C   C619      1.0  0.91139  0.60293  0.20383  1.0000
  C   C620      1.0  0.90382  0.60758  0.23461  1.0000
  C   C621      1.0  0.86805  0.54304  0.19012  1.0000
  C   C622      1.0  0.91661  0.62652  0.14279  1.0000
  C   C623      1.0  0.94267  0.84159  0.14891  1.0000
  H   H1107     1.0  0.80367  0.94214  0.27191  1.0000
  C   C624      1.0  0.92753  0.61658  0.11399  1.0000
  H   H1108     1.0  0.83590  0.58238  0.17618  1.0000
  H   H1109     1.0  0.84535  0.58344  0.21117  1.0000
  H   H1110     1.0  0.88713  0.65868  0.18822  1.0000
  H   H1111     1.0  0.53083  0.60875  0.29060  1.0000
  H   H1112     1.0  0.61533  0.75419  0.19109  1.0000
  C   C625      1.0  0.57298  0.76375  0.21849  1.0000
  H   H1113     1.0  0.94768  0.88493  0.10562  1.0000
  S   S135      1.0  0.95618  0.75307  0.04800  1.0000
  H   H1114     1.0  0.67803  0.87215  0.00962  1.0000
  H   H1115     1.0  0.61762  0.93998  0.24106  1.0000
  H   H1116     1.0  0.63645  0.75300  0.23880  1.0000
  H   H1117     1.0  0.65682  0.78375  0.21829  1.0000
  C   C626      1.0  0.51403  0.89683  0.21670  1.0000
  H   H1118     1.0  0.65713  0.49299  0.00779  1.0000
  H   H1119     1.0  0.54066  0.89740  0.31581  1.0000
  C   C627      1.0  0.93916  0.86822  0.16756  1.0000
  H   H1120     1.0  0.79325  0.60752  0.30951  1.0000
  C   C628      1.0  0.62065  0.51618  0.14018  1.0000
  H   H1121     1.0  0.91896  0.86561  0.03362  1.0000
  H   H1122     1.0  0.57652  0.74162  0.23161  1.0000
  H   H1123     1.0  0.81664  0.63403  0.19921  1.0000
  H   H1124     1.0  0.68678  0.88846  0.33912  1.0000
  C   C629      1.0  0.59290  0.53172  0.12866  1.0000
  H   H1125     1.0  0.63718  0.89938  0.27575  1.0000
  H   H1126     1.0  0.55395  0.67082  0.15191  1.0000
  H   H1127     1.0  0.53215  0.72728  0.16435  1.0000
  H   H1128     1.0  0.64055  0.58322  0.33629  1.0000
  H   H1129     1.0  0.84796  0.49350  0.19430  1.0000
  H   H1130     1.0  0.51794  0.77427  0.25280  1.0000
  C   C630      1.0  0.83232  0.68325  0.20880  1.0000
  H   H1131     1.0  0.52194  0.72357  0.22611  1.0000
  H   H1132     1.0  0.85375  0.69643  0.21773  1.0000
  H   H1133     1.0  0.58126  0.91425  0.32067  1.0000
  C   C631      1.0  0.59448  0.94975  0.23203  1.0000
  C   C632      1.0  0.80941  0.84378  0.02730  1.0000
  C   C633      1.0  0.97401  0.83040  0.14126  1.0000
  C   C634      1.0  0.81397  0.93090  0.29076  1.0000
  H   H1134     1.0  0.90583  0.61294  0.10051  1.0000
  H   H1135     1.0  0.64703  0.56274  0.05690  1.0000
  H   H1136     1.0  0.57469  0.64095  0.30988  1.0000
  H   H1137     1.0  0.70017  0.51562  0.12366  1.0000
  H   H1138     1.0  0.73293  0.95590  0.03279  1.0000
  N   N36       1.0  0.59120  0.59206  0.32131  1.0000
  H   H1139     1.0  0.87981  0.89985  0.02035  1.0000
  H   H1140     1.0  0.97877  0.58434  0.02938  1.0000
  C   C635      1.0  0.74096  0.48749  0.10886  1.0000
  H   H1141     1.0  0.73523  0.53350  0.06930  1.0000
  H   H1142     1.0  0.95884  0.89541  0.33046  1.0000
  C   C636      1.0  0.85347  0.48826  0.31353  1.0000
  H   H1143     1.0  0.69288  0.49397  0.09198  1.0000
  H   H1144     1.0  0.49138  0.50705  0.10313  1.0000
  H   H1145     1.0  0.92091  0.91878  0.11002  1.0000
  S   S136      1.0  0.91004  0.96280  0.31998  1.0000
  C   C637      1.0  0.71086  0.50916  0.10347  1.0000
  H   H1146     1.0  0.60318  0.95468  0.28600  1.0000
  H   H1147     1.0  0.82678  0.52413  0.21426  1.0000
  H   H1148     1.0  0.78612  0.96110  0.31805  1.0000
  C   C638      1.0  0.97022  0.63216  0.01128  1.0000
  S   S137      1.0  0.49630  0.96335  0.11729  1.0000
  C   C639      1.0  0.50766  0.64011  0.31999  1.0000
  C   C640      1.0  0.74725  0.96457  0.05078  1.0000
  H   H1149     1.0  0.52121  0.58931  0.32303  1.0000
  C   C641      1.0  0.50154  0.82632  0.15441  1.0000
  S   S138      1.0  0.91311  0.52116  0.32407  1.0000
  H   H1150     1.0  0.75860  0.62656  0.03851  1.0000
  S   S139      1.0  0.96063  0.91727  0.20317  1.0000
  C   C642      1.0  0.85097  0.94321  0.02790  1.0000
  C   C643      1.0  0.57999  0.56202  0.33714  1.0000
  H   H1151     1.0  0.50354  0.96934  0.01240  1.0000
  C   C644      1.0  0.50071  0.77066  0.23547  1.0000
  H   H1152     1.0  0.57898  0.96849  0.19185  1.0000
  S   S140      1.0  0.96302  0.65175  0.04368  1.0000
  H   H1153     1.0  0.80181  0.92316  0.33271  1.0000
  H   H1154     1.0  0.59939  0.54254  0.33631  1.0000
  H   H1155     1.0  0.52278  0.83305  0.14121  1.0000
  S   S141      1.0  0.57858  0.70940  0.33756  1.0000
  H   H1156     1.0  0.55602  0.50319  0.18078  1.0000
  H   H1157     1.0  0.73295  0.95950  0.06969  1.0000
  C   C645      1.0  0.96679  0.88377  0.17944  1.0000
  H   H1158     1.0  0.83206  0.93581  0.01268  1.0000
  H   H1159     1.0  0.96297  0.82632  0.01842  1.0000
  C   C646      1.0  0.48716  0.90105  0.23430  1.0000
  N   N37       1.0  0.57903  0.97531  0.25052  1.0000
  H   H1160     1.0  0.96971  0.95026  0.12758  1.0000
  H   H1161     1.0  0.48252  0.63410  0.31264  1.0000
  H   H1162     1.0  0.54525  0.93976  0.32656  1.0000
  C   C647      1.0  0.96034  0.85112  0.05799  1.0000
  H   H1163     1.0  0.62797  0.52212  0.02170  1.0000
  S   S142      1.0  0.76843  0.89132  0.00724  1.0000
  H   H1164     1.0  0.56998  0.98117  0.29397  1.0000
  H   H1165     1.0  0.84433  0.57187  0.33802  1.0000
  H   H1166     1.0  0.49917  0.81257  0.43920  1.0000
  H   H1167     1.0  0.78470  0.82190  0.37211  1.0000
  H   H1168     1.0  0.87534  0.63227  0.37757  1.0000
  S   S143      1.0  0.74976  0.91053  0.42615  1.0000
  Fe  Fe70      1.0  0.70956  0.96454  0.48423  1.0000
  S   S144      1.0  0.69164  0.91389  0.47366  1.0000
  Fe  Fe71      1.0  0.74513  0.90037  0.47102  1.0000
  S   S145      1.0  0.75883  0.85129  0.48930  1.0000
  Fe  Fe72      1.0  0.69791  0.92914  0.42999  1.0000
  S   S146      1.0  0.65770  0.92176  0.39887  1.0000
  S   S147      1.0  0.76358  0.95029  0.48422  1.0000
  C   C648      1.0  0.79937  0.65210  0.64711  1.0000
  H   H1169     1.0  0.57700  0.51636  0.37996  1.0000
  C   C649      1.0  0.50422  0.79594  0.42160  1.0000
  C   C650      1.0  0.73253  0.92524  0.55582  1.0000
  H   H1170     1.0  0.75057  0.87581  0.55175  1.0000
  H   H1171     1.0  0.87374  0.76824  0.46698  1.0000
  N   N38       1.0  0.84917  0.58573  0.38062  1.0000
  C   C651      1.0  0.65247  0.88060  0.38839  1.0000
  C   C652      1.0  0.67548  0.85640  0.39546  1.0000
  C   C653      1.0  0.67258  0.82431  0.38482  1.0000
  C   C654      1.0  0.64615  0.81609  0.36774  1.0000
  H   H1172     1.0  0.54759  0.66934  0.48478  1.0000
  C   C655      1.0  0.62590  0.87233  0.37148  1.0000
  H   H1173     1.0  0.69586  0.86252  0.40873  1.0000
  H   H1174     1.0  0.69079  0.80579  0.38991  1.0000
  H   H1175     1.0  0.73459  0.95548  0.38237  1.0000
  C   C656      1.0  0.97784  0.83933  0.65850  1.0000
  S   S148      1.0  0.50214  0.69940  0.38681  1.0000
  H   H1176     1.0  0.79563  0.63375  0.44435  1.0000
  Fe  Fe73      1.0  0.53001  0.72757  0.35286  1.0000
  C   C657      1.0  0.80107  0.84278  0.49177  1.0000
  C   C658      1.0  0.82467  0.86524  0.48235  1.0000
  C   C659      1.0  0.85830  0.85873  0.48640  1.0000
  H   H1177     1.0  0.81702  0.88770  0.47217  1.0000
  H   H1178     1.0  0.87655  0.87612  0.47915  1.0000
  C   C660      1.0  0.82991  0.52453  0.38467  1.0000
  H   H1179     1.0  0.66926  0.64890  0.35446  1.0000
  H   H1180     1.0  0.78309  0.67306  0.60885  1.0000
  S   S149      1.0  0.93087  0.50398  0.40536  1.0000
  H   H1181     1.0  0.79275  0.82087  0.60866  1.0000
  H   H1182     1.0  0.82597  0.93022  0.38793  1.0000
  C   C661      1.0  0.60081  0.94777  0.46012  1.0000
  C   C662      1.0  0.54156  0.64745  0.40632  1.0000
  C   C663      1.0  0.54759  0.61967  0.42323  1.0000
  H   H1183     1.0  0.56030  0.65617  0.39243  1.0000
  H   H1184     1.0  0.57121  0.60745  0.42230  1.0000
  H   H1185     1.0  0.59282  0.57596  0.37953  1.0000
  Fe  Fe74      1.0  0.50992  0.53652  0.49440  1.0000
  H   H1186     1.0  0.76585  0.89491  0.59856  1.0000
  S   S150      1.0  0.90048  0.73431  0.53852  1.0000
  Fe  Fe75      1.0  0.94419  0.77987  0.59953  1.0000
  S   S151      1.0  0.89438  0.79500  0.58390  1.0000
  Fe  Fe76      1.0  0.88342  0.74049  0.58193  1.0000
  S   S152      1.0  0.83400  0.71752  0.59121  1.0000
  Fe  Fe77      1.0  0.91637  0.78713  0.54221  1.0000
  S   S153      1.0  0.91001  0.82394  0.50806  1.0000
  H   H1187     1.0  0.51200  0.81101  0.40376  1.0000
  H   H1188     1.0  0.71757  0.92299  0.53691  1.0000
  C   C664      1.0  0.63430  0.69672  0.39705  1.0000
  H   H1189     1.0  0.53527  0.52778  0.37086  1.0000
  H   H1190     1.0  0.53307  0.75339  0.41158  1.0000
  H   H1191     1.0  0.88395  0.88348  0.58288  1.0000
  H   H1192     1.0  0.95685  0.65853  0.63748  1.0000
  H   H1193     1.0  0.65802  0.68334  0.39910  1.0000
  H   H1194     1.0  0.82895  0.89611  0.54040  1.0000
  H   H1195     1.0  0.63280  0.70668  0.37598  1.0000
  C   C665      1.0  0.97220  0.93161  0.37806  1.0000
  C   C666      1.0  0.75960  0.86143  0.35056  1.0000
  H   H1196     1.0  0.58365  0.93285  0.54357  1.0000
  H   H1197     1.0  0.63697  0.93988  0.51907  1.0000
  C   C667      1.0  0.86822  0.83042  0.50070  1.0000
  C   C668      1.0  0.84458  0.80787  0.50982  1.0000
  C   C669      1.0  0.81116  0.81363  0.50471  1.0000
  H   H1198     1.0  0.85198  0.78595  0.52083  1.0000
  H   H1199     1.0  0.79298  0.79604  0.51173  1.0000
  C   C670      1.0  0.83082  0.69188  0.62017  1.0000
  H   H1200     1.0  0.93960  0.70589  0.45954  1.0000
  C   C671      1.0  0.58658  0.97900  0.56546  1.0000
  H   H1201     1.0  0.54784  0.94958  0.46566  1.0000
  H   H1202     1.0  0.94711  0.93325  0.36897  1.0000
  C   C672      1.0  0.85594  0.69083  0.63962  1.0000
  H   H1203     1.0  0.51152  0.75237  0.66177  1.0000
  C   C673      1.0  0.61840  0.81329  0.46955  1.0000
  H   H1204     1.0  0.87757  0.70607  0.63713  1.0000
  H   H1205     1.0  0.80965  0.53115  0.39881  1.0000
  H   H1206     1.0  0.94080  0.72682  0.42772  1.0000
  H   H1207     1.0  0.81639  0.66769  0.51173  1.0000
  H   H1208     1.0  0.78590  0.56522  0.36148  1.0000
  S   S154      1.0  0.95323  0.58770  0.43350  1.0000
  C   C674      1.0  0.60644  0.51648  0.63133  1.0000
  C   C675      1.0  0.62256  0.84002  0.36134  1.0000
  H   H1209     1.0  0.92080  0.89304  0.54349  1.0000
  H   H1210     1.0  0.81460  0.49550  0.63861  1.0000
  H   H1211     1.0  0.77621  0.90690  0.53643  1.0000
  H   H1212     1.0  0.72752  0.89533  0.37207  1.0000
  C   C676      1.0  0.85318  0.90881  0.65072  1.0000
  H   H1213     1.0  0.75873  0.84030  0.59137  1.0000
  C   C677      1.0  0.63733  0.52037  0.64445  1.0000
  H   H1214     1.0  0.52845  0.97463  0.51726  1.0000
  H   H1215     1.0  0.97947  0.71994  0.49538  1.0000
  H   H1216     1.0  0.63240  0.49985  0.56680  1.0000
  H   H1217     1.0  0.60854  0.80220  0.48863  1.0000
  H   H1218     1.0  0.87681  0.97131  0.43735  1.0000
  Fe  Fe78      1.0  0.76469  0.96172  0.43874  1.0000
  C   C678      1.0  0.73912  0.96734  0.36229  1.0000
  H   H1219     1.0  0.60167  0.83339  0.46281  1.0000
  C   C679      1.0  0.85826  0.55004  0.38553  1.0000
  C   C680      1.0  0.79154  0.64323  0.42330  1.0000
  N   N39       1.0  0.59250  0.76496  0.44159  1.0000
  C   C681      1.0  0.60003  0.74434  0.41659  1.0000
  C   C682      1.0  0.86252  0.94528  0.35798  1.0000
  C   C683      1.0  0.62209  0.78685  0.44674  1.0000
  C   C684      1.0  0.58591  0.74411  0.46672  1.0000
  C   C685      1.0  0.56976  0.70959  0.46201  1.0000
  C   C686      1.0  0.63300  0.72485  0.41784  1.0000
  H   H1220     1.0  0.79719  0.77999  0.56993  1.0000
  H   H1221     1.0  0.60801  0.89098  0.36603  1.0000
  C   C687      1.0  0.59832  0.95474  0.54717  1.0000
  C   C688      1.0  0.55814  0.69423  0.48886  1.0000
  H   H1222     1.0  0.75822  0.77891  0.58749  1.0000
  H   H1223     1.0  0.60114  0.76040  0.39816  1.0000
  H   H1224     1.0  0.57987  0.72672  0.41195  1.0000
  H   H1225     1.0  0.62913  0.80014  0.42761  1.0000
  H   H1226     1.0  0.80331  0.58434  0.40351  1.0000
  C   C689      1.0  0.56372  0.78743  0.43556  1.0000
  H   H1227     1.0  0.64385  0.77167  0.45245  1.0000
  H   H1228     1.0  0.60918  0.73913  0.47803  1.0000
  H   H1229     1.0  0.88463  0.54441  0.50396  1.0000
  H   H1230     1.0  0.58775  0.69223  0.45274  1.0000
  H   H1231     1.0  0.54835  0.71058  0.44811  1.0000
  H   H1232     1.0  0.65384  0.74179  0.41323  1.0000
  H   H1233     1.0  0.63717  0.71423  0.43845  1.0000
  H   H1234     1.0  0.91273  0.94573  0.40289  1.0000
  H   H1235     1.0  0.66201  0.84132  0.45749  1.0000
  C   C690      1.0  0.51477  0.68466  0.66588  1.0000
  H   H1236     1.0  0.66927  0.81103  0.48403  1.0000
  H   H1237     1.0  0.96381  0.94277  0.43130  1.0000
  H   H1238     1.0  0.52980  0.66229  0.67010  1.0000
  C   C691      1.0  0.95985  0.96517  0.41852  1.0000
  S   S155      1.0  0.54642  0.97405  0.58008  1.0000
  C   C692      1.0  0.82092  0.63502  0.40498  1.0000
  H   H1239     1.0  0.53871  0.70974  0.49842  1.0000
  C   C693      1.0  0.49308  0.62391  0.44245  1.0000
  H   H1240     1.0  0.69426  0.94652  0.34824  1.0000
  C   C694      1.0  0.66669  0.51632  0.62975  1.0000
  H   H1241     1.0  0.96967  0.65587  0.60230  1.0000
  C   C695      1.0  0.88916  0.74737  0.45964  1.0000
  H   H1242     1.0  0.57030  0.75808  0.48148  1.0000
  C   C696      1.0  0.90822  0.59548  0.36168  1.0000
  C   C697      1.0  0.93754  0.63581  0.47138  1.0000
  C   C698      1.0  0.56970  0.96303  0.47382  1.0000
  H   H1243     1.0  0.62366  0.95733  0.46966  1.0000
  C   C699      1.0  0.87317  0.88409  0.56210  1.0000
  H   H1244     1.0  0.90833  0.94708  0.45367  1.0000
  H   H1245     1.0  0.87335  0.85859  0.55388  1.0000
  Fe  Fe79      1.0  0.53258  0.50258  0.54819  1.0000
  S   S156      1.0  0.70672  0.51852  0.64554  1.0000
  C   C700      1.0  0.90370  0.96957  0.44124  1.0000
  H   H1246     1.0  0.92834  0.77987  0.44862  1.0000
  N   N40       1.0  0.88573  0.60855  0.57250  1.0000
  C   C701      1.0  0.91948  0.61322  0.58491  1.0000
  C   C702      1.0  0.88703  0.57938  0.55327  1.0000
  C   C703      1.0  0.87660  0.63996  0.55767  1.0000
  C   C704      1.0  0.86017  0.60181  0.59417  1.0000
  C   C705      1.0  0.86610  0.57030  0.61156  1.0000
  C   C706      1.0  0.92101  0.63542  0.61076  1.0000
  C   C707      1.0  0.84360  0.63911  0.54167  1.0000
  C   C708      1.0  0.90789  0.58432  0.52702  1.0000
  H   H1247     1.0  0.55248  0.54115  0.40291  1.0000
  C   C709      1.0  0.84424  0.57000  0.63693  1.0000
  C   C710      1.0  0.76123  0.90083  0.55470  1.0000
  C   C711      1.0  0.84004  0.66918  0.52301  1.0000
  H   H1248     1.0  0.93661  0.62412  0.56956  1.0000
  H   H1249     1.0  0.93086  0.58908  0.59034  1.0000
  H   H1250     1.0  0.89740  0.55742  0.56395  1.0000
  H   H1251     1.0  0.86183  0.57160  0.54711  1.0000
  H   H1252     1.0  0.89664  0.64754  0.54344  1.0000
  H   H1253     1.0  0.87455  0.66091  0.57231  1.0000
  H   H1254     1.0  0.85726  0.62361  0.60791  1.0000
  H   H1255     1.0  0.83547  0.59855  0.58479  1.0000
  H   H1256     1.0  0.89195  0.56820  0.61849  1.0000
  H   H1257     1.0  0.86017  0.54795  0.59928  1.0000
  H   H1258     1.0  0.90844  0.65924  0.60722  1.0000
  H   H1259     1.0  0.90888  0.62321  0.62841  1.0000
  H   H1260     1.0  0.82252  0.63941  0.55616  1.0000
  H   H1261     1.0  0.84149  0.61691  0.52856  1.0000
  H   H1262     1.0  0.89694  0.60364  0.51379  1.0000
  H   H1263     1.0  0.93343  0.59166  0.53218  1.0000
  S   S157      1.0  0.53235  0.57137  0.46141  1.0000
  H   H1264     1.0  0.75654  0.84518  0.39303  1.0000
  H   H1265     1.0  0.92168  0.53248  0.52207  1.0000
  H   H1266     1.0  0.81792  0.57324  0.63136  1.0000
  H   H1267     1.0  0.84704  0.54614  0.64780  1.0000
  H   H1268     1.0  0.85169  0.59008  0.65109  1.0000
  C   C712      1.0  0.62861  0.95864  0.53320  1.0000
  C   C713      1.0  0.60409  0.50922  0.60315  1.0000
  H   H1269     1.0  0.82023  0.52247  0.36351  1.0000
  H   H1270     1.0  0.83986  0.69229  0.53525  1.0000
  C   C714      1.0  0.92548  0.75716  0.46105  1.0000
  C   C715      1.0  0.90964  0.55250  0.51019  1.0000
  S   S158      1.0  0.97108  0.80533  0.63543  1.0000
  H   H1271     1.0  0.79883  0.84771  0.54973  1.0000
  H   H1272     1.0  0.87463  0.89177  0.65002  1.0000
  H   H1273     1.0  0.55142  0.58679  0.36967  1.0000
  C   C716      1.0  0.66437  0.50863  0.60164  1.0000
  C   C717      1.0  0.83895  0.91376  0.62208  1.0000
  C   C718      1.0  0.82671  0.88051  0.60993  1.0000
  H   H1274     1.0  0.91629  0.64003  0.45856  1.0000
  C   C719      1.0  0.77429  0.79417  0.57413  1.0000
  H   H1275     1.0  0.89128  0.60492  0.40285  1.0000
  H   H1276     1.0  0.86048  0.67017  0.50793  1.0000
  C   C720      1.0  0.53057  0.77052  0.42903  1.0000
  Fe  Fe80      1.0  0.97241  0.53997  0.41248  1.0000
  C   C721      1.0  0.92211  0.96769  0.41401  1.0000
  H   H1277     1.0  0.64804  0.84893  0.49191  1.0000
  H   H1278     1.0  0.60191  0.95313  0.43790  1.0000
  S   S159      1.0  0.93155  0.72527  0.60039  1.0000
  H   H1279     1.0  0.61395  0.67895  0.40060  1.0000
  H   H1280     1.0  0.74169  0.95108  0.55714  1.0000
  H   H1281     1.0  0.85118  0.49023  0.41424  1.0000
  H   H1282     1.0  0.89851  0.59149  0.34075  1.0000
  C   C722      1.0  0.84212  0.49018  0.39282  1.0000
  C   C723      1.0  0.80262  0.67231  0.62385  1.0000
  H   H1283     1.0  0.93702  0.87010  0.64651  1.0000
  H   H1284     1.0  0.77741  0.63737  0.65003  1.0000
  C   C724      1.0  0.95657  0.64260  0.61898  1.0000
  H   H1285     1.0  0.92442  0.55684  0.49140  1.0000
  C   C725      1.0  0.88013  0.97163  0.34600  1.0000
  C   C726      1.0  0.94759  0.72925  0.44966  1.0000
  H   H1286     1.0  0.73936  0.84449  0.34460  1.0000
  H   H1287     1.0  0.83909  0.92536  0.56582  1.0000
  C   C727      1.0  0.94215  0.65545  0.49501  1.0000
  C   C728      1.0  0.63347  0.50550  0.58838  1.0000
  C   C729      1.0  0.83765  0.89829  0.56191  1.0000
  H   H1288     1.0  0.63836  0.52607  0.66604  1.0000
  H   H1289     1.0  0.57130  0.95630  0.49576  1.0000
  C   C730      1.0  0.57104  0.56788  0.36765  1.0000
  H   H1290     1.0  0.58409  0.51938  0.64313  1.0000
  C   C731      1.0  0.51123  0.66385  0.40745  1.0000
  C   C732      1.0  0.74654  0.89694  0.35572  1.0000
  Fe  Fe81      1.0  0.94921  0.72159  0.55668  1.0000
  H   H1291     1.0  0.86720  0.92031  0.35106  1.0000
  C   C733      1.0  0.52335  0.60741  0.44128  1.0000
  C   C734      1.0  0.82738  0.59721  0.40378  1.0000
  H   H1292     1.0  0.97501  0.80284  0.45775  1.0000
  H   H1293     1.0  0.76715  0.91102  0.36494  1.0000
  C   C735      1.0  0.80716  0.84737  0.57130  1.0000
  H   H1294     1.0  0.76115  0.79875  0.55459  1.0000
  H   H1295     1.0  0.56997  0.80418  0.41816  1.0000
  H   H1296     1.0  0.84692  0.86197  0.61138  1.0000
  H   H1297     1.0  0.93101  0.76257  0.48274  1.0000
  C   C736      1.0  0.96977  0.65082  0.51162  1.0000
  H   H1298     1.0  0.81835  0.93166  0.62370  1.0000
  H   H1299     1.0  0.71635  0.92002  0.57362  1.0000
  H   H1300     1.0  0.87123  0.54762  0.40552  1.0000
  H   H1301     1.0  0.80740  0.87130  0.62417  1.0000
  H   H1302     1.0  0.88425  0.72563  0.47291  1.0000
  H   H1303     1.0  0.78829  0.67047  0.42440  1.0000
  H   H1304     1.0  0.83034  0.83280  0.57109  1.0000
  S   S160      1.0  0.49902  0.54602  0.53935  1.0000
  H   H1305     1.0  0.84277  0.64781  0.41366  1.0000
  H   H1306     1.0  0.83852  0.59023  0.42382  1.0000
  H   H1307     1.0  0.85857  0.92499  0.60933  1.0000
  H   H1308     1.0  0.55830  0.80361  0.45337  1.0000
  N   N41       1.0  0.81344  0.88209  0.58116  1.0000
  C   C737      1.0  0.78222  0.82688  0.58832  1.0000
  H   H1309     1.0  0.88187  0.74157  0.43829  1.0000
  H   H1310     1.0  0.89891  0.93012  0.55303  1.0000
  S   S161      1.0  0.54506  0.49426  0.50363  1.0000
  C   C738      1.0  0.83899  0.95082  0.37889  1.0000
  C   C739      1.0  0.78213  0.90225  0.58128  1.0000
  C   C740      1.0  0.89615  0.90490  0.54433  1.0000
  C   C741      1.0  0.93525  0.62169  0.36010  1.0000
  C   C742      1.0  0.77513  0.84708  0.37642  1.0000
  H   H1311     1.0  0.57903  0.69142  0.50331  1.0000
  C   C743      1.0  0.88057  0.60579  0.38185  1.0000
  C   C744      1.0  0.95791  0.86786  0.66003  1.0000
  H   H1312     1.0  0.78787  0.92877  0.58507  1.0000
  Fe  Fe82      1.0  0.94527  0.50475  0.36082  1.0000
  H   H1313     1.0  0.96984  0.61927  0.62361  1.0000
  H   H1314     1.0  0.79593  0.86277  0.38346  1.0000
  S   S162      1.0  0.96694  0.77466  0.55745  1.0000
  H   H1315     1.0  0.52129  0.75696  0.44717  1.0000
  S   S163      1.0  0.54625  0.78115  0.35500  1.0000
  H   H1316     1.0  0.62291  0.89972  0.45279  1.0000
  C   C745      1.0  0.65148  0.82952  0.47607  1.0000
  H   H1317     1.0  0.92450  0.67443  0.50023  1.0000
  H   H1318     1.0  0.52110  0.69378  0.64510  1.0000
  H   H1319     1.0  0.88656  0.90678  0.52315  1.0000
  C   C746      1.0  0.49298  0.81863  0.66949  1.0000
  H   H1320     1.0  0.76862  0.63223  0.41489  1.0000
  C   C747      1.0  0.60100  0.91016  0.46328  1.0000
  C   C748      1.0  0.55821  0.53625  0.38103  1.0000
  H   H1321     1.0  0.60024  0.49380  0.42962  1.0000
  Fe  Fe83      1.0  0.48127  0.95741  0.66628  1.0000
  H   H1322     1.0  0.68672  0.50528  0.58994  1.0000
  C   C749      1.0  0.96006  0.61074  0.46423  1.0000
  H   H1323     1.0  0.83424  0.89857  0.66476  1.0000
  H   H1324     1.0  0.81633  0.64539  0.38434  1.0000
  H   H1325     1.0  0.49870  0.80294  0.65154  1.0000
  C   C750      1.0  0.85266  0.67076  0.66284  1.0000
  H   H1326     1.0  0.92001  0.57235  0.36886  1.0000
  H   H1327     1.0  0.94580  0.62626  0.38069  1.0000
  S   S164      1.0  0.64331  0.77593  0.35438  1.0000
  C   C751      1.0  0.82425  0.65167  0.66682  1.0000
  H   H1328     1.0  0.61821  0.61341  0.35536  1.0000
  H   H1329     1.0  0.87589  0.54126  0.36981  1.0000
  H   H1330     1.0  0.60206  0.90321  0.48524  1.0000
  H   H1331     1.0  0.96440  0.67862  0.41565  1.0000
  S   S165      1.0  0.56399  0.50379  0.58800  1.0000
  H   H1332     1.0  0.57872  0.89913  0.45381  1.0000
  S   S166      1.0  0.97757  0.67603  0.54097  1.0000
  C   C752      1.0  0.48718  0.65191  0.42576  1.0000
  H   H1333     1.0  0.76598  0.96740  0.35878  1.0000
  H   H1334     1.0  0.86162  0.93294  0.65900  1.0000
  H   H1335     1.0  0.78381  0.60931  0.36060  1.0000
  C   C753      1.0  0.79551  0.58742  0.35099  1.0000
  S   S167      1.0  0.71245  0.98111  0.44020  1.0000
  H   H1336     1.0  0.48838  0.67751  0.66644  1.0000
  H   H1337     1.0  0.60215  0.83384  0.34810  1.0000
  C   C754      1.0  0.83365  0.59006  0.35271  1.0000
  H   H1338     1.0  0.97091  0.91044  0.39255  1.0000
  H   H1339     1.0  0.92541  0.64516  0.35167  1.0000
  H   H1340     1.0  0.56521  0.63018  0.34383  1.0000
  H   H1341     1.0  0.95527  0.61280  0.34646  1.0000
  H   H1342     1.0  0.83996  0.61467  0.34392  1.0000
  H   H1343     1.0  0.50650  0.64426  0.34245  1.0000
  H   H1344     1.0  0.48105  0.78290  0.41615  1.0000
  H   H1345     1.0  0.86235  0.48203  0.37906  1.0000
  N   N42       1.0  0.91466  0.89139  0.77871  1.0000
  H   H1346     1.0  0.87323  0.92137  0.76564  1.0000
  N   N43       1.0  0.90029  0.59610  0.75468  1.0000
  S   S168      1.0  0.77144  0.92062  0.92768  1.0000
  Fe  Fe84      1.0  0.77929  0.59195  0.70414  1.0000
  S   S169      1.0  0.70072  0.92552  0.96078  1.0000
  Fe  Fe85      1.0  0.75452  0.92346  0.97124  1.0000
  H   H1347     1.0  0.53843  0.80976  0.71126  1.0000
  Fe  Fe86      1.0  0.71809  0.92815  0.91729  1.0000
  S   S170      1.0  0.69811  0.89997  0.88097  1.0000
  H   H1348     1.0  0.90431  0.49022  0.99788  1.0000
  S   S171      1.0  0.52128  0.48982  0.99133  1.0000
  H   H1349     1.0  0.91898  0.62096  0.71844  1.0000
  Fe  Fe87      1.0  0.78177  0.52409  0.73160  1.0000
  S   S172      1.0  0.77821  0.57542  0.74786  1.0000
  Fe  Fe88      1.0  0.72368  0.57084  0.74198  1.0000
  S   S173      1.0  0.69133  0.58362  0.77826  1.0000
  H   H1350     1.0  0.91353  0.84098  0.73770  1.0000
  S   S174      1.0  0.72640  0.51758  0.72827  1.0000
  H   H1351     1.0  0.65815  0.86365  0.97749  1.0000
  C   C755      1.0  0.89217  0.86192  0.77574  1.0000
  H   H1352     1.0  0.55467  0.77371  0.74742  1.0000
  H   H1353     1.0  0.49897  0.56203  0.81463  1.0000
  H   H1354     1.0  0.83945  0.56886  0.77933  1.0000
  S   S175      1.0  0.76056  0.97845  0.97382  1.0000
  C   C756      1.0  0.61773  0.86525  0.80119  1.0000
  Fe  Fe89      1.0  0.51377  0.77714  0.81695  1.0000
  S   S176      1.0  0.56850  0.78324  0.81848  1.0000
  Fe  Fe90      1.0  0.51705  0.71133  0.85195  1.0000
  S   S177      1.0  0.57225  0.71369  0.85444  1.0000
  Fe  Fe91      1.0  0.56443  0.76790  0.86251  1.0000
  S   S178      1.0  0.58686  0.79308  0.89925  1.0000
  Fe  Fe92      1.0  0.57054  0.72853  0.81019  1.0000
  S   S179      1.0  0.60120  0.71163  0.77432  1.0000
  S   S180      1.0  0.50918  0.76517  0.86207  1.0000
  S   S181      1.0  0.51585  0.72278  0.80654  1.0000
  C   C757      1.0  0.88482  0.91145  0.82285  1.0000
  C   C758      1.0  0.96747  0.85547  0.78295  1.0000
  C   C759      1.0  0.52406  0.96925  0.76714  1.0000
  C   C760      1.0  0.84724  0.49079  0.77684  1.0000
  C   C761      1.0  0.59043  0.89003  0.79294  1.0000
  S   S182      1.0  0.48804  0.66680  0.86907  1.0000
  H   H1355     1.0  0.82795  0.56985  0.82854  1.0000
  C   C762      1.0  0.66662  0.61945  0.77709  1.0000
  C   C763      1.0  0.66462  0.63865  0.75342  1.0000
  C   C764      1.0  0.64442  0.66683  0.75291  1.0000
  C   C765      1.0  0.62609  0.67602  0.77603  1.0000
  C   C766      1.0  0.62800  0.65682  0.79975  1.0000
  C   C767      1.0  0.64827  0.62862  0.80027  1.0000
  H   H1356     1.0  0.67858  0.63182  0.73548  1.0000
  H   H1357     1.0  0.64304  0.68159  0.73451  1.0000
  H   H1358     1.0  0.61405  0.66387  0.81765  1.0000
  H   H1359     1.0  0.64992  0.61392  0.81867  1.0000
  C   C768      1.0  0.82330  0.86456  0.98236  1.0000
  H   H1360     1.0  0.90876  0.94437  0.77448  1.0000
  H   H1361     1.0  0.88942  0.50620  0.71352  1.0000
  H   H1362     1.0  0.92961  0.68166  0.71111  1.0000
  H   H1363     1.0  0.56897  0.84838  0.84440  1.0000
  C   C769      1.0  0.96942  0.64957  0.98656  1.0000
  C   C770      1.0  0.66717  0.87041  0.88636  1.0000
  C   C771      1.0  0.65073  0.86817  0.91139  1.0000
  C   C772      1.0  0.62588  0.84449  0.91506  1.0000
  C   C773      1.0  0.61733  0.82305  0.89369  1.0000
  C   C774      1.0  0.63383  0.82518  0.86869  1.0000
  C   C775      1.0  0.65871  0.84886  0.86504  1.0000
  H   H1364     1.0  0.65686  0.88492  0.92780  1.0000
  H   H1365     1.0  0.61317  0.84283  0.93446  1.0000
  H   H1366     1.0  0.62784  0.80816  0.85238  1.0000
  H   H1367     1.0  0.67171  0.85026  0.84575  1.0000
  C   C776      1.0  0.88353  0.56920  0.73839  1.0000
  H   H1368     1.0  0.83892  0.50297  0.84556  1.0000
  C   C777      1.0  0.48014  0.61059  0.80696  1.0000
  H   H1369     1.0  0.52840  0.67507  0.91882  1.0000
  C   C778      1.0  0.49246  0.75784  0.73076  1.0000
  C   C779      1.0  0.56244  0.76713  0.72629  1.0000
  C   C780      1.0  0.52431  0.85688  0.86584  1.0000
  S   S183      1.0  0.82111  0.62772  0.69672  1.0000
  H   H1370     1.0  0.89949  0.84199  0.79017  1.0000
  H   H1371     1.0  0.81832  0.88079  0.96531  1.0000
  H   H1372     1.0  0.74148  0.76783  0.98133  1.0000
  C   C781      1.0  0.85091  0.84363  0.98180  1.0000
  H   H1373     1.0  0.86043  0.62428  0.77302  1.0000
  Fe  Fe93      1.0  0.72882  0.53950  0.68570  1.0000
  H   H1374     1.0  0.85835  0.53082  0.69676  1.0000
  H   H1375     1.0  0.53194  0.88148  0.81447  1.0000
  H   H1376     1.0  0.59856  0.80698  0.72341  1.0000
  H   H1377     1.0  0.52041  0.54748  0.89808  1.0000
  H   H1378     1.0  0.61060  0.85044  0.81903  1.0000
  C   C782      1.0  0.59259  0.94796  0.85675  1.0000
  C   C783      1.0  0.55577  0.87000  0.85254  1.0000
  H   H1379     1.0  0.88611  0.54544  0.98566  1.0000
  C   C784      1.0  0.48730  0.84444  0.76829  1.0000
  H   H1380     1.0  0.87457  0.55643  0.79865  1.0000
  H   H1381     1.0  0.61342  0.90053  0.84553  1.0000
  C   C785      1.0  0.53813  0.93671  0.77785  1.0000
  Fe  Fe94      1.0  0.77397  0.97607  0.92870  1.0000
  N   N44       1.0  0.88030  0.57090  0.93008  1.0000
  C   C786      1.0  0.89967  0.59010  0.90909  1.0000
  C   C787      1.0  0.86757  0.59469  0.95141  1.0000
  C   C788      1.0  0.90261  0.54518  0.94257  1.0000
  C   C789      1.0  0.85137  0.55340  0.91721  1.0000
  C   C790      1.0  0.82771  0.57540  0.90019  1.0000
  C   C791      1.0  0.49675  0.60515  0.94908  1.0000
  S   S184      1.0  0.90534  0.48518  0.85869  1.0000
  C   C792      1.0  0.89413  0.61312  0.96833  1.0000
  C   C793      1.0  0.93091  0.59203  0.86410  1.0000
  H   H1382     1.0  0.49062  0.49360  0.86140  1.0000
  H   H1383     1.0  0.97630  0.64730  0.94274  1.0000
  H   H1384     1.0  0.53815  0.83244  0.76173  1.0000
  H   H1385     1.0  0.92231  0.60060  0.91853  1.0000
  H   H1386     1.0  0.88548  0.61191  0.90184  1.0000
  H   H1387     1.0  0.85266  0.61446  0.94169  1.0000
  H   H1388     1.0  0.85042  0.58193  0.96570  1.0000
  H   H1389     1.0  0.92711  0.55592  0.94756  1.0000
  H   H1390     1.0  0.90792  0.52536  0.92740  1.0000
  H   H1391     1.0  0.85987  0.53269  0.90388  1.0000
  H   H1392     1.0  0.60191  0.90546  0.77660  1.0000
  H   H1393     1.0  0.84064  0.58681  0.88261  1.0000
  H   H1394     1.0  0.81693  0.59540  0.91283  1.0000
  H   H1395     1.0  0.48047  0.50243  0.89656  1.0000
  H   H1396     1.0  0.89037  0.55967  0.87219  1.0000
  C   C794      1.0  0.52203  0.71108  0.68743  1.0000
  H   H1397     1.0  0.83610  0.54137  0.93325  1.0000
  H   H1398     1.0  0.91223  0.59593  0.97746  1.0000
  H   H1399     1.0  0.90754  0.63088  0.95510  1.0000
  C   C795      1.0  0.54759  0.89497  0.82949  1.0000
  C   C796      1.0  0.62543  0.84122  0.77791  1.0000
  C   C797      1.0  0.85084  0.49729  0.82641  1.0000
  H   H1400     1.0  0.60492  0.57357  0.77561  1.0000
  H   H1401     1.0  0.94497  0.60555  0.77750  1.0000
  C   C798      1.0  0.91711  0.89974  0.80880  1.0000
  H   H1402     1.0  0.71951  0.85821  0.97459  1.0000
  C   C799      1.0  0.56299  0.94266  0.80150  1.0000
  C   C800      1.0  0.49546  0.89004  0.72412  1.0000
  H   H1403     1.0  0.88240  0.79576  0.76015  1.0000
  H   H1404     1.0  0.95255  0.83254  0.78303  1.0000
  C   C801      1.0  0.83261  0.49924  0.80182  1.0000
  N   N45       1.0  0.72827  0.79816  0.94669  1.0000
  C   C802      1.0  0.71715  0.76906  0.92965  1.0000
  H   H1405     1.0  0.96463  0.90673  0.77089  1.0000
  H   H1406     1.0  0.63353  0.85482  0.75936  1.0000
  C   C803      1.0  0.74217  0.82616  0.92969  1.0000
  C   C804      1.0  0.76086  0.81640  0.90310  1.0000
  C   C805      1.0  0.68715  0.77573  0.91079  1.0000
  H   H1407     1.0  0.62038  0.92742  0.89081  1.0000
  C   C806      1.0  0.93869  0.55303  0.77832  1.0000
  H   H1408     1.0  0.78408  0.54463  0.90574  1.0000
  C   C807      1.0  0.77969  0.84564  0.89106  1.0000
  C   C808      1.0  0.68326  0.74898  0.88895  1.0000
  C   C809      1.0  0.75308  0.78646  0.96754  1.0000
  H   H1409     1.0  0.71024  0.74797  0.94316  1.0000
  H   H1410     1.0  0.73735  0.75938  0.91671  1.0000
  C   C810      1.0  0.88942  0.52766  0.96861  1.0000
  H   H1411     1.0  0.79225  0.73236  0.98627  1.0000
  H   H1412     1.0  0.86721  0.80455  0.72635  1.0000
  H   H1413     1.0  0.68003  0.82086  0.94780  1.0000
  H   H1414     1.0  0.72229  0.84340  0.92308  1.0000
  H   H1415     1.0  0.75888  0.84173  0.94240  1.0000
  H   H1416     1.0  0.74322  0.80783  0.88731  1.0000
  H   H1417     1.0  0.77879  0.79632  0.90650  1.0000
  H   H1418     1.0  0.66410  0.77600  0.92306  1.0000
  H   H1419     1.0  0.68946  0.79996  0.90044  1.0000
  H   H1420     1.0  0.54545  0.87233  0.72335  1.0000
  S   S185      1.0  0.72403  0.59265  0.69950  1.0000
  H   H1421     1.0  0.95161  0.58649  0.74553  1.0000
  S   S186      1.0  0.48056  0.81564  0.79557  1.0000
  H   H1422     1.0  0.80701  0.50657  0.80230  1.0000
  C   C811      1.0  0.97497  0.54529  0.78365  1.0000
  C   C812      1.0  0.91138  0.57016  0.88375  1.0000
  H   H1423     1.0  0.79855  0.85466  0.90571  1.0000
  H   H1424     1.0  0.79232  0.83791  0.87196  1.0000
  H   H1425     1.0  0.76252  0.86607  0.88597  1.0000
  H   H1426     1.0  0.66077  0.75401  0.87672  1.0000
  H   H1427     1.0  0.70477  0.74893  0.87491  1.0000
  H   H1428     1.0  0.68061  0.72426  0.89857  1.0000
  H   H1429     1.0  0.95001  0.91544  0.67996  1.0000
  C   C813      1.0  0.78571  0.77192  0.95643  1.0000
  C   C814      1.0  0.97668  0.63336  0.96161  1.0000
  H   H1430     1.0  0.93594  0.91947  0.81200  1.0000
  H   H1431     1.0  0.92868  0.53233  0.76606  1.0000
  H   H1432     1.0  0.86702  0.84367  0.96416  1.0000
  C   C815      1.0  0.90298  0.62611  0.73641  1.0000
  C   C816      1.0  0.91036  0.92651  0.73378  1.0000
  H   H1433     1.0  0.97707  0.52139  0.79472  1.0000
  H   H1434     1.0  0.90316  0.66490  0.76848  1.0000
  C   C817      1.0  0.51360  0.65301  0.92115  1.0000
  S   S187      1.0  0.96732  0.48521  0.91898  1.0000
  C   C818      1.0  0.69848  0.81052  0.96222  1.0000
  H   H1435     1.0  0.57069  0.88136  0.86904  1.0000
  H   H1436     1.0  0.82996  0.74791  0.97154  1.0000
  C   C819      1.0  0.67257  0.85248  0.99441  1.0000
  C   C820      1.0  0.53890  0.78332  0.70518  1.0000
  S   S188      1.0  0.89274  0.79704  0.00276  1.0000
  H   H1437     1.0  0.57058  0.87592  0.78259  1.0000
  H   H1438     1.0  0.78172  0.75322  0.94025  1.0000
  C   C821      1.0  0.79904  0.55517  0.88884  1.0000
  H   H1439     1.0  0.90015  0.89926  0.86445  1.0000
  C   C822      1.0  0.51222  0.53902  0.87762  1.0000
  H   H1440     1.0  0.85802  0.57708  0.73298  1.0000
  H   H1441     1.0  0.56277  0.73986  0.72487  1.0000
  N   N46       1.0  0.55341  0.57548  0.84993  1.0000
  H   H1442     1.0  0.80130  0.79223  0.94826  1.0000
  C   C823      1.0  0.58163  0.57370  0.82964  1.0000
  C   C824      1.0  0.56648  0.58992  0.87631  1.0000
  C   C825      1.0  0.52672  0.59805  0.83956  1.0000
  C   C826      1.0  0.50896  0.58743  0.81307  1.0000
  C   C827      1.0  0.58312  0.62441  0.87408  1.0000
  C   C828      1.0  0.58067  0.54550  0.80805  1.0000
  C   C829      1.0  0.60778  0.54976  0.78669  1.0000
  C   C830      1.0  0.96528  0.89360  0.67908  1.0000
  C   C831      1.0  0.60058  0.63364  0.90067  1.0000
  H   H1443     1.0  0.60339  0.82613  0.77294  1.0000
  H   H1444     1.0  0.58409  0.59760  0.81846  1.0000
  H   H1445     1.0  0.60554  0.57032  0.84048  1.0000
  H   H1446     1.0  0.58440  0.57250  0.88581  1.0000
  H   H1447     1.0  0.54636  0.59331  0.89150  1.0000
  H   H1448     1.0  0.50789  0.60194  0.85562  1.0000
  H   H1449     1.0  0.53678  0.62311  0.83528  1.0000
  H   H1450     1.0  0.82537  0.61089  0.81447  1.0000
  H   H1451     1.0  0.52613  0.58908  0.79547  1.0000
  H   H1452     1.0  0.56420  0.64361  0.87025  1.0000
  H   H1453     1.0  0.60159  0.62545  0.85743  1.0000
  H   H1454     1.0  0.58478  0.52126  0.81817  1.0000
  H   H1455     1.0  0.55687  0.54434  0.79717  1.0000
  H   H1456     1.0  0.60665  0.52934  0.77154  1.0000
  H   H1457     1.0  0.86076  0.65126  0.98363  1.0000
  H   H1458     1.0  0.78295  0.57125  0.87620  1.0000
  C   C832      1.0  0.52176  0.87024  0.73333  1.0000
  H   H1459     1.0  0.86108  0.59865  0.83426  1.0000
  H   H1460     1.0  0.62117  0.61629  0.90475  1.0000
  H   H1461     1.0  0.61073  0.65906  0.89894  1.0000
  H   H1462     1.0  0.58310  0.63309  0.91814  1.0000
  H   H1463     1.0  0.86294  0.94417  0.71898  1.0000
  N   N47       1.0  0.57612  0.91183  0.81519  1.0000
  S   S189      1.0  0.50216  0.91762  0.69595  1.0000
  H   H1464     1.0  0.60759  0.77119  0.70239  1.0000
  H   H1465     1.0  0.94945  0.87893  0.74637  1.0000
  H   H1466     1.0  0.86601  0.89159  0.82277  1.0000
  H   H1467     1.0  0.92563  0.87800  0.82076  1.0000
  H   H1468     1.0  0.89461  0.61780  0.79508  1.0000
  H   H1469     1.0  0.64079  0.87871  0.80622  1.0000
  C   C833      1.0  0.70484  0.83796  0.98369  1.0000
  H   H1470     1.0  0.86773  0.92955  0.86221  1.0000
  H   H1471     1.0  0.76101  0.80725  0.98092  1.0000
  H   H1472     1.0  0.53086  0.91369  0.83877  1.0000
  H   H1473     1.0  0.97366  0.86224  0.80433  1.0000
  H   H1474     1.0  0.90865  0.90371  0.72143  1.0000
  C   C834      1.0  0.87856  0.63286  0.99168  1.0000
  C   C835      1.0  0.85915  0.57780  0.79318  1.0000
  H   H1475     1.0  0.87437  0.93344  0.81251  1.0000
  H   H1476     1.0  0.49516  0.77800  0.74609  1.0000
  H   H1477     1.0  0.80848  0.77187  0.99687  1.0000
  H   H1478     1.0  0.88027  0.54652  0.75080  1.0000
  H   H1479     1.0  0.92767  0.54955  0.89003  1.0000
  C   C836      1.0  0.85791  0.82288  0.00402  1.0000
  C   C837      1.0  0.87930  0.60561  0.77911  1.0000
  H   H1480     1.0  0.92649  0.70935  0.73990  1.0000
  H   H1481     1.0  0.56108  0.52548  0.86386  1.0000
  C   C838      1.0  0.59768  0.77957  0.72240  1.0000
  C   C839      1.0  0.90067  0.55884  0.71135  1.0000
  C   C840      1.0  0.61859  0.95090  0.87919  1.0000
  C   C841      1.0  0.60286  0.92226  0.83477  1.0000
  C   C842      1.0  0.90059  0.92123  0.76416  1.0000
  H   H1482     1.0  0.53133  0.52884  0.83760  1.0000
  H   H1483     1.0  0.96344  0.67561  0.98666  1.0000
  C   C843      1.0  0.54053  0.54127  0.85629  1.0000
  H   H1484     1.0  0.49622  0.88348  0.95930  1.0000
  C   C844      1.0  0.84244  0.59023  0.81923  1.0000
  Fe  Fe95      1.0  0.48699  0.53249  0.00025  1.0000
  H   H1485     1.0  0.92724  0.55395  0.71448  1.0000
  H   H1486     1.0  0.94332  0.65420  0.75556  1.0000
  H   H1487     1.0  0.56889  0.94122  0.86654  1.0000
  H   H1488     1.0  0.90931  0.94122  0.85400  1.0000
  H   H1489     1.0  0.93619  0.93530  0.73274  1.0000
  H   H1490     1.0  0.53074  0.83883  0.88208  1.0000
  H   H1491     1.0  0.88962  0.69275  0.72472  1.0000
  C   C845      1.0  0.91714  0.65786  0.74987  1.0000
  H   H1492     1.0  0.93835  0.57730  0.84595  1.0000
  C   C846      1.0  0.51776  0.84765  0.75519  1.0000
  C   C847      1.0  0.93467  0.58656  0.76344  1.0000
  H   H1493     1.0  0.51007  0.87732  0.87533  1.0000
  H   H1494     1.0  0.93816  0.51201  0.98222  1.0000
  C   C848      1.0  0.88919  0.84676  0.74676  1.0000
  H   H1495     1.0  0.86667  0.86860  0.78188  1.0000
  C   C849      1.0  0.89102  0.92086  0.85269  1.0000
  C   C850      1.0  0.86959  0.81451  0.74744  1.0000
  H   H1496     1.0  0.95358  0.60136  0.87423  1.0000
  H   H1497     1.0  0.86549  0.51543  0.96459  1.0000
  H   H1498     1.0  0.64545  0.82419  0.78426  1.0000
  H   H1499     1.0  0.87567  0.86396  0.73318  1.0000
  H   H1500     1.0  0.51717  0.92114  0.78461  1.0000
  C   C851      1.0  0.51575  0.63401  0.94538  1.0000
  H   H1501     1.0  0.55031  0.95885  0.81661  1.0000
  H   H1502     1.0  0.92658  0.55378  0.79857  1.0000
  H   H1503     1.0  0.48892  0.63649  0.80473  1.0000
  C   C852      1.0  0.94908  0.88424  0.76860  1.0000
  H   H1504     1.0  0.52087  0.48727  0.88811  1.0000
  C   C853      1.0  0.88419  0.48773  0.82655  1.0000
  H   H1505     1.0  0.53219  0.64185  0.96151  1.0000
  H   H1506     1.0  0.55106  0.78295  0.68474  1.0000
  S   S190      1.0  0.49998  0.58295  0.98073  1.0000
  H   H1507     1.0  0.84449  0.81879  0.75577  1.0000
  H   H1508     1.0  0.51595  0.70028  0.70762  1.0000
  H   H1509     1.0  0.87835  0.63242  0.72794  1.0000
  H   H1510     1.0  0.63232  0.54914  0.79664  1.0000
  H   H1511     1.0  0.50869  0.84411  0.85046  1.0000
  H   H1512     1.0  0.55038  0.92431  0.76035  1.0000
  C   C854      1.0  0.91559  0.68710  0.73012  1.0000
  H   H1513     1.0  0.65754  0.83305  0.00449  1.0000
  S   S191      1.0  0.78453  0.54071  0.68771  1.0000
  H   H1514     1.0  0.80819  0.53474  0.87576  1.0000
  C   C855      1.0  0.80519  0.75499  0.97920  1.0000
  H   H1515     1.0  0.50691  0.96407  0.74997  1.0000
  H   H1516     1.0  0.71824  0.82800  0.00166  1.0000
  H   H1517     1.0  0.64309  0.95683  0.87031  1.0000
  H   H1518     1.0  0.62395  0.93311  0.82322  1.0000
  C   C856      1.0  0.91343  0.50116  0.97848  1.0000
  H   H1519     1.0  0.68596  0.78970  0.97296  1.0000
  H   H1520     1.0  0.91583  0.61328  0.85714  1.0000
  H   H1521     1.0  0.61367  0.76951  0.73881  1.0000
  C   C857      1.0  0.88882  0.95283  0.72033  1.0000
  C   C858      1.0  0.50043  0.50335  0.88101  1.0000
  C   C859      1.0  0.49194  0.64379  0.90027  1.0000
  C   C860      1.0  0.88525  0.52745  0.69959  1.0000
  H   H1522     1.0  0.61171  0.97088  0.89369  1.0000
  H   H1523     1.0  0.50804  0.73750  0.73867  1.0000
  H   H1524     1.0  0.89803  0.64637  0.00306  1.0000
  H   H1525     1.0  0.58988  0.97275  0.84726  1.0000
  N   N48       1.0  0.50422  0.76984  0.70316  1.0000
  H   H1526     1.0  0.49070  0.55394  0.87119  1.0000
  S   S192      1.0  0.82464  0.49058  0.74533  1.0000
  H   H1527     1.0  0.86585  0.61609  0.00624  1.0000
  H   H1528     1.0  0.89652  0.52165  0.67946  1.0000
  H   H1529     1.0  0.58369  0.95767  0.79306  1.0000
  H   H1530     1.0  0.89780  0.57855  0.69573  1.0000
  H   H1531     1.0  0.54880  0.71631  0.68636  1.0000
  C   C861      1.0  0.48564  0.86482  0.97349  1.0000
  H   H1532     1.0  0.89803  0.95791  0.69936  1.0000
  C   C862      1.0  0.48164  0.79768  0.69447  1.0000
  C   C863      1.0  0.50229  0.74305  0.68172  1.0000
  H   H1533     1.0  0.50562  0.85452  0.98643  1.0000
  C   C864      1.0  0.80261  0.86479  0.00522  1.0000
  H   H1534     1.0  0.87203  0.67039  0.67796  1.0000
  H   H1535     1.0  0.51521  0.83337  0.67453  1.0000
  H   H1536     1.0  0.88963  0.97624  0.73225  1.0000
  Fe  Fe96      1.0  0.70695  0.98042  0.96163  1.0000
