data_image0
_chemical_formula_structural       H2CH2C2NC5HCH6NH4C2H5CH4C2NCH2CH5C2H3CHSH3SH3CHCHCH4C3HSFeSFeSCFeHFeCS2FeSFeSFeSFeSHC6H2CHCH5CHSHSCH7CH4C2H2CSH2CHNCHCH3CH3SH5CH3C2HCHCH2CH2FeSFeSCFeSFeS3HSFeSHFeSFeHS2H2C6H4CH5CH2C2HCHCH2CHSCHCH6CH2NC2HCH2C4SH10SC2H5CHFeH3CHC2H4C2HNH5FeS2FeS2FeSFeS3H5C6H4C6H6C4H2C4H4CHNC3HCH7CH4CHNC5HC6H11SH5CH4CH4CH3C2HC2H2C2HCHCH2CH4CH2CH3NCH6CHCHCH6CNHC2H2C2H5SH6CH2CHCH3CH2CHCHCH3CHSH3CH3CH2C3H4C2HCHC2HC2H2CHCFeS2FeS2FeSFeS3H5C6H4C6H4CH2CHC3H2NC7HC3H4CH9CH4CH9NC9H10C3NH4SH6CH2CH2CH5C5H5CHCHNH3CHCH3C3SH2C2H5C2H4FeS2FeS2FeSFeS3CHC6H4C7H3C3H6CNC3H2CHCSH3CHCHCH5CHC2H4C3H5CH4CHNH3CH7CH3C2HCH3CH3C2H3CH3CH2C2H4CH4C3H6CH4CH2CH3CHCH5CH4CH3NHCH2C3H2CH2SCH3CH4CH3C3HCSH2C2H3CH2C2H2C2HC2FeSCFeS2FeSFeS3C6H7C6H4CH3C3H3C3NH3C2HC2HCHC2HSH4CHC2H5C2HCHCHCHCH5SC2HCH6CH7NH4C2H4CH6CHC4NHCHC2H3C2H2CH3CH8CH5FeSHFeSFeCFeS3FeSFeSCFeSFeS3C6H5SH7CH10NH5CH3NC4HC4HC2H8CHCHCH3C2H2CHSH4CH2CSCH4CHCFeSHFeCSFeHS2FeS2FeS2FeHFeCS2CH3C6FeH5CHCH7SH2CH2CHNHCH2CHCH7C3H4C2HCHCH6C3H2C2H3NH6C2H3C2H3CH3CHSHC4H10CHCH
_chemical_formula_sum              "H768 C432 N24 S96 Fe48"
_cell_length_a       30.4896
_cell_length_b       30.747
_cell_length_c       46.4551
_cell_angle_alpha    90.1016
_cell_angle_beta     91.0196
_cell_angle_gamma    90.2319

_space_group_name_H-M_alt    "P 1"
_space_group_IT_number       1

loop_
  _space_group_symop_operation_xyz
  'x, y, z'

loop_
  _atom_site_type_symbol
  _atom_site_label
  _atom_site_symmetry_multiplicity
  _atom_site_fract_x
  _atom_site_fract_y
  _atom_site_fract_z
  _atom_site_occupancy
  H   H1        1.0  0.43022  0.35109  0.23781  1.0000
  H   H2        1.0  0.19261  0.05835  0.28775  1.0000
  C   C1        1.0  0.19554  0.08826  0.30105  1.0000
  H   H3        1.0  0.03184  0.17393  0.29869  1.0000
  H   H4        1.0  0.39890  0.37805  0.26462  1.0000
  C   C2        1.0  0.17545  0.12569  0.28380  1.0000
  C   C3        1.0  0.46990  0.38312  0.27269  1.0000
  N   N1        1.0  0.04146  0.23160  0.27301  1.0000
  C   C4        1.0  0.04582  0.24538  0.21762  1.0000
  C   C5        1.0  0.24375  0.09865  0.30995  1.0000
  C   C6        1.0  0.48503  0.05684  0.01180  1.0000
  C   C7        1.0  0.07910  0.25276  0.19388  1.0000
  C   C8        1.0  0.06831  0.24685  0.24791  1.0000
  H   H5        1.0  0.03005  0.43446  0.10642  1.0000
  C   C9        1.0  0.44773  0.44418  0.24090  1.0000
  H   H6        1.0  0.04831  0.15473  0.23472  1.0000
  H   H7        1.0  0.26108  0.11076  0.29058  1.0000
  H   H8        1.0  0.42333  0.45285  0.25758  1.0000
  H   H9        1.0  0.09944  0.22806  0.24702  1.0000
  H   H10       1.0  0.22996  0.50964  0.31585  1.0000
  H   H11       1.0  0.19338  0.13067  0.26346  1.0000
  N   N2        1.0  0.26924  0.06180  0.32362  1.0000
  H   H12       1.0  0.42976  0.42256  0.22563  1.0000
  H   H13       1.0  0.50580  0.04261  0.14417  1.0000
  H   H14       1.0  0.29445  0.46493  0.33028  1.0000
  H   H15       1.0  0.17639  0.15619  0.29668  1.0000
  C   C10       1.0  0.42871  0.35815  0.26108  1.0000
  C   C11       1.0  0.50305  0.37529  0.20939  1.0000
  H   H16       1.0  0.45158  0.29377  0.27407  1.0000
  H   H17       1.0  0.49424  0.34332  0.21874  1.0000
  H   H18       1.0  0.06611  0.09551  0.26936  1.0000
  H   H19       1.0  0.08208  0.17467  0.28016  1.0000
  H   H20       1.0  0.51270  0.02140  0.04804  1.0000
  C   C12       1.0  0.03164  0.10458  0.26425  1.0000
  H   H21       1.0  0.49689  0.35932  0.27636  1.0000
  H   H22       1.0  0.03773  0.49188  0.10048  1.0000
  H   H23       1.0  0.39112  0.51001  0.22402  1.0000
  H   H24       1.0  0.12773  0.26485  0.29095  1.0000
  C   C13       1.0  0.31554  0.07798  0.32900  1.0000
  C   C14       1.0  0.45854  0.48652  0.22433  1.0000
  N   N3        1.0  0.48608  0.42114  0.25503  1.0000
  C   C15       1.0  0.50848  0.45336  0.27513  1.0000
  H   H25       1.0  0.11748  0.21494  0.30947  1.0000
  H   H26       1.0  0.47646  0.08487  0.02462  1.0000
  C   C16       1.0  0.04692  0.18326  0.27792  1.0000
  H   H27       1.0  0.14078  0.11774  0.27836  1.0000
  H   H28       1.0  0.48409  0.48083  0.20807  1.0000
  H   H29       1.0  0.41694  0.32036  0.29988  1.0000
  H   H30       1.0  0.07873  0.28134  0.25110  1.0000
  H   H31       1.0  0.46046  0.39425  0.29458  1.0000
  C   C17       1.0  0.42238  0.31487  0.27661  1.0000
  C   C18       1.0  0.10742  0.24927  0.30767  1.0000
  H   H32       1.0  0.39324  0.29764  0.26747  1.0000
  H   H33       1.0  0.48370  0.46988  0.28875  1.0000
  H   H34       1.0  0.24167  0.12678  0.32485  1.0000
  C   C19       1.0  0.51948  0.40637  0.23349  1.0000
  H   H35       1.0  0.10387  0.22634  0.19395  1.0000
  S   S1        1.0  0.49855  0.32289  0.33470  1.0000
  H   H36       1.0  0.06196  0.25278  0.17258  1.0000
  H   H37       1.0  0.17552  0.08390  0.32053  1.0000
  H   H38       1.0  0.26568  0.03595  0.27995  1.0000
  S   S2        1.0  0.39541  0.50063  0.30975  1.0000
  H   H39       1.0  0.47457  0.38883  0.19734  1.0000
  H   H40       1.0  0.33047  0.08742  0.30817  1.0000
  H   H41       1.0  0.09597  0.28459  0.19686  1.0000
  C   C20       1.0  0.05774  0.25418  0.30018  1.0000
  H   H42       1.0  0.47691  0.03572  0.17743  1.0000
  C   C21       1.0  0.26862  0.02395  0.30255  1.0000
  H   H43       1.0  0.02890  0.21419  0.21321  1.0000
  C   C22       1.0  0.41784  0.50397  0.20858  1.0000
  H   H44       1.0  0.05230  0.28984  0.29884  1.0000
  H   H45       1.0  0.40612  0.48044  0.19195  1.0000
  H   H46       1.0  0.38565  0.13630  0.33484  1.0000
  H   H47       1.0  0.03853  0.24290  0.31904  1.0000
  C   C23       1.0  0.02855  0.15199  0.25443  1.0000
  C   C24       1.0  0.50416  0.02316  0.16426  1.0000
  C   C25       1.0  0.50563  0.02096  0.02514  1.0000
  H   H48       1.0  0.46997  0.51238  0.23944  1.0000
  S   S3        1.0  0.10140  0.02300  0.31880  1.0000
  Fe  Fe1       1.0  0.37308  0.38925  0.38880  1.0000
  S   S4        1.0  0.30934  0.36033  0.40623  1.0000
  Fe  Fe2       1.0  0.45554  0.44045  0.40840  1.0000
  S   S5        1.0  0.48133  0.44495  0.36317  1.0000
  C   C26       1.0  0.40659  0.35514  0.52874  1.0000
  Fe  Fe3       1.0  0.41176  0.46024  0.34972  1.0000
  H   H49       1.0  0.24907  0.04088  0.41118  1.0000
  Fe  Fe4       1.0  0.46140  0.37506  0.35883  1.0000
  C   C27       1.0  0.47348  0.39814  0.52369  1.0000
  S   S6        1.0  0.38692  0.46121  0.39526  1.0000
  S   S7        1.0  0.43996  0.36875  0.40458  1.0000
  Fe  Fe5       1.0  0.04692  0.15009  0.37496  1.0000
  S   S8        1.0  0.09333  0.16399  0.41215  1.0000
  Fe  Fe6       1.0  0.09804  0.06950  0.35682  1.0000
  S   S9        1.0  0.14707  0.07695  0.39315  1.0000
  Fe  Fe7       1.0  0.08809  0.09178  0.42040  1.0000
  S   S10       1.0  0.08049  0.06970  0.46712  1.0000
  Fe  Fe8       1.0  0.14803  0.14847  0.38192  1.0000
  S   S11       1.0  0.21405  0.18059  0.37121  1.0000
  H   H50       1.0  0.04492  0.03006  0.59288  1.0000
  C   C28       1.0  0.28280  0.31068  0.39572  1.0000
  C   C29       1.0  0.24238  0.29940  0.40803  1.0000
  C   C30       1.0  0.22057  0.26012  0.40063  1.0000
  C   C31       1.0  0.23908  0.23138  0.38089  1.0000
  C   C32       1.0  0.27933  0.24285  0.36845  1.0000
  C   C33       1.0  0.30103  0.28215  0.37575  1.0000
  H   H51       1.0  0.24125  0.07900  0.36464  1.0000
  H   H52       1.0  0.18971  0.25193  0.41043  1.0000
  C   C34       1.0  0.34542  0.45654  0.46837  1.0000
  H   H53       1.0  0.33201  0.29024  0.36606  1.0000
  C   C35       1.0  0.48685  0.29328  0.46027  1.0000
  H   H54       1.0  0.32453  0.45238  0.44870  1.0000
  H   H55       1.0  0.50558  0.32452  0.49975  1.0000
  H   H56       1.0  0.43991  0.42717  0.56125  1.0000
  H   H57       1.0  0.36921  0.31625  0.49636  1.0000
  H   H58       1.0  0.33838  0.31741  0.55903  1.0000
  C   C36       1.0  0.47450  0.31592  0.48831  1.0000
  H   H59       1.0  0.42906  0.44909  0.49284  1.0000
  S   S12       1.0  0.03888  0.07900  0.38472  1.0000
  H   H60       1.0  0.33852  0.35927  0.51336  1.0000
  S   S13       1.0  0.50127  0.45690  0.44669  1.0000
  C   C37       1.0  0.40635  0.42219  0.49863  1.0000
  H   H61       1.0  0.31418  0.28736  0.52937  1.0000
  H   H62       1.0  0.22789  0.32114  0.42349  1.0000
  H   H63       1.0  0.35527  0.38779  0.47195  1.0000
  H   H64       1.0  0.29400  0.22124  0.35305  1.0000
  H   H65       1.0  0.38672  0.43480  0.51682  1.0000
  H   H66       1.0  0.39664  0.37479  0.54759  1.0000
  H   H67       1.0  0.10015  0.02586  0.60777  1.0000
  C   C38       1.0  0.02746  0.04697  0.51195  1.0000
  H   H68       1.0  0.11146  0.30597  0.33606  1.0000
  H   H69       1.0  0.39613  0.41584  0.45211  1.0000
  H   H70       1.0  0.45696  0.28292  0.44800  1.0000
  H   H71       1.0  0.32365  0.45924  0.48720  1.0000
  C   C39       1.0  0.34533  0.30127  0.53820  1.0000
  C   C40       1.0  0.46742  0.43434  0.54675  1.0000
  H   H72       1.0  0.37194  0.15694  0.36985  1.0000
  H   H73       1.0  0.50683  0.26400  0.46516  1.0000
  C   C41       1.0  0.28672  0.49563  0.34175  1.0000
  S   S14       1.0  0.39314  0.39009  0.34269  1.0000
  H   H74       1.0  0.31815  0.51084  0.34900  1.0000
  H   H75       1.0  0.10027  0.25504  0.35418  1.0000
  C   C42       1.0  0.37583  0.41743  0.47167  1.0000
  H   H76       1.0  0.41789  0.34582  0.46885  1.0000
  N   N4        1.0  0.43229  0.38264  0.50805  1.0000
  C   C43       1.0  0.36390  0.33394  0.51679  1.0000
  H   H77       1.0  0.46555  0.37829  0.46764  1.0000
  C   C44       1.0  0.03389  0.04392  0.48212  1.0000
  H   H78       1.0  0.46068  0.46607  0.53618  1.0000
  H   H79       1.0  0.36876  0.27419  0.54192  1.0000
  H   H80       1.0  0.42770  0.32909  0.53805  1.0000
  C   C45       1.0  0.44639  0.35689  0.48212  1.0000
  H   H81       1.0  0.30601  0.11060  0.37098  1.0000
  H   H82       1.0  0.03753  0.17909  0.46542  1.0000
  H   H83       1.0  0.26707  0.48748  0.36093  1.0000
  S   S15       1.0  0.10156  0.13987  0.34419  1.0000
  H   H84       1.0  0.36486  0.48698  0.46623  1.0000
  H   H85       1.0  0.45611  0.29211  0.50139  1.0000
  H   H86       1.0  0.50653  0.31545  0.44665  1.0000
  H   H87       1.0  0.49022  0.37050  0.53466  1.0000
  H   H88       1.0  0.49758  0.41109  0.50802  1.0000
  C   C46       1.0  0.50420  0.49618  0.47487  1.0000
  H   H89       1.0  0.04978  0.06653  0.52496  1.0000
  H   H90       1.0  0.50528  0.46885  0.57969  1.0000
  H   H91       1.0  0.38638  0.10049  0.36584  1.0000
  C   C47       1.0  0.24700  0.04958  0.35121  1.0000
  C   C48       1.0  0.50881  0.43999  0.56549  1.0000
  H   H92       1.0  0.30497  0.02325  0.37456  1.0000
  C   C49       1.0  0.32088  0.11733  0.34982  1.0000
  H   H93       1.0  0.21361  0.03654  0.34652  1.0000
  C   C50       1.0  0.36926  0.12823  0.35533  1.0000
  H   H94       1.0  0.15449  0.26657  0.34149  1.0000
  H   H95       1.0  0.51422  0.41089  0.57920  1.0000
  C   C51       1.0  0.11892  0.27066  0.33659  1.0000
  H   H96       1.0  0.30552  0.14685  0.34053  1.0000
  H   H97       1.0  0.33680  0.05186  0.33780  1.0000
  Fe  Fe9       1.0  0.36333  0.06784  0.87450  1.0000
  S   S16       1.0  0.35221  0.11563  0.91045  1.0000
  Fe  Fe10      1.0  0.44748  0.11398  0.85636  1.0000
  S   S17       1.0  0.44321  0.16390  0.89142  1.0000
  C   C52       1.0  0.23771  0.13952  0.85438  1.0000
  Fe  Fe11      1.0  0.42452  0.10733  0.91974  1.0000
  S   S18       1.0  0.44836  0.10201  0.96642  1.0000
  Fe  Fe12      1.0  0.37130  0.16773  0.87922  1.0000
  S   S19       1.0  0.34004  0.23306  0.86768  1.0000
  S   S20       1.0  0.43456  0.05674  0.88553  1.0000
  S   S21       1.0  0.37677  0.12051  0.84248  1.0000
  H   H98       1.0  0.09571  0.16068  0.75681  1.0000
  S   S22       1.0  0.06382  0.38559  0.92729  1.0000
  Fe  Fe13      1.0  0.10680  0.45325  0.86385  1.0000
  S   S23       1.0  0.14613  0.44484  0.90491  1.0000
  H   H99       1.0  0.44190  0.20504  0.83374  1.0000
  Fe  Fe14      1.0  0.12522  0.37467  0.90200  1.0000
  S   S24       1.0  0.16532  0.31622  0.91715  1.0000
  Fe  Fe15      1.0  0.08203  0.45623  0.92749  1.0000
  H   H100      1.0  0.11727  0.18419  0.88366  1.0000
  S   S25       1.0  0.08989  0.38184  0.85925  1.0000
  S   S26       1.0  0.04443  0.47039  0.88658  1.0000
  H   H101      1.0  0.24793  0.14034  0.83155  1.0000
  H   H102      1.0  0.26048  0.16025  0.86742  1.0000
  C   C53       1.0  0.29254  0.25665  0.88265  1.0000
  C   C54       1.0  0.27080  0.23771  0.90576  1.0000
  C   C55       1.0  0.23253  0.25706  0.91647  1.0000
  C   C56       1.0  0.21545  0.29534  0.90415  1.0000
  C   C57       1.0  0.23743  0.31455  0.88124  1.0000
  C   C58       1.0  0.27582  0.29529  0.87061  1.0000
  H   H103      1.0  0.28341  0.20813  0.91533  1.0000
  H   H104      1.0  0.21584  0.24204  0.93427  1.0000
  H   H105      1.0  0.22477  0.34407  0.87166  1.0000
  H   H106      1.0  0.29255  0.31027  0.85282  1.0000
  C   C59       1.0  0.47829  0.38623  0.72387  1.0000
  H   H107      1.0  0.15319  0.18115  0.79256  1.0000
  H   H108      1.0  0.46694  0.35773  0.76521  1.0000
  H   H109      1.0  0.26150  0.47875  0.75833  1.0000
  H   H110      1.0  0.13547  0.33535  0.79719  1.0000
  H   H111      1.0  0.21920  0.51047  0.77432  1.0000
  C   C60       1.0  0.03703  0.51550  0.98788  1.0000
  H   H112      1.0  0.52165  0.37824  0.76009  1.0000
  H   H113      1.0  0.45464  0.28369  0.77382  1.0000
  C   C61       1.0  0.47501  0.05652  0.98214  1.0000
  C   C62       1.0  0.44646  0.23771  0.82411  1.0000
  H   H114      1.0  0.32717  0.47879  0.74098  1.0000
  C   C63       1.0  0.48179  0.23526  0.80125  1.0000
  H   H115      1.0  0.22129  0.43795  0.79558  1.0000
  C   C64       1.0  0.25206  0.49582  0.77820  1.0000
  H   H116      1.0  0.45624  0.26077  0.84152  1.0000
  H   H117      1.0  0.34035  0.08179  0.97742  1.0000
  C   C65       1.0  0.50974  0.31384  0.74034  1.0000
  H   H118      1.0  0.17364  0.26288  0.79628  1.0000
  S   S27       1.0  0.12629  0.48973  0.82333  1.0000
  C   C66       1.0  0.10810  0.19625  0.82803  1.0000
  H   H119      1.0  0.18193  0.15209  0.88028  1.0000
  C   C67       1.0  0.12332  0.21864  0.87755  1.0000
  H   H120      1.0  0.24068  0.10552  0.86224  1.0000
  H   H121      1.0  0.09238  0.12778  0.78876  1.0000
  H   H122      1.0  0.41452  0.24793  0.81449  1.0000
  H   H123      1.0  0.16910  0.13280  0.84431  1.0000
  H   H124      1.0  0.20886  0.28055  0.82516  1.0000
  H   H125      1.0  0.19354  0.33986  0.79095  1.0000
  C   C68       1.0  0.48681  0.27932  0.78524  1.0000
  H   H126      1.0  0.27843  0.44419  0.80561  1.0000
  H   H127      1.0  0.17258  0.35245  0.82595  1.0000
  N   N5        1.0  0.13969  0.22157  0.84704  1.0000
  C   C69       1.0  0.18540  0.20274  0.84680  1.0000
  C   C70       1.0  0.14095  0.26913  0.83855  1.0000
  H   H128      1.0  0.30170  0.05757  0.95222  1.0000
  C   C71       1.0  0.19035  0.15507  0.85722  1.0000
  H   H129      1.0  0.09384  0.25048  0.93010  1.0000
  H   H130      1.0  0.48845  0.30566  0.80173  1.0000
  C   C72       1.0  0.11933  0.19289  0.79579  1.0000
  C   C73       1.0  0.17514  0.28319  0.81590  1.0000
  C   C74       1.0  0.16861  0.33060  0.80699  1.0000
  C   C75       1.0  0.24713  0.46186  0.80194  1.0000
  S   S28       1.0  0.49671  0.11396  0.82020  1.0000
  H   H131      1.0  0.48273  0.29840  0.72737  1.0000
  H   H132      1.0  0.20761  0.22304  0.86059  1.0000
  H   H133      1.0  0.19970  0.20427  0.82506  1.0000
  H   H134      1.0  0.30659  0.51377  0.71247  1.0000
  H   H135      1.0  0.14902  0.28971  0.85770  1.0000
  H   H136      1.0  0.14892  0.23075  0.89298  1.0000
  H   H137      1.0  0.10351  0.16276  0.83656  1.0000
  H   H138      1.0  0.05358  0.17141  0.78262  1.0000
  H   H139      1.0  0.10788  0.27999  0.83099  1.0000
  H   H140      1.0  0.08397  0.27908  0.88025  1.0000
  S   S29       1.0  0.08315  0.49601  0.96916  1.0000
  C   C76       1.0  0.49425  0.35972  0.74980  1.0000
  C   C77       1.0  0.08824  0.16124  0.78013  1.0000
  H   H141      1.0  0.07495  0.21111  0.82854  1.0000
  H   H142      1.0  0.11504  0.22506  0.78538  1.0000
  H   H143      1.0  0.46770  0.41894  0.73112  1.0000
  H   H144      1.0  0.04888  0.24405  0.74719  1.0000
  H   H145      1.0  0.49554  0.17999  0.94932  1.0000
  C   C78       1.0  0.08026  0.24364  0.88403  1.0000
  H   H146      1.0  0.50518  0.39058  0.70825  1.0000
  Fe  Fe16      1.0  0.03025  0.39853  0.88466  1.0000
  H   H147      1.0  0.05246  0.23160  0.87052  1.0000
  H   H148      1.0  0.50370  0.22561  0.74154  1.0000
  H   H149      1.0  0.37952  0.03343  0.94520  1.0000
  C   C79       1.0  0.33357  0.50864  0.72837  1.0000
  H   H150      1.0  0.40363  0.49438  0.72609  1.0000
  C   C80       1.0  0.06744  0.23799  0.91547  1.0000
  C   C81       1.0  0.32431  0.05078  0.97068  1.0000
  H   H151      1.0  0.37059  0.47188  0.69709  1.0000
  H   H152      1.0  0.45001  0.36987  0.71295  1.0000
  H   H153      1.0  0.51260  0.22499  0.81198  1.0000
  H   H154      1.0  0.06115  0.20319  0.92034  1.0000
  C   C82       1.0  0.48663  0.02034  0.96576  1.0000
  C   C83       1.0  0.37528  0.50064  0.71133  1.0000
  H   H155      1.0  0.47984  0.02009  0.94289  1.0000
  N   N6        1.0  0.52427  0.28368  0.76432  1.0000
  H   H156      1.0  0.30517  0.03816  0.98900  1.0000
  H   H157      1.0  0.47173  0.20917  0.78587  1.0000
  H   H158      1.0  0.03711  0.25673  0.91963  1.0000
  H   H159      1.0  0.23716  0.47749  0.82238  1.0000
  H   H160      1.0  0.31468  0.51606  0.79735  1.0000
  Fe  Fe17      1.0  0.24914  0.81650  0.27796  1.0000
  S   S30       1.0  0.22325  0.80716  0.23247  1.0000
  S   S31       1.0  0.23349  0.86299  0.31471  1.0000
  Fe  Fe18      1.0  0.31167  0.73823  0.27421  1.0000
  S   S32       1.0  0.29134  0.72293  0.22870  1.0000
  S   S33       1.0  0.36257  0.70454  0.30280  1.0000
  Fe  Fe19      1.0  0.29431  0.79535  0.22145  1.0000
  S   S34       1.0  0.32360  0.81899  0.17953  1.0000
  Fe  Fe20      1.0  0.22217  0.73551  0.24267  1.0000
  S   S35       1.0  0.17022  0.68329  0.23436  1.0000
  S   S36       1.0  0.32010  0.80982  0.26597  1.0000
  S   S37       1.0  0.24261  0.74565  0.28892  1.0000
  H   H161      1.0  0.49714  0.98877  0.15827  1.0000
  H   H162      1.0  0.38546  0.67314  0.15346  1.0000
  H   H163      1.0  0.25392  0.63164  0.23422  1.0000
  H   H164      1.0  0.08182  0.75788  0.15958  1.0000
  H   H165      1.0  0.45957  0.82772  0.29942  1.0000
  C   C84       1.0  0.12593  0.68889  0.20949  1.0000
  C   C85       1.0  0.09597  0.65431  0.20599  1.0000
  C   C86       1.0  0.06105  0.65693  0.18580  1.0000
  C   C87       1.0  0.05603  0.69409  0.16878  1.0000
  C   C88       1.0  0.08555  0.72893  0.17259  1.0000
  C   C89       1.0  0.12037  0.72640  0.19286  1.0000
  H   H166      1.0  0.09987  0.62530  0.21891  1.0000
  H   H167      1.0  0.45548  0.68874  0.27930  1.0000
  H   H168      1.0  0.44317  0.64670  0.25341  1.0000
  H   H169      1.0  0.14309  0.75331  0.19546  1.0000
  C   C90       1.0  0.37780  0.83965  0.17775  1.0000
  C   C91       1.0  0.39865  0.84137  0.15103  1.0000
  C   C92       1.0  0.44227  0.85624  0.14903  1.0000
  C   C93       1.0  0.46536  0.86957  0.17381  1.0000
  C   C94       1.0  0.44427  0.86852  0.20047  1.0000
  C   C95       1.0  0.40063  0.85385  0.20241  1.0000
  H   H170      1.0  0.38110  0.83077  0.13181  1.0000
  H   H171      1.0  0.45817  0.85692  0.12839  1.0000
  H   H172      1.0  0.46182  0.87890  0.21972  1.0000
  H   H173      1.0  0.38457  0.85353  0.22296  1.0000
  H   H174      1.0  0.41516  0.78904  0.29654  1.0000
  H   H175      1.0  0.27269  0.93701  0.28631  1.0000
  C   C96       1.0  0.17350  0.92082  0.29030  1.0000
  C   C97       1.0  0.19586  0.90678  0.31512  1.0000
  C   C98       1.0  0.14463  0.95647  0.29170  1.0000
  C   C99       1.0  0.43795  0.80967  0.28402  1.0000
  H   H176      1.0  0.17842  0.90421  0.27007  1.0000
  H   H177      1.0  0.03855  0.71753  0.04047  1.0000
  C   C100      1.0  0.38505  0.55718  0.30880  1.0000
  C   C101      1.0  0.37024  0.57589  0.28283  1.0000
  C   C102      1.0  0.36246  0.62089  0.28084  1.0000
  C   C103      1.0  0.36954  0.64758  0.30485  1.0000
  H   H178      1.0  0.46709  0.78086  0.19350  1.0000
  H   H179      1.0  0.23087  0.55124  0.27020  1.0000
  H   H180      1.0  0.36482  0.55546  0.26414  1.0000
  H   H181      1.0  0.35150  0.63506  0.26069  1.0000
  C   C104      1.0  0.14174  0.61437  0.30803  1.0000
  H   H182      1.0  0.44357  0.67325  0.19298  1.0000
  N   N7        1.0  0.46056  0.72594  0.22231  1.0000
  C   C105      1.0  0.43656  0.75509  0.24285  1.0000
  C   C106      1.0  0.46577  0.78167  0.26427  1.0000
  C   C107      1.0  0.46959  0.66783  0.26237  1.0000
  H   H183      1.0  0.51934  0.71346  0.24789  1.0000
  C   C108      1.0  0.42722  0.69921  0.20555  1.0000
  H   H184      1.0  0.40519  0.68174  0.22053  1.0000
  H   H185      1.0  0.29918  0.96844  0.25881  1.0000
  H   H186      1.0  0.13050  0.54320  0.11010  1.0000
  H   H187      1.0  0.41223  0.73621  0.25533  1.0000
  H   H188      1.0  0.41649  0.77909  0.23073  1.0000
  H   H189      1.0  0.02523  0.63662  0.07803  1.0000
  H   H190      1.0  0.52093  0.01227  0.22259  1.0000
  C   C109      1.0  0.39640  0.72494  0.18493  1.0000
  H   H191      1.0  0.34322  0.71405  0.15421  1.0000
  H   H192      1.0  0.15339  0.63580  0.29055  1.0000
  H   H193      1.0  0.37538  0.74692  0.19749  1.0000
  H   H194      1.0  0.28993  0.58686  0.24338  1.0000
  C   C110      1.0  0.10122  0.58978  0.29687  1.0000
  H   H195      1.0  0.42792  0.88528  0.01959  1.0000
  N   N8        1.0  0.11897  0.63184  0.08860  1.0000
  C   C111      1.0  0.09567  0.60571  0.11120  1.0000
  C   C112      1.0  0.08982  0.66916  0.07958  1.0000
  C   C113      1.0  0.12837  0.60228  0.06352  1.0000
  C   C114      1.0  0.16184  0.65017  0.10011  1.0000
  C   C115      1.0  0.15933  0.67622  0.12869  1.0000
  H   H196      1.0  0.07553  0.61343  0.29022  1.0000
  C   C116      1.0  0.14768  0.62459  0.03658  1.0000
  C   C117      1.0  0.04250  0.52847  0.01676  1.0000
  C   C118      1.0  0.09712  0.54793  0.15020  1.0000
  C   C119      1.0  0.20488  0.69095  0.13910  1.0000
  C   C120      1.0  0.13787  0.97832  0.31787  1.0000
  C   C121      1.0  0.50313  0.63814  0.27712  1.0000
  H   H197      1.0  0.06630  0.58944  0.10160  1.0000
  H   H198      1.0  0.08255  0.62739  0.12818  1.0000
  H   H199      1.0  0.08058  0.68861  0.09871  1.0000
  H   H200      1.0  0.10784  0.69248  0.06577  1.0000
  H   H201      1.0  0.09179  0.57173  0.16778  1.0000
  H   H202      1.0  0.41479  0.74466  0.16921  1.0000
  H   H203      1.0  0.18659  0.62394  0.10299  1.0000
  H   H204      1.0  0.17635  0.67278  0.08417  1.0000
  H   H205      1.0  0.14505  0.65652  0.14617  1.0000
  H   H206      1.0  0.13909  0.70579  0.12563  1.0000
  H   H207      1.0  0.50560  0.67185  0.22305  1.0000
  S   S38       1.0  0.52112  0.88551  0.17289  1.0000
  H   H208      1.0  0.18008  0.63941  0.04182  1.0000
  H   H209      1.0  0.38913  0.90791  0.04429  1.0000
  H   H210      1.0  0.11597  0.52014  0.15923  1.0000
  H   H211      1.0  0.41871  0.83368  0.27126  1.0000
  H   H212      1.0  0.23893  0.00327  0.30570  1.0000
  C   C122      1.0  0.49093  0.69538  0.23829  1.0000
  H   H213      1.0  0.42818  0.94298  0.02710  1.0000
  H   H214      1.0  0.20201  0.70957  0.15952  1.0000
  H   H215      1.0  0.22627  0.66244  0.14336  1.0000
  H   H216      1.0  0.12565  0.65031  0.02806  1.0000
  C   C123      1.0  0.04618  0.65647  0.06388  1.0000
  H   H217      1.0  0.20000  0.66769  0.32903  1.0000
  H   H218      1.0  0.15223  0.57673  0.07013  1.0000
  H   H219      1.0  0.22038  0.71239  0.12293  1.0000
  H   H220      1.0  0.05212  0.63780  0.04391  1.0000
  C   C124      1.0  0.15439  0.59177  0.01232  1.0000
  H   H221      1.0  0.10949  0.56978  0.27779  1.0000
  H   H222      1.0  0.03826  0.63009  0.18323  1.0000
  H   H223      1.0  0.09830  0.58411  0.05674  1.0000
  C   C125      1.0  0.22768  0.58633  0.26568  1.0000
  C   C126      1.0  0.36610  0.69442  0.16776  1.0000
  H   H224      1.0  0.15393  0.58146  0.13548  1.0000
  C   C127      1.0  0.25533  0.59645  0.23940  1.0000
  C   C128      1.0  0.30251  0.95596  0.28117  1.0000
  H   H225      1.0  0.12733  0.96705  0.27244  1.0000
  H   H226      1.0  0.31584  0.97940  0.32404  1.0000
  C   C129      1.0  0.17827  0.58288  0.31879  1.0000
  C   C130      1.0  0.48741  0.75411  0.20262  1.0000
  H   H227      1.0  0.24242  0.57797  0.22050  1.0000
  C   C131      1.0  0.12277  0.56905  0.12590  1.0000
  H   H228      1.0  0.34635  0.67401  0.18243  1.0000
  C   C132      1.0  0.30912  0.99344  0.30251  1.0000
  H   H229      1.0  0.17756  0.55384  0.30464  1.0000
  H   H230      1.0  0.52408  0.92792  0.24190  1.0000
  C   C133      1.0  0.51627  0.98432  0.00886  1.0000
  H   H231      1.0  0.48790  0.80399  0.25262  1.0000
  H   H232      1.0  0.48594  0.76006  0.27819  1.0000
  H   H233      1.0  0.23070  0.64884  0.28600  1.0000
  H   H234      1.0  0.19289  0.59237  0.25953  1.0000
  C   C134      1.0  0.24124  0.61530  0.29187  1.0000
  H   H235      1.0  0.27756  0.61713  0.29300  1.0000
  H   H236      1.0  0.51740  0.61524  0.26135  1.0000
  C   C135      1.0  0.40685  0.91386  0.02398  1.0000
  H   H237      1.0  0.06479  0.53570  0.14225  1.0000
  H   H238      1.0  0.33108  0.93369  0.28231  1.0000
  H   H239      1.0  0.48666  0.61884  0.29406  1.0000
  N   N9        1.0  0.22370  0.60243  0.32089  1.0000
  C   C136      1.0  0.50986  0.73050  0.17732  1.0000
  H   H240      1.0  0.13136  0.63561  0.32605  1.0000
  H   H241      1.0  0.28119  0.53028  0.30201  1.0000
  H   H242      1.0  0.48563  0.71332  0.16327  1.0000
  H   H243      1.0  0.07396  0.52396  0.02739  1.0000
  H   H244      1.0  0.17531  0.56432  0.01971  1.0000
  H   H245      1.0  0.42593  0.53513  0.19780  1.0000
  C   C137      1.0  0.38462  0.62896  0.33078  1.0000
  H   H246      1.0  0.51106  0.78643  0.14842  1.0000
  C   C138      1.0  0.39196  0.58385  0.33286  1.0000
  H   H247      1.0  0.28285  0.67353  0.32748  1.0000
  C   C139      1.0  0.26125  0.52613  0.32160  1.0000
  H   H248      1.0  0.08787  0.56849  0.31394  1.0000
  H   H249      1.0  0.51417  0.77082  0.21494  1.0000
  H   H250      1.0  0.12238  0.57873  0.00438  1.0000
  H   H251      1.0  0.33878  0.01150  0.29566  1.0000
  H   H252      1.0  0.35368  0.94962  0.00518  1.0000
  H   H253      1.0  0.44558  0.53090  0.46288  1.0000
  C   C140      1.0  0.51051  0.55511  0.52196  1.0000
  N   N10       1.0  0.09428  0.93182  0.54054  1.0000
  H   H254      1.0  0.40359  0.56985  0.35294  1.0000
  C   C141      1.0  0.25422  0.57091  0.33604  1.0000
  C   C142      1.0  0.13115  0.85600  0.53802  1.0000
  H   H255      1.0  0.34738  0.84313  0.65500  1.0000
  H   H256      1.0  0.20446  0.99231  0.48098  1.0000
  C   C143      1.0  0.12365  0.89862  0.55485  1.0000
  C   C144      1.0  0.47256  0.52853  0.47823  1.0000
  H   H257      1.0  0.50466  0.68724  0.52996  1.0000
  H   H258      1.0  0.50691  0.69123  0.56877  1.0000
  H   H259      1.0  0.20464  0.63457  0.36037  1.0000
  H   H260      1.0  0.45130  0.58289  0.50396  1.0000
  H   H261      1.0  0.04100  0.94966  0.58839  1.0000
  S   S39       1.0  0.51324  0.59323  0.55080  1.0000
  H   H262      1.0  0.36878  0.67827  0.64605  1.0000
  H   H263      1.0  0.44191  0.64276  0.64743  1.0000
  H   H264      1.0  0.15446  0.98017  0.36296  1.0000
  H   H265      1.0  0.28944  0.72458  0.36783  1.0000
  H   H266      1.0  0.04031  0.89165  0.55538  1.0000
  H   H267      1.0  0.14421  0.86235  0.51631  1.0000
  C   C145      1.0  0.25745  0.70800  0.36384  1.0000
  H   H268      1.0  0.17502  0.94464  0.46866  1.0000
  H   H269      1.0  0.08769  0.96977  0.50165  1.0000
  C   C146      1.0  0.07362  0.96537  0.58988  1.0000
  H   H270      1.0  0.47274  0.77071  0.66011  1.0000
  C   C147      1.0  0.42549  0.65023  0.66729  1.0000
  H   H271      1.0  0.09531  0.94496  0.60369  1.0000
  H   H272      1.0  0.15658  0.99979  0.52232  1.0000
  H   H273      1.0  0.05438  0.00334  0.62689  1.0000
  C   C148      1.0  0.06049  0.85129  0.65319  1.0000
  H   H274      1.0  0.24293  0.56520  0.35843  1.0000
  H   H275      1.0  0.18204  0.94677  0.52211  1.0000
  C   C149      1.0  0.16011  0.96415  0.34265  1.0000
  H   H276      1.0  0.28786  0.58484  0.33803  1.0000
  C   C150      1.0  0.04776  0.91441  0.53743  1.0000
  H   H277      1.0  0.11217  0.91849  0.49624  1.0000
  C   C151      1.0  0.47587  0.55791  0.50158  1.0000
  H   H278      1.0  0.11912  0.82651  0.63384  1.0000
  H   H279      1.0  0.28609  0.64516  0.36137  1.0000
  H   H280      1.0  0.05974  0.86748  0.50191  1.0000
  C   C152      1.0  0.16405  0.82690  0.55396  1.0000
  H   H281      1.0  0.15612  0.91316  0.56058  1.0000
  S   S40       1.0  0.03708  0.86739  0.61972  1.0000
  H   H282      1.0  0.23599  0.73044  0.35134  1.0000
  H   H283      1.0  0.19646  0.84335  0.55609  1.0000
  H   H284      1.0  0.14823  0.99709  0.46895  1.0000
  C   C153      1.0  0.15713  0.96766  0.51140  1.0000
  H   H285      1.0  0.16836  0.79615  0.54177  1.0000
  H   H286      1.0  0.15202  0.81869  0.57576  1.0000
  H   H287      1.0  0.03187  0.91625  0.49115  1.0000
  C   C154      1.0  0.11106  0.94606  0.51158  1.0000
  H   H288      1.0  0.10970  0.88842  0.57580  1.0000
  H   H289      1.0  0.09999  0.83739  0.53611  1.0000
  C   C155      1.0  0.09371  0.97157  0.55971  1.0000
  C   C156      1.0  0.03504  0.89157  0.50853  1.0000
  C   C157      1.0  0.10183  0.83117  0.65373  1.0000
  H   H290      1.0  0.20619  0.91802  0.36055  1.0000
  H   H291      1.0  0.39065  0.64953  0.34937  1.0000
  H   H292      1.0  0.24218  0.70118  0.38489  1.0000
  H   H293      1.0  0.12750  0.98405  0.56389  1.0000
  C   C158      1.0  0.26492  0.66568  0.34732  1.0000
  C   C159      1.0  0.22087  0.64257  0.33969  1.0000
  H   H294      1.0  0.16818  0.57047  0.34022  1.0000
  C   C160      1.0  0.17199  0.97580  0.48058  1.0000
  H   H295      1.0  0.07569  0.99827  0.54870  1.0000
  C   C161      1.0  0.06805  0.00898  0.60519  1.0000
  C   C162      1.0  0.50888  0.70995  0.54844  1.0000
  H   H296      1.0  0.26527  0.98453  0.41198  1.0000
  C   C163      1.0  0.24800  0.00971  0.39902  1.0000
  C   C164      1.0  0.38405  0.67038  0.66658  1.0000
  H   H297      1.0  0.21332  0.99933  0.39599  1.0000
  H   H298      1.0  0.48154  0.73369  0.54779  1.0000
  C   C165      1.0  0.18915  0.92877  0.34123  1.0000
  H   H299      1.0  0.26840  0.98272  0.35901  1.0000
  C   C166      1.0  0.27023  0.01476  0.36997  1.0000
  Fe  Fe21      1.0  0.27292  0.73118  0.72862  1.0000
  S   S41       1.0  0.30280  0.73372  0.77277  1.0000
  S   S42       1.0  0.31003  0.70539  0.69007  1.0000
  Fe  Fe22      1.0  0.18960  0.77800  0.74751  1.0000
  S   S43       1.0  0.21500  0.78496  0.79336  1.0000
  S   S44       1.0  0.11998  0.80239  0.73892  1.0000
  Fe  Fe23      1.0  0.27953  0.80297  0.77387  1.0000
  S   S45       1.0  0.33309  0.85170  0.78626  1.0000
  Fe  Fe24      1.0  0.23594  0.71532  0.78851  1.0000
  S   S46       1.0  0.23147  0.66863  0.82637  1.0000
  S   S47       1.0  0.25268  0.80151  0.72845  1.0000
  S   S48       1.0  0.20717  0.70701  0.74395  1.0000
  H   H300      1.0  0.37525  0.66637  0.79822  1.0000
  H   H301      1.0  0.16338  0.53348  0.94909  1.0000
  H   H302      1.0  0.07847  0.59551  0.95859  1.0000
  H   H303      1.0  0.10136  0.66390  0.93239  1.0000
  H   H304      1.0  0.14033  0.66217  0.88949  1.0000
  C   C167      1.0  0.20317  0.61848  0.82449  1.0000
  C   C168      1.0  0.17496  0.60813  0.80141  1.0000
  C   C169      1.0  0.15180  0.56841  0.80122  1.0000
  C   C170      1.0  0.26175  0.57298  0.74376  1.0000
  C   C171      1.0  0.03844  0.85715  0.67903  1.0000
  C   C172      1.0  0.20853  0.58860  0.84710  1.0000
  H   H305      1.0  0.17050  0.63096  0.78392  1.0000
  H   H306      1.0  0.12974  0.56072  0.78341  1.0000
  H   H307      1.0  0.31236  0.96479  0.96571  1.0000
  H   H308      1.0  0.23069  0.59619  0.86487  1.0000
  C   C173      1.0  0.32581  0.89746  0.80887  1.0000
  C   C174      1.0  0.36090  0.92675  0.81304  1.0000
  C   C175      1.0  0.35665  0.96338  0.83102  1.0000
  C   C176      1.0  0.31736  0.97075  0.84524  1.0000
  C   C177      1.0  0.28228  0.94144  0.84113  1.0000
  C   C178      1.0  0.28639  0.90500  0.82295  1.0000
  H   H309      1.0  0.39146  0.92123  0.80217  1.0000
  H   H310      1.0  0.38377  0.98586  0.83388  1.0000
  H   H311      1.0  0.25178  0.94690  0.85209  1.0000
  H   H312      1.0  0.25916  0.88270  0.81990  1.0000
  C   C179      1.0  0.09868  0.82216  0.70569  1.0000
  H   H313      1.0  0.22690  0.57826  0.68722  1.0000
  H   H314      1.0  0.23308  0.58488  0.75605  1.0000
  C   C180      1.0  0.11199  0.64677  0.87797  1.0000
  H   H315      1.0  0.32584  0.62932  0.76348  1.0000
  C   C181      1.0  0.42341  0.64905  0.71928  1.0000
  C   C182      1.0  0.38252  0.67027  0.71855  1.0000
  C   C183      1.0  0.36230  0.68039  0.69216  1.0000
  H   H316      1.0  0.43864  0.64093  0.73977  1.0000
  H   H317      1.0  0.36679  0.67894  0.73835  1.0000
  N   N11       1.0  0.36938  0.93865  0.94455  1.0000
  C   C184      1.0  0.34307  0.89850  0.93687  1.0000
  C   C185      1.0  0.05652  0.70291  0.70930  1.0000
  C   C186      1.0  0.33813  0.97536  0.95054  1.0000
  C   C187      1.0  0.39844  0.95207  0.92017  1.0000
  C   C188      1.0  0.42967  0.91651  0.90872  1.0000
  C   C189      1.0  0.31629  0.90055  0.90815  1.0000
  C   C190      1.0  0.18348  0.55277  0.93404  1.0000
  H   H318      1.0  0.47997  0.90844  0.87670  1.0000
  C   C191      1.0  0.11564  0.58030  0.90697  1.0000
  C   C192      1.0  0.28546  0.53187  0.78721  1.0000
  C   C193      1.0  0.29157  0.85798  0.90245  1.0000
  H   H319      1.0  0.37682  0.86605  0.70306  1.0000
  H   H320      1.0  0.31916  0.89130  0.95406  1.0000
  H   H321      1.0  0.36469  0.86943  0.93605  1.0000
  H   H322      1.0  0.28174  0.62225  0.78719  1.0000
  C   C194      1.0  0.05214  0.57825  0.85362  1.0000
  H   H323      1.0  0.47104  0.85518  0.69796  1.0000
  H   H324      1.0  0.07348  0.54942  0.85568  1.0000
  H   H325      1.0  0.37860  0.96481  0.90170  1.0000
  H   H326      1.0  0.41952  0.97985  0.92695  1.0000
  H   H327      1.0  0.41106  0.88839  0.89974  1.0000
  H   H328      1.0  0.45207  0.90465  0.92603  1.0000
  H   H329      1.0  0.29173  0.92705  0.90863  1.0000
  H   H330      1.0  0.33788  0.90607  0.88955  1.0000
  H   H331      1.0  0.37528  0.58590  0.79849  1.0000
  C   C195      1.0  0.05733  0.84232  0.70511  1.0000
  H   H332      1.0  0.51529  0.70433  0.67269  1.0000
  H   H333      1.0  0.42262  0.95494  0.97417  1.0000
  H   H334      1.0  0.21403  0.56297  0.94558  1.0000
  H   H335      1.0  0.49783  0.75788  0.72393  1.0000
  C   C196      1.0  0.08597  0.68478  0.86403  1.0000
  H   H336      1.0  0.23858  0.63524  0.68240  1.0000
  H   H337      1.0  0.45445  0.73204  0.70508  1.0000
  H   H338      1.0  0.02488  0.59868  0.94195  1.0000
  H   H339      1.0  0.27268  0.86049  0.88184  1.0000
  H   H340      1.0  0.31490  0.83050  0.90060  1.0000
  H   H341      1.0  0.26821  0.85122  0.91998  1.0000
  H   H342      1.0  0.18089  0.61132  0.90953  1.0000
  H   H343      1.0  0.51533  0.95624  0.96631  1.0000
  H   H344      1.0  0.33031  0.58530  0.82306  1.0000
  N   N12       1.0  0.44026  0.79842  0.71657  1.0000
  C   C197      1.0  0.18535  0.54894  0.84688  1.0000
  C   C198      1.0  0.41852  0.78554  0.74439  1.0000
  C   C199      1.0  0.40492  0.80152  0.69341  1.0000
  C   C200      1.0  0.15637  0.53899  0.82417  1.0000
  C   C201      1.0  0.11411  0.70902  0.84229  1.0000
  C   C202      1.0  0.50239  0.84564  0.73984  1.0000
  C   C203      1.0  0.36576  0.83195  0.70003  1.0000
  C   C204      1.0  0.44654  0.75976  0.76676  1.0000
  C   C205      1.0  0.42540  0.75984  0.79634  1.0000
  H   H345      1.0  0.06714  0.60079  0.83799  1.0000
  H   H346      1.0  0.35468  0.57496  0.73634  1.0000
  H   H347      1.0  0.19008  0.52584  0.86416  1.0000
  H   H348      1.0  0.36569  0.53824  0.76459  1.0000
  H   H349      1.0  0.40522  0.81486  0.75526  1.0000
  H   H350      1.0  0.38937  0.76435  0.73991  1.0000
  H   H351      1.0  0.39107  0.76861  0.68861  1.0000
  H   H352      1.0  0.15269  0.80117  0.68002  1.0000
  H   H353      1.0  0.07604  0.70847  0.88073  1.0000
  H   H354      1.0  0.32949  0.66662  0.82259  1.0000
  C   C206      1.0  0.15849  0.59288  0.92363  1.0000
  C   C207      1.0  0.35937  0.01810  0.96208  1.0000
  C   C208      1.0  0.05382  0.61802  0.94917  1.0000
  N   N13       1.0  0.29953  0.56376  0.76427  1.0000
  H   H355      1.0  0.34861  0.82155  0.71973  1.0000
  H   H356      1.0  0.44948  0.72539  0.75956  1.0000
  H   H357      1.0  0.43816  0.86669  0.72786  1.0000
  H   H358      1.0  0.20150  0.61848  0.71007  1.0000
  S   S49       1.0  0.49684  0.61294  0.69568  1.0000
  H   H359      1.0  0.44531  0.74000  0.81161  1.0000
  H   H360      1.0  0.41770  0.89895  0.96683  1.0000
  H   H361      1.0  0.27575  0.63950  0.72934  1.0000
  H   H362      1.0  0.35233  0.89213  0.99769  1.0000
  H   H363      1.0  0.12689  0.62718  0.86056  1.0000
  H   H364      1.0  0.05606  0.67322  0.85243  1.0000
  C   C209      1.0  0.39799  0.92873  0.97055  1.0000
  H   H365      1.0  0.12336  0.68705  0.82438  1.0000
  H   H366      1.0  0.42343  0.79356  0.80489  1.0000
  C   C210      1.0  0.23193  0.60968  0.69865  1.0000
  H   H367      1.0  0.03991  0.84665  0.72499  1.0000
  H   H368      1.0  0.38165  0.64491  0.83411  1.0000
  C   C211      1.0  0.45830  0.93448  0.88485  1.0000
  H   H369      1.0  0.12581  0.56159  0.88784  1.0000
  H   H370      1.0  0.06738  0.66690  0.98230  1.0000
  H   H371      1.0  0.31987  0.98460  0.93052  1.0000
  H   H372      1.0  0.38065  0.01266  0.98131  1.0000
  H   H373      1.0  0.17085  0.60797  0.99409  1.0000
  C   C212      1.0  0.31164  0.60610  0.77904  1.0000
  C   C213      1.0  0.12095  0.81679  0.67987  1.0000
  C   C214      1.0  0.35855  0.64805  0.81549  1.0000
  C   C215      1.0  0.27076  0.60674  0.71983  1.0000
  C   C216      1.0  0.34494  0.60292  0.80470  1.0000
  H   H374      1.0  0.39186  0.74591  0.79499  1.0000
  H   H375      1.0  0.15157  0.61305  0.94276  1.0000
  H   H376      1.0  0.30016  0.59815  0.70734  1.0000
  H   H377      1.0  0.47914  0.96145  0.89331  1.0000
  H   H378      1.0  0.06013  0.67307  0.69606  1.0000
  C   C217      1.0  0.37391  0.92120  0.99925  1.0000
  H   H379      1.0  0.43768  0.94655  0.86662  1.0000
  C   C218      1.0  0.33969  0.54796  0.74886  1.0000
  H   H380      1.0  0.14453  0.72195  0.85277  1.0000
  N   N14       1.0  0.08670  0.61783  0.89804  1.0000
  H   H381      1.0  0.26892  0.54943  0.80502  1.0000
  H   H382      1.0  0.25000  0.54295  0.73283  1.0000
  H   H383      1.0  0.09708  0.55622  0.91990  1.0000
  C   C219      1.0  0.44520  0.63910  0.69366  1.0000
  H   H384      1.0  0.09543  0.73676  0.83301  1.0000
  C   C220      1.0  0.50696  0.98437  0.97909  1.0000
  H   H385      1.0  0.48008  0.77297  0.76955  1.0000
  H   H386      1.0  0.19264  0.53197  0.91560  1.0000
  H   H387      1.0  0.08173  0.72707  0.70293  1.0000
  C   C221      1.0  0.46182  0.84253  0.71947  1.0000
  C   C222      1.0  0.07327  0.64428  0.92381  1.0000
  C   C223      1.0  0.47202  0.76368  0.70733  1.0000
  S   S50       1.0  0.31146  0.01493  0.86934  1.0000
  H   H388      1.0  0.49213  0.84187  0.76248  1.0000
  H   H389      1.0  0.50104  0.91648  0.74319  1.0000
  C   C224      1.0  0.49610  0.77193  0.67869  1.0000
  C   C225      1.0  0.04580  0.59981  0.88351  1.0000
  H   H390      1.0  0.38295  0.52924  0.69764  1.0000
  H   H391      1.0  0.03053  0.57456  0.89730  1.0000
  H   H392      1.0  0.04813  0.66869  0.91730  1.0000
  H   H393      1.0  0.06253  0.69444  0.73227  1.0000
  H   H394      1.0  0.51312  0.80386  0.67892  1.0000
  C   C226      1.0  0.33218  0.83173  0.67519  1.0000
  C   C227      1.0  0.03913  0.64798  0.97341  1.0000
  H   H395      1.0  0.30466  0.85382  0.68036  1.0000
  H   H396      1.0  0.02517  0.62807  0.99100  1.0000
  H   H397      1.0  0.41879  0.81345  0.67290  1.0000
  H   H398      1.0  0.31860  0.79850  0.67179  1.0000
  Fe  Fe25      1.0  0.72630  0.28710  0.26668  1.0000
  S   S51       1.0  0.69932  0.28941  0.22175  1.0000
  S   S52       1.0  0.69962  0.33310  0.30043  1.0000
  Fe  Fe26      1.0  0.80085  0.22700  0.24955  1.0000
  S   S53       1.0  0.77957  0.22666  0.20262  1.0000
  S   S54       1.0  0.85923  0.18398  0.26111  1.0000
  Fe  Fe27      1.0  0.76912  0.29856  0.20843  1.0000
  S   S55       1.0  0.77686  0.35199  0.17504  1.0000
  Fe  Fe28      1.0  0.71177  0.21763  0.21971  1.0000
  S   S56       1.0  0.65703  0.17757  0.19870  1.0000
  S   S57       1.0  0.79607  0.29978  0.25362  1.0000
  S   S58       1.0  0.73307  0.21405  0.26640  1.0000
  C   C228      1.0  0.95755  0.39247  0.02527  1.0000
  H   H399      1.0  0.85891  0.37001  0.27360  1.0000
  C   C229      1.0  0.81892  0.39155  0.17498  1.0000
  C   C230      1.0  0.81385  0.42796  0.15706  1.0000
  C   C231      1.0  0.84680  0.45993  0.15572  1.0000
  C   C232      1.0  0.88529  0.45569  0.17225  1.0000
  C   C233      1.0  0.89031  0.41937  0.19034  1.0000
  C   C234      1.0  0.85717  0.38742  0.19180  1.0000
  H   H400      1.0  0.78428  0.43136  0.14404  1.0000
  H   H401      1.0  0.84232  0.48784  0.14192  1.0000
  H   H402      1.0  0.91999  0.41590  0.20323  1.0000
  H   H403      1.0  0.86140  0.35938  0.20561  1.0000
  C   C235      1.0  0.68141  0.04892  0.15117  1.0000
  C   C236      1.0  0.71484  0.06778  0.16832  1.0000
  C   C237      1.0  0.70807  0.10751  0.18269  1.0000
  C   C238      1.0  0.66769  0.12865  0.18002  1.0000
  C   C239      1.0  0.63433  0.10989  0.16276  1.0000
  C   C240      1.0  0.64127  0.07038  0.14819  1.0000
  C   C241      1.0  0.95183  0.15520  0.32173  1.0000
  H   H404      1.0  0.73399  0.12164  0.19593  1.0000
  H   H405      1.0  0.60314  0.12627  0.16041  1.0000
  H   H406      1.0  0.61580  0.05682  0.13434  1.0000
  C   C242      1.0  0.89131  0.18580  0.29317  1.0000
  C   C243      1.0  0.88902  0.22050  0.31260  1.0000
  C   C244      1.0  0.60366  0.04138  0.23399  1.0000
  H   H407      1.0  0.94109  0.36021  0.02440  1.0000
  H   H408      1.0  0.58774  0.49087  0.29715  1.0000
  H   H409      1.0  0.59105  0.45642  0.32847  1.0000
  H   H410      1.0  0.86519  0.24600  0.30902  1.0000
  H   H411      1.0  0.74610  0.44372  0.20262  1.0000
  H   H412      1.0  0.86824  0.46823  0.09086  1.0000
  C   C245      1.0  0.56829  0.47093  0.31225  1.0000
  N   N15       1.0  0.76383  0.46189  0.24640  1.0000
  C   C246      1.0  0.64364  0.33019  0.30965  1.0000
  C   C247      1.0  0.61486  0.30089  0.29601  1.0000
  C   C248      1.0  0.57058  0.29900  0.30402  1.0000
  H   H413      1.0  0.62683  0.27935  0.27948  1.0000
  H   H414      1.0  0.87977  0.38381  0.11486  1.0000
  C   C249      1.0  0.66592  0.40145  0.20709  1.0000
  H   H415      1.0  0.64259  0.42883  0.20931  1.0000
  C   C250      1.0  0.78717  0.42212  0.25791  1.0000
  S   S59       1.0  0.92760  0.49505  0.17088  1.0000
  H   H416      1.0  0.96168  0.39767  0.08688  1.0000
  H   H417      1.0  0.67836  0.40047  0.18474  1.0000
  H   H418      1.0  0.69085  0.40319  0.25052  1.0000
  C   C251      1.0  0.80664  0.50570  0.05681  1.0000
  H   H419      1.0  0.55301  0.06177  0.18576  1.0000
  C   C252      1.0  0.85738  0.38004  0.09593  1.0000
  H   H420      1.0  0.81123  0.44831  0.29955  1.0000
  C   C253      1.0  0.97856  0.46553  0.08065  1.0000
  H   H421      1.0  0.57673  0.05743  0.24592  1.0000
  H   H422      1.0  0.83111  0.40473  0.09739  1.0000
  H   H423      1.0  0.92422  0.12584  0.28323  1.0000
  H   H424      1.0  0.60411  0.02186  0.00944  1.0000
  H   H425      1.0  0.86050  0.30914  0.09779  1.0000
  C   C254      1.0  0.92405  0.42835  0.03308  1.0000
  H   H426      1.0  0.85908  0.37874  0.04915  1.0000
  C   C255      1.0  0.79781  0.49027  0.23210  1.0000
  C   C256      1.0  0.92237  0.15285  0.29812  1.0000
  H   H427      1.0  0.93072  0.43457  0.10736  1.0000
  H   H428      1.0  0.92803  0.33338  0.25515  1.0000
  H   H429      1.0  0.87006  0.39532  0.30797  1.0000
  H   H430      1.0  0.74612  0.05155  0.17059  1.0000
  C   C257      1.0  0.83555  0.33536  0.09803  1.0000
  C   C258      1.0  0.88261  0.38458  0.06737  1.0000
  C   C259      1.0  0.87746  0.46543  0.06784  1.0000
  H   H431      1.0  0.64800  0.37065  0.21117  1.0000
  H   H432      1.0  0.84274  0.46963  0.02591  1.0000
  H   H433      1.0  0.98507  0.39068  0.04111  1.0000
  H   H434      1.0  0.97969  0.30329  0.29118  1.0000
  H   H435      1.0  0.93597  0.28746  0.23172  1.0000
  C   C260      1.0  0.83488  0.46659  0.04905  1.0000
  H   H436      1.0  0.81872  0.47022  0.21783  1.0000
  H   H437      1.0  0.72308  0.43289  0.29763  1.0000
  H   H438      1.0  0.53558  0.43482  0.22330  1.0000
  H   H439      1.0  0.52813  0.41364  0.31220  1.0000
  C   C261      1.0  0.72999  0.44886  0.22375  1.0000
  H   H440      1.0  0.91028  0.28002  0.26613  1.0000
  N   N16       1.0  0.90703  0.42685  0.06338  1.0000
  H   H441      1.0  0.67499  0.47400  0.32914  1.0000
  H   H442      1.0  0.56878  0.41508  0.28481  1.0000
  H   H443      1.0  0.99623  0.46052  0.06025  1.0000
  C   C262      1.0  0.70410  0.40604  0.22867  1.0000
  H   H444      1.0  0.93857  0.46085  0.02843  1.0000
  H   H445      1.0  0.81851  0.36769  0.30178  1.0000
  H   H446      1.0  0.89528  0.49610  0.06323  1.0000
  H   H447      1.0  0.72632  0.37805  0.22555  1.0000
  H   H448      1.0  0.90581  0.35675  0.06666  1.0000
  H   H449      1.0  0.76207  0.51612  0.19406  1.0000
  H   H450      1.0  0.81169  0.33033  0.07997  1.0000
  C   C263      1.0  0.65276  0.09281  0.26289  1.0000
  H   H451      1.0  0.67519  0.03875  0.23832  1.0000
  H   H452      1.0  0.00569  0.31031  0.25709  1.0000
  H   H453      1.0  0.65320  0.11590  0.24459  1.0000
  C   C264      1.0  0.99328  0.24172  0.26930  1.0000
  C   C265      1.0  0.01301  0.46626  0.10491  1.0000
  H   H454      1.0  0.80171  0.40369  0.23975  1.0000
  C   C266      1.0  0.93610  0.29822  0.25457  1.0000
  H   H455      1.0  0.01913  0.08277  0.24685  1.0000
  H   H456      1.0  0.97917  0.22639  0.24959  1.0000
  H   H457      1.0  0.02080  0.27137  0.21565  1.0000
  C   C267      1.0  0.84401  0.38823  0.29160  1.0000
  H   H458      1.0  0.52671  0.34409  0.17070  1.0000
  H   H459      1.0  0.76402  0.39881  0.26779  1.0000
  H   H460      1.0  0.62596  0.10197  0.27757  1.0000
  C   C268      1.0  0.74332  0.48823  0.27008  1.0000
  C   C269      1.0  0.71027  0.46432  0.28954  1.0000
  H   H461      1.0  0.67900  0.45874  0.27751  1.0000
  H   H462      1.0  0.79690  0.50410  0.07972  1.0000
  H   H463      1.0  0.81753  0.33301  0.11854  1.0000
  C   C270      1.0  0.69918  0.49174  0.31588  1.0000
  H   H464      1.0  0.89661  0.42477  0.01716  1.0000
  H   H465      1.0  0.60923  0.06169  0.21461  1.0000
  H   H466      1.0  0.96285  0.49791  0.07985  1.0000
  C   C271      1.0  0.55461  0.32648  0.32560  1.0000
  H   H467      1.0  0.70602  0.47564  0.22023  1.0000
  H   H468      1.0  0.68455  0.09583  0.27479  1.0000
  C   C272      1.0  0.98111  0.29072  0.26875  1.0000
  C   C273      1.0  0.82413  0.43075  0.28064  1.0000
  H   H469      1.0  0.99752  0.47362  0.12584  1.0000
  H   H470      1.0  0.97616  0.13015  0.32500  1.0000
  H   H471      1.0  0.81463  0.43697  0.05200  1.0000
  H   H472      1.0  0.99355  0.15821  0.24919  1.0000
  C   C274      1.0  0.64664  0.04620  0.25200  1.0000
  H   H473      1.0  0.97474  0.22699  0.28714  1.0000
  H   H474      1.0  0.77643  0.50588  0.04310  1.0000
  H   H475      1.0  0.82056  0.50492  0.24844  1.0000
  H   H476      1.0  0.85122  0.45000  0.27131  1.0000
  C   C275      1.0  0.62765  0.35790  0.33112  1.0000
  C   C276      1.0  0.94399  0.42921  0.08542  1.0000
  C   C277      1.0  0.54388  0.43463  0.29603  1.0000
  H   H477      1.0  0.54490  0.49221  0.32367  1.0000
  H   H478      1.0  0.54865  0.27597  0.29351  1.0000
  H   H479      1.0  0.54961  0.39741  0.17723  1.0000
  H   H480      1.0  0.01156  0.09900  0.28360  1.0000
  H   H481      1.0  0.54659  0.38857  0.24454  1.0000
  H   H482      1.0  0.56800  0.35132  0.19847  1.0000
  C   C278      1.0  0.53916  0.36669  0.18768  1.0000
  H   H483      1.0  0.64714  0.02488  0.27117  1.0000
  H   H484      1.0  0.76926  0.50309  0.28414  1.0000
  H   H485      1.0  0.72515  0.51635  0.26090  1.0000
  H   H486      1.0  0.72904  0.49770  0.32940  1.0000
  C   C279      1.0  0.54780  0.02680  0.18085  1.0000
  H   H487      1.0  0.52485  0.47950  0.26269  1.0000
  H   H488      1.0  0.94947  0.09515  0.47428  1.0000
  C   C280      1.0  0.95090  0.19083  0.34037  1.0000
  H   H489      1.0  0.97398  0.16838  0.43253  1.0000
  H   H490      1.0  0.87348  0.04535  0.39631  1.0000
  H   H491      1.0  0.84854  0.06217  0.43866  1.0000
  C   C281      1.0  0.83706  0.22497  0.64825  1.0000
  H   H492      1.0  0.91132  0.20208  0.43004  1.0000
  C   C282      1.0  0.79278  0.09442  0.65395  1.0000
  H   H493      1.0  0.83285  0.19515  0.38782  1.0000
  H   H494      1.0  0.98742  0.19337  0.48303  1.0000
  H   H495      1.0  0.83835  0.24577  0.62877  1.0000
  H   H496      1.0  0.94743  0.11372  0.40255  1.0000
  H   H497      1.0  0.84429  0.10990  0.48526  1.0000
  C   C283      1.0  0.92621  0.08900  0.41279  1.0000
  H   H498      1.0  0.94894  0.06244  0.41952  1.0000
  H   H499      1.0  0.92212  0.14595  0.47623  1.0000
  H   H500      1.0  0.88888  0.07765  0.49910  1.0000
  H   H501      1.0  0.90945  0.17278  0.39618  1.0000
  C   C284      1.0  0.87787  0.07036  0.45224  1.0000
  H   H502      1.0  0.89840  0.12325  0.65268  1.0000
  H   H503      1.0  0.72295  0.42207  0.65029  1.0000
  H   H504      1.0  0.91799  0.25077  0.35042  1.0000
  N   N17       1.0  0.90373  0.10709  0.43891  1.0000
  H   H505      1.0  0.85598  0.15571  0.45060  1.0000
  C   C285      1.0  0.98016  0.14395  0.44951  1.0000
  H   H506      1.0  0.83285  0.22308  0.42227  1.0000
  H   H507      1.0  0.81986  0.04725  0.51493  1.0000
  C   C286      1.0  0.93746  0.12288  0.46090  1.0000
  C   C287      1.0  0.87167  0.14262  0.43103  1.0000
  C   C288      1.0  0.86114  0.07823  0.48327  1.0000
  H   H508      1.0  0.82573  0.04401  0.63000  1.0000
  H   H509      1.0  0.93995  0.06318  0.63229  1.0000
  C   C289      1.0  0.89037  0.18252  0.41512  1.0000
  H   H510      1.0  0.98842  0.07847  0.65261  1.0000
  H   H511      1.0  0.96682  0.11410  0.62467  1.0000
  S   S60       1.0  0.99065  0.19736  0.36822  1.0000
  C   C290      1.0  0.85361  0.21223  0.40422  1.0000
  H   H512      1.0  0.89786  0.04013  0.45315  1.0000
  H   H513      1.0  0.82173  0.19337  0.64208  1.0000
  H   H514      1.0  0.77718  0.10839  0.63504  1.0000
  C   C291      1.0  0.89563  0.07119  0.38841  1.0000
  H   H515      1.0  0.84405  0.12918  0.41772  1.0000
  H   H516      1.0  0.79848  0.04414  0.47852  1.0000
  H   H517      1.0  0.98790  0.02774  0.54813  1.0000
  H   H518      1.0  0.90216  0.20145  0.64335  1.0000
  C   C292      1.0  0.99253  0.02489  0.52516  1.0000
  H   H519      1.0  0.01442  0.14227  0.49114  1.0000
  H   H520      1.0  0.00134  0.11837  0.44022  1.0000
  H   H521      1.0  0.87556  0.09782  0.37896  1.0000
  C   C293      1.0  0.00632  0.16600  0.47386  1.0000
  C   C294      1.0  0.82021  0.05791  0.65102  1.0000
  C   C295      1.0  0.91893  0.22309  0.33604  1.0000
  H   H522      1.0  0.53804  0.44506  0.55195  1.0000
  C   C296      1.0  0.82884  0.04270  0.49205  1.0000
  S   S61       1.0  0.66834  0.49646  0.64054  1.0000
  H   H523      1.0  0.89981  0.03984  0.34662  1.0000
  H   H524      1.0  0.94158  0.02308  0.37223  1.0000
  C   C297      1.0  0.88337  0.21787  0.66039  1.0000
  C   C298      1.0  0.95807  0.09111  0.64208  1.0000
  H   H525      1.0  0.57151  0.37699  0.35601  1.0000
  H   H526      1.0  0.64975  0.38053  0.34185  1.0000
  H   H527      1.0  0.86806  0.24146  0.39397  1.0000
  C   C299      1.0  0.53908  0.49374  0.49507  1.0000
  H   H528      1.0  0.94496  0.07571  0.35514  1.0000
  H   H529      1.0  0.56382  0.46893  0.49266  1.0000
  C   C300      1.0  0.92224  0.05125  0.36418  1.0000
  C   C301      1.0  0.58335  0.35594  0.33918  1.0000
  H   H530      1.0  0.89810  0.25038  0.66456  1.0000
  H   H531      1.0  0.96404  0.17501  0.66141  1.0000
  C   C302      1.0  0.92896  0.11326  0.66412  1.0000
  C   C303      1.0  0.66669  0.45516  0.66711  1.0000
  H   H532      1.0  0.81620  0.24125  0.66434  1.0000
  C   C304      1.0  0.69852  0.42214  0.66690  1.0000
  C   C305      1.0  0.63517  0.45490  0.68862  1.0000
  Fe  Fe29      1.0  0.74988  0.20310  0.72356  1.0000
  S   S62       1.0  0.78378  0.19094  0.76611  1.0000
  C   C306      1.0  0.99721  0.20863  0.72431  1.0000
  Fe  Fe30      1.0  0.71395  0.29208  0.74246  1.0000
  S   S63       1.0  0.74673  0.28631  0.78594  1.0000
  S   S64       1.0  0.66793  0.34996  0.73748  1.0000
  Fe  Fe31      1.0  0.80530  0.26099  0.76297  1.0000
  S   S65       1.0  0.87651  0.28340  0.76696  1.0000
  Fe  Fe32      1.0  0.72192  0.21739  0.78546  1.0000
  S   S66       1.0  0.68874  0.19504  0.82629  1.0000
  S   S67       1.0  0.77440  0.27187  0.71922  1.0000
  S   S68       1.0  0.68626  0.22421  0.74319  1.0000
  C   C307      1.0  0.93754  0.34942  0.84718  1.0000
  C   C308      1.0  0.89483  0.33209  0.84800  1.0000
  C   C309      1.0  0.87572  0.31175  0.82363  1.0000
  C   C310      1.0  0.89899  0.30908  0.79805  1.0000
  C   C311      1.0  0.94147  0.32698  0.79705  1.0000
  C   C312      1.0  0.96079  0.34690  0.82154  1.0000
  H   H533      1.0  0.87664  0.33386  0.86775  1.0000
  H   H534      1.0  0.84321  0.29769  0.82478  1.0000
  H   H535      1.0  0.95952  0.32548  0.77727  1.0000
  H   H536      1.0  0.99353  0.36044  0.82059  1.0000
  H   H537      1.0  0.99942  0.37368  0.99001  1.0000
  H   H538      1.0  0.01753  0.27672  0.72211  1.0000
  H   H539      1.0  0.78441  0.46824  0.72607  1.0000
  C   C313      1.0  0.54891  0.13916  0.82182  1.0000
  C   C314      1.0  0.56317  0.16318  0.84583  1.0000
  C   C315      1.0  0.60608  0.18033  0.84700  1.0000
  C   C316      1.0  0.63447  0.17481  0.82377  1.0000
  C   C317      1.0  0.61948  0.15245  0.79927  1.0000
  C   C318      1.0  0.57700  0.13443  0.79841  1.0000
  H   H540      1.0  0.87854  0.37120  0.69167  1.0000
  H   H541      1.0  0.61726  0.19824  0.86582  1.0000
  H   H542      1.0  0.64114  0.14787  0.78133  1.0000
  H   H543      1.0  0.56611  0.11612  0.77968  1.0000
  C   C319      1.0  0.84074  0.03981  0.67533  1.0000
  H   H544      1.0  0.99413  0.26063  0.75607  1.0000
  H   H545      1.0  0.73806  0.43553  0.73379  1.0000
  H   H546      1.0  0.95108  0.40314  0.97885  1.0000
  C   C320      1.0  0.56837  0.06293  0.87813  1.0000
  C   C321      1.0  0.80611  0.09493  0.70539  1.0000
  C   C322      1.0  0.83334  0.05837  0.70249  1.0000
  H   H547      1.0  0.80080  0.10894  0.72640  1.0000
  H   H548      1.0  0.79946  0.35991  0.80576  1.0000
  H   H549      1.0  0.85145  0.43041  0.72261  1.0000
  C   C323      1.0  0.86316  0.36351  0.71255  1.0000
  C   C324      1.0  0.66756  0.38911  0.70955  1.0000
  C   C325      1.0  0.87180  0.43341  0.78564  1.0000
  N   N18       1.0  0.79134  0.42974  0.76501  1.0000
  H   H550      1.0  0.80780  0.40428  0.70275  1.0000
  H   H551      1.0  0.73368  0.39580  0.77978  1.0000
  H   H552      1.0  0.86092  0.16210  0.68472  1.0000
  C   C326      1.0  0.91881  0.14681  0.72580  1.0000
  C   C327      1.0  0.78309  0.38944  0.81381  1.0000
  H   H553      1.0  0.95798  0.23815  0.69108  1.0000
  C   C328      1.0  0.80691  0.39009  0.74895  1.0000
  C   C329      1.0  0.90192  0.16858  0.75360  1.0000
  H   H554      1.0  0.72094  0.13384  0.90801  1.0000
  C   C330      1.0  0.55846  0.02275  0.85973  1.0000
  H   H555      1.0  0.59557  0.17606  0.73693  1.0000
  C   C331      1.0  0.01548  0.25015  0.73821  1.0000
  C   C332      1.0  0.88934  0.13458  0.77598  1.0000
  H   H556      1.0  0.71189  0.48661  0.76924  1.0000
  S   S69       1.0  0.75304  0.16054  0.68357  1.0000
  H   H557      1.0  0.59643  0.08003  0.86829  1.0000
  H   H558      1.0  0.93162  0.23723  0.72454  1.0000
  H   H559      1.0  0.94901  0.12839  0.73166  1.0000
  H   H560      1.0  0.89448  0.12131  0.71962  1.0000
  C   C333      1.0  0.56343  0.15795  0.95218  1.0000
  H   H561      1.0  0.81765  0.47673  0.79553  1.0000
  C   C334      1.0  0.95169  0.21692  0.70991  1.0000
  C   C335      1.0  0.52917  0.19349  0.94741  1.0000
  H   H562      1.0  0.61063  0.48021  0.68908  1.0000
  H   H563      1.0  0.55441  0.13672  0.90825  1.0000
  H   H564      1.0  0.87273  0.18866  0.74890  1.0000
  H   H565      1.0  0.92739  0.18995  0.76357  1.0000
  H   H566      1.0  0.86573  0.40386  0.79851  1.0000
  C   C336      1.0  0.53430  0.24007  0.75099  1.0000
  C   C337      1.0  0.57866  0.05052  0.90988  1.0000
  H   H567      1.0  0.68971  0.06773  0.93106  1.0000
  C   C338      1.0  0.56876  0.24011  0.72686  1.0000
  H   H568      1.0  0.88978  0.42300  0.76627  1.0000
  C   C339      1.0  0.74067  0.49679  0.75651  1.0000
  H   H569      1.0  0.99575  0.18347  0.74129  1.0000
  C   C340      1.0  0.95265  0.15264  0.67855  1.0000
  H   H570      1.0  0.62280  0.09414  0.97208  1.0000
  C   C341      1.0  0.76398  0.45629  0.74404  1.0000
  H   H571      1.0  0.91803  0.11412  0.78190  1.0000
  H   H572      1.0  0.87770  0.15120  0.79566  1.0000
  H   H573      1.0  0.86237  0.11345  0.76753  1.0000
  H   H574      1.0  0.55931  0.14515  0.97433  1.0000
  H   H575      1.0  0.66470  0.05216  0.89690  1.0000
  S   S70       1.0  0.96010  0.37408  0.87863  1.0000
  C   C342      1.0  0.56413  0.30388  0.77884  1.0000
  C   C343      1.0  0.58947  0.27554  0.80087  1.0000
  H   H576      1.0  0.93319  0.44491  0.80878  1.0000
  C   C344      1.0  0.62862  0.30058  0.81369  1.0000
  H   H577      1.0  0.72351  0.36391  0.68749  1.0000
  H   H578      1.0  0.84528  0.33222  0.71026  1.0000
  H   H579      1.0  0.58804  0.31494  0.76253  1.0000
  H   H580      1.0  0.98330  0.13958  0.68857  1.0000
  H   H581      1.0  0.60247  0.24589  0.79051  1.0000
  H   H582      1.0  0.55484  0.33390  0.79058  1.0000
  C   C345      1.0  0.60126  0.07117  0.95972  1.0000
  H   H583      1.0  0.59906  0.25738  0.73383  1.0000
  H   H584      1.0  0.73475  0.40430  0.84645  1.0000
  H   H585      1.0  0.64602  0.28007  0.82983  1.0000
  H   H586      1.0  0.65201  0.30929  0.79657  1.0000
  H   H587      1.0  0.61767  0.33070  0.82460  1.0000
  H   H588      1.0  0.88692  0.47227  0.82389  1.0000
  H   H589      1.0  0.72211  0.35637  0.82530  1.0000
  N   N19       1.0  0.92651  0.17684  0.70068  1.0000
  H   H590      1.0  0.55142  0.17560  0.71039  1.0000
  H   H591      1.0  0.77842  0.36890  0.74281  1.0000
  H   H592      1.0  0.64762  0.13360  0.93383  1.0000
  H   H593      1.0  0.86460  0.21077  0.70449  1.0000
  C   C346      1.0  0.55797  0.12083  0.92959  1.0000
  C   C347      1.0  0.69888  0.38911  0.68792  1.0000
  H   H594      1.0  0.69609  0.11766  0.87395  1.0000
  H   H595      1.0  0.53703  0.31983  0.72520  1.0000
  H   H596      1.0  0.92056  0.08854  0.68048  1.0000
  H   H597      1.0  0.84903  0.04449  0.72140  1.0000
  C   C348      1.0  0.67422  0.07994  0.91090  1.0000
  H   H598      1.0  0.59606  0.17369  0.95105  1.0000
  H   H599      1.0  0.62666  0.12875  0.89845  1.0000
  H   H600      1.0  0.88958  0.36003  0.72915  1.0000
  H   H601      1.0  0.54569  0.21652  0.76760  1.0000
  H   H602      1.0  0.76494  0.35473  0.85249  1.0000
  H   H603      1.0  0.56832  0.26653  0.81901  1.0000
  C   C349      1.0  0.61962  0.02449  0.96372  1.0000
  H   H604      1.0  0.55552  0.25619  0.70719  1.0000
  C   C350      1.0  0.88248  0.19078  0.68855  1.0000
  C   C351      1.0  0.63480  0.10934  0.91803  1.0000
  C   C352      1.0  0.74902  0.37542  0.83576  1.0000
  C   C353      1.0  0.90251  0.46279  0.80338  1.0000
  N   N20       1.0  0.59412  0.08728  0.92919  1.0000
  H   H605      1.0  0.56957  0.07067  0.97137  1.0000
  C   C354      1.0  0.63578  0.42213  0.70980  1.0000
  H   H606      1.0  0.80744  0.40993  0.82565  1.0000
  C   C355      1.0  0.58086  0.19369  0.71830  1.0000
  C   C356      1.0  0.76156  0.41544  0.78888  1.0000
  H   H607      1.0  0.74663  0.44397  0.79955  1.0000
  H   H608      1.0  0.82763  0.36900  0.76290  1.0000
  H   H609      1.0  0.60532  0.19455  0.70086  1.0000
  C   C357      1.0  0.83192  0.39999  0.72077  1.0000
  C   C358      1.0  0.70931  0.10563  0.89494  1.0000
  H   H610      1.0  0.54844  0.03556  0.91874  1.0000
  H   H611      1.0  0.61157  0.42252  0.72654  1.0000
  C   C359      1.0  0.82878  0.45748  0.77669  1.0000
  H   H612      1.0  0.83868  0.48232  0.76059  1.0000
  H   H613      1.0  0.54117  0.16830  0.86347  1.0000
  H   H614      1.0  0.73778  0.08433  0.89061  1.0000
  C   C360      1.0  0.78581  0.11325  0.68110  1.0000
  H   H615      1.0  0.55154  0.03290  0.83716  1.0000
  H   H616      1.0  0.60284  0.02373  0.90946  1.0000
  H   H617      1.0  0.02085  0.19767  0.70791  1.0000
  H   H618      1.0  0.53902  0.08408  0.87685  1.0000
  H   H619      1.0  0.99124  0.51030  0.95226  1.0000
  H   H620      1.0  0.91115  0.49244  0.79107  1.0000
  H   H621      1.0  0.99674  0.43134  0.99607  1.0000
  H   H622      1.0  0.76320  0.51621  0.77050  1.0000
  C   C361      1.0  0.97722  0.40080  0.99574  1.0000
  H   H623      1.0  0.70027  0.50819  0.71802  1.0000
  H   H624      1.0  0.52577  0.10488  0.93348  1.0000
  H   H625      1.0  0.53260  0.20842  0.92580  1.0000
  H   H626      1.0  0.53362  0.21931  0.96396  1.0000
  H   H627      1.0  0.66017  0.03714  0.00207  1.0000
  Fe  Fe33      1.0  0.96381  0.64464  0.13343  1.0000
  S   S71       1.0  0.91366  0.66234  0.09937  1.0000
  H   H628      1.0  0.76850  0.90375  0.11178  1.0000
  Fe  Fe34      1.0  0.91943  0.55684  0.14465  1.0000
  S   S72       1.0  0.86582  0.56878  0.11200  1.0000
  Fe  Fe35      1.0  0.92066  0.59322  0.08415  1.0000
  C   C362      1.0  0.70091  0.94311  0.20262  1.0000
  Fe  Fe36      1.0  0.86368  0.63688  0.13005  1.0000
  S   S73       1.0  0.80439  0.67333  0.14702  1.0000
  S   S74       1.0  0.97448  0.57739  0.11584  1.0000
  S   S75       1.0  0.91374  0.62289  0.16507  1.0000
  Fe  Fe37      1.0  0.55966  0.89672  0.13186  1.0000
  S   S76       1.0  0.56012  0.86041  0.08969  1.0000
  Fe  Fe38      1.0  0.63762  0.95349  0.11629  1.0000
  S   S77       1.0  0.64392  0.92225  0.07280  1.0000
  C   C363      1.0  0.66179  0.94978  0.22218  1.0000
  Fe  Fe39      1.0  0.57033  0.92654  0.06947  1.0000
  S   S78       1.0  0.01504  0.69730  0.14141  1.0000
  Fe  Fe40      1.0  0.63375  0.85843  0.09527  1.0000
  S   S79       1.0  0.67592  0.80233  0.07925  1.0000
  S   S80       1.0  0.56469  0.96322  0.11151  1.0000
  S   S81       1.0  0.63250  0.88923  0.13892  1.0000
  C   C364      1.0  0.76938  0.70938  0.12777  1.0000
  C   C365      1.0  0.76886  0.71144  0.09770  1.0000
  C   C366      1.0  0.74000  0.74010  0.08328  1.0000
  C   C367      1.0  0.71168  0.76725  0.09869  1.0000
  C   C368      1.0  0.71253  0.76550  0.12879  1.0000
  C   C369      1.0  0.74109  0.73652  0.14321  1.0000
  H   H629      1.0  0.79019  0.69055  0.08554  1.0000
  H   H630      1.0  0.73944  0.74115  0.05999  1.0000
  H   H631      1.0  0.69085  0.78613  0.14089  1.0000
  H   H632      1.0  0.74121  0.73506  0.16648  1.0000
  H   H633      1.0  0.84152  0.80138  0.06495  1.0000
  S   S82       1.0  0.92166  0.57536  0.03657  1.0000
  H   H634      1.0  0.80378  0.58386  0.18905  1.0000
  H   H635      1.0  0.55119  0.74536  0.14089  1.0000
  H   H636      1.0  0.92170  0.74274  0.05658  1.0000
  H   H637      1.0  0.71571  0.97494  0.19686  1.0000
  H   H638      1.0  0.84075  0.53845  0.19005  1.0000
  H   H639      1.0  0.72630  0.92331  0.21385  1.0000
  H   H640      1.0  0.01140  0.71590  0.07489  1.0000
  C   C370      1.0  0.81729  0.55752  0.20293  1.0000
  H   H641      1.0  0.90341  0.76715  0.20794  1.0000
  H   H642      1.0  0.86472  0.72590  0.05380  1.0000
  H   H643      1.0  0.92981  0.75951  0.15717  1.0000
  H   H644      1.0  0.86039  0.72786  0.19956  1.0000
  H   H645      1.0  0.82227  0.88284  0.15025  1.0000
  H   H646      1.0  0.59895  0.88843  0.27847  1.0000
  H   H647      1.0  0.96866  0.90186  0.13953  1.0000
  H   H648      1.0  0.67427  0.96648  0.24174  1.0000
  H   H649      1.0  0.57470  0.90726  0.22843  1.0000
  H   H650      1.0  0.89830  0.81806  0.06835  1.0000
  N   N21       1.0  0.59003  0.99575  0.22544  1.0000
  H   H651      1.0  0.88624  0.72243  0.14954  1.0000
  H   H652      1.0  0.64990  0.91721  0.22883  1.0000
  H   H653      1.0  0.97603  0.88257  0.10304  1.0000
  H   H654      1.0  0.57400  0.01535  0.16653  1.0000
  H   H655      1.0  0.91724  0.71219  0.19833  1.0000
  C   C371      1.0  0.62413  0.97501  0.20661  1.0000
  H   H656      1.0  0.78858  0.83719  0.15972  1.0000
  H   H657      1.0  0.74378  0.90071  0.14653  1.0000
  H   H658      1.0  0.95162  0.82665  0.15512  1.0000
  N   N22       1.0  0.86578  0.81012  0.12578  1.0000
  C   C372      1.0  0.87574  0.77584  0.10355  1.0000
  C   C373      1.0  0.86310  0.78945  0.15525  1.0000
  C   C374      1.0  0.82137  0.82917  0.11812  1.0000
  C   C375      1.0  0.89883  0.84682  0.12565  1.0000
  H   H659      1.0  0.69060  0.92595  0.18262  1.0000
  C   C376      1.0  0.87494  0.79088  0.07169  1.0000
  C   C377      1.0  0.79958  0.85769  0.14154  1.0000
  C   C378      1.0  0.89545  0.75173  0.16227  1.0000
  C   C379      1.0  0.89388  0.73914  0.19403  1.0000
  H   H660      1.0  0.73460  0.85760  0.12084  1.0000
  C   C380      1.0  0.88776  0.75378  0.05162  1.0000
  C   C381      1.0  0.75923  0.88122  0.12935  1.0000
  H   H661      1.0  0.85176  0.74858  0.10531  1.0000
  H   H662      1.0  0.90818  0.76076  0.10770  1.0000
  H   H663      1.0  0.86669  0.81474  0.17235  1.0000
  H   H664      1.0  0.82999  0.77463  0.15813  1.0000
  H   H665      1.0  0.79756  0.80276  0.11265  1.0000
  H   H666      1.0  0.82341  0.84960  0.09841  1.0000
  H   H667      1.0  0.89709  0.86457  0.10481  1.0000
  H   H668      1.0  0.89056  0.87165  0.14204  1.0000
  C   C382      1.0  0.00754  0.54673  0.03202  1.0000
  H   H669      1.0  0.60861  0.95141  0.19122  1.0000
  C   C383      1.0  0.96658  0.55206  0.01849  1.0000
  H   H670      1.0  0.75744  0.54945  0.22571  1.0000
  C   C384      1.0  0.54719  0.99913  0.20866  1.0000
  H   H671      1.0  0.52978  0.65768  0.28749  1.0000
  H   H672      1.0  0.01208  0.86430  0.13167  1.0000
  H   H673      1.0  0.68471  0.52335  0.30924  1.0000
  C   C385      1.0  0.94730  0.83486  0.13199  1.0000
  C   C386      1.0  0.01976  0.69674  0.05544  1.0000
  H   H674      1.0  0.95854  0.80738  0.11861  1.0000
  H   H675      1.0  0.88626  0.76512  0.02894  1.0000
  C   C387      1.0  0.97771  0.87339  0.12615  1.0000
  H   H676      1.0  0.55938  0.78125  0.17124  1.0000
  S   S83       1.0  0.53992  0.93718  0.02453  1.0000
  H   H677      1.0  0.53411  0.70652  0.18551  1.0000
  H   H678      1.0  0.83522  0.57274  0.22139  1.0000
  H   H679      1.0  0.61104  0.96490  0.26544  1.0000
  H   H680      1.0  0.55850  0.98803  0.26646  1.0000
  C   C388      1.0  0.58092  0.96965  0.25220  1.0000
  H   H681      1.0  0.98868  0.68651  0.04450  1.0000
  H   H682      1.0  0.54701  0.86359  0.26902  1.0000
  C   C389      1.0  0.55968  0.92422  0.24688  1.0000
  S   S84       1.0  0.69098  0.99822  0.13436  1.0000
  C   C390      1.0  0.56387  0.89507  0.27338  1.0000
  H   H683      1.0  0.63913  0.00012  0.19261  1.0000
  H   H684      1.0  0.01223  0.55667  0.05419  1.0000
  H   H685      1.0  0.53586  0.96637  0.20160  1.0000
  H   H686      1.0  0.82484  0.53652  0.05304  1.0000
  C   C391      1.0  0.77996  0.52853  0.21344  1.0000
  H   H687      1.0  0.54843  0.91070  0.29223  1.0000
  C   C392      1.0  0.53432  0.76292  0.15842  1.0000
  Fe  Fe41      1.0  0.55456  0.59223  0.59250  1.0000
  S   S85       1.0  0.54623  0.54538  0.62936  1.0000
  H   H688      1.0  0.98506  0.79930  0.58204  1.0000
  Fe  Fe42      1.0  0.61952  0.65125  0.62730  1.0000
  C   C393      1.0  0.60779  0.69882  0.45446  1.0000
  S   S86       1.0  0.65172  0.71905  0.62819  1.0000
  Fe  Fe43      1.0  0.61952  0.55214  0.63554  1.0000
  H   H689      1.0  0.99264  0.84207  0.52708  1.0000
  S   S87       1.0  0.62813  0.59540  0.59658  1.0000
  S   S88       1.0  0.54607  0.65148  0.62056  1.0000
  Fe  Fe44      1.0  0.87221  0.86790  0.60355  1.0000
  S   S89       1.0  0.91114  0.88530  0.64357  1.0000
  S   S90       1.0  0.83994  0.80024  0.59880  1.0000
  Fe  Fe45      1.0  0.91353  0.94555  0.56992  1.0000
  S   S91       1.0  0.95422  0.96751  0.60807  1.0000
  S   S92       1.0  0.91774  0.97267  0.52406  1.0000
  Fe  Fe46      1.0  0.96864  0.89654  0.61530  1.0000
  H   H690      1.0  0.68772  0.80493  0.63446  1.0000
  Fe  Fe47      1.0  0.89303  0.95487  0.63344  1.0000
  C   C394      1.0  0.98249  0.74658  0.61293  1.0000
  S   S93       1.0  0.93139  0.87547  0.57567  1.0000
  S   S94       1.0  0.85052  0.93706  0.59475  1.0000
  C   C395      1.0  0.99111  0.86784  0.51036  1.0000
  H   H691      1.0  0.69661  0.78239  0.52090  1.0000
  H   H692      1.0  0.92262  0.77642  0.62824  1.0000
  H   H693      1.0  0.93699  0.76463  0.57810  1.0000
  C   C396      1.0  0.70523  0.74009  0.62130  1.0000
  C   C397      1.0  0.71342  0.78470  0.62597  1.0000
  C   C398      1.0  0.75444  0.80362  0.61960  1.0000
  C   C399      1.0  0.78788  0.77816  0.60822  1.0000
  C   C400      1.0  0.77980  0.73347  0.60366  1.0000
  C   C401      1.0  0.73892  0.71445  0.61031  1.0000
  Fe  Fe48      1.0  0.54255  0.60516  0.65752  1.0000
  H   H694      1.0  0.75999  0.83798  0.62323  1.0000
  H   H695      1.0  0.80533  0.71344  0.59479  1.0000
  H   H696      1.0  0.73339  0.68009  0.60671  1.0000
  H   H697      1.0  0.67256  0.64514  0.50735  1.0000
  H   H698      1.0  0.67342  0.68567  0.56836  1.0000
  C   C402      1.0  0.60063  0.69484  0.48682  1.0000
  H   H699      1.0  0.97517  0.71124  0.61242  1.0000
  C   C403      1.0  0.97278  0.76535  0.58311  1.0000
  H   H700      1.0  0.54708  0.74316  0.65274  1.0000
  H   H701      1.0  0.97103  0.80312  0.63923  1.0000
  H   H702      1.0  0.63885  0.62591  0.53637  1.0000
  H   H703      1.0  0.72433  0.84509  0.55036  1.0000
  H   H704      1.0  0.71566  0.76734  0.55648  1.0000
  H   H705      1.0  0.68246  0.83527  0.57643  1.0000
  H   H706      1.0  0.86860  0.72917  0.64399  1.0000
  S   S95       1.0  0.61555  0.60841  0.66642  1.0000
  H   H707      1.0  0.70906  0.61386  0.56575  1.0000
  H   H708      1.0  0.60205  0.73275  0.44718  1.0000
  C   C404      1.0  0.69071  0.83192  0.55333  1.0000
  H   H709      1.0  0.66496  0.72409  0.49480  1.0000
  H   H710      1.0  0.90251  0.69978  0.62015  1.0000
  C   C405      1.0  0.63160  0.72610  0.50413  1.0000
  H   H711      1.0  0.62015  0.75954  0.49877  1.0000
  N   N23       1.0  0.63446  0.71969  0.53640  1.0000
  H   H712      1.0  0.94724  0.97726  0.46570  1.0000
  C   C406      1.0  0.64404  0.76311  0.55064  1.0000
  H   H713      1.0  0.98289  0.85240  0.48931  1.0000
  H   H714      1.0  0.58444  0.67705  0.44269  1.0000
  C   C407      1.0  0.66964  0.64316  0.53107  1.0000
  H   H715      1.0  0.87918  0.80116  0.66163  1.0000
  C   C408      1.0  0.67139  0.68923  0.54450  1.0000
  H   H716      1.0  0.64170  0.68898  0.44906  1.0000
  H   H717      1.0  0.55462  0.75749  0.56498  1.0000
  H   H718      1.0  0.60516  0.66033  0.49279  1.0000
  H   H719      1.0  0.64190  0.76028  0.57445  1.0000
  H   H720      1.0  0.70351  0.70270  0.53789  1.0000
  H   H721      1.0  0.96461  0.89107  0.51550  1.0000
  H   H722      1.0  0.59737  0.69471  0.57211  1.0000
  C   C409      1.0  0.70823  0.61560  0.54187  1.0000
  C   C410      1.0  0.59239  0.70242  0.54883  1.0000
  C   C411      1.0  0.55272  0.73394  0.54679  1.0000
  H   H723      1.0  0.58277  0.67076  0.53904  1.0000
  H   H724      1.0  0.66733  0.85143  0.54013  1.0000
  H   H725      1.0  0.01827  0.75073  0.61717  1.0000
  H   H726      1.0  0.73977  0.62958  0.53456  1.0000
  C   C412      1.0  0.68920  0.78416  0.54416  1.0000
  C   C413      1.0  0.96948  0.99693  0.47869  1.0000
  H   H727      1.0  0.61863  0.78733  0.54432  1.0000
  C   C414      1.0  0.95621  0.77011  0.63668  1.0000
  H   H728      1.0  0.55272  0.75288  0.52650  1.0000
  C   C415      1.0  0.96338  0.99957  0.50861  1.0000
  H   H729      1.0  0.70497  0.58200  0.53324  1.0000
  H   H730      1.0  0.56581  0.70288  0.49077  1.0000
  H   H731      1.0  0.98991  0.74598  0.56659  1.0000
  H   H732      1.0  0.84386  0.01002  0.48982  1.0000
  H   H733      1.0  0.00942  0.01570  0.44258  1.0000
  H   H734      1.0  0.83667  0.65799  0.63179  1.0000
  C   C416      1.0  0.89101  0.70113  0.64265  1.0000
  C   C417      1.0  0.86398  0.66002  0.64789  1.0000
  C   C418      1.0  0.00456  0.01887  0.46549  1.0000
  H   H735      1.0  0.88463  0.63055  0.64578  1.0000
  H   H736      1.0  0.02347  0.94114  0.53956  1.0000
  C   C419      1.0  0.54222  0.52292  0.51850  1.0000
  C   C420      1.0  0.93068  0.70440  0.66418  1.0000
  H   H737      1.0  0.01731  0.71409  0.65972  1.0000
  H   H738      1.0  0.95293  0.67726  0.65830  1.0000
  H   H739      1.0  0.56926  0.52059  0.53381  1.0000
  N   N24       1.0  0.95538  0.74718  0.66539  1.0000
  H   H740      1.0  0.52915  0.00547  0.86775  1.0000
  H   H741      1.0  0.59410  0.00020  0.95744  1.0000
  H   H742      1.0  0.87671  0.81066  0.72755  1.0000
  H   H743      1.0  0.86638  0.75932  0.68734  1.0000
  H   H744      1.0  0.01333  0.67064  0.96552  1.0000
  H   H745      1.0  0.55624  0.73757  0.69093  1.0000
  C   C421      1.0  0.00832  0.56317  0.84050  1.0000
  C   C422      1.0  0.99593  0.52025  0.97446  1.0000
  H   H746      1.0  0.52741  0.82090  0.73471  1.0000
  H   H747      1.0  0.00785  0.74925  0.72097  1.0000
  H   H748      1.0  0.98666  0.59146  0.83619  1.0000
  C   C423      1.0  0.93599  0.77744  0.68741  1.0000
  C   C424      1.0  0.87269  0.82302  0.70521  1.0000
  H   H749      1.0  0.91885  0.69587  0.68601  1.0000
  H   H750      1.0  0.53658  0.89571  0.71551  1.0000
  H   H751      1.0  0.93840  0.76325  0.70934  1.0000
  C   C425      1.0  0.53073  0.73709  0.67355  1.0000
  H   H752      1.0  0.89231  0.85330  0.70294  1.0000
  H   H753      1.0  0.95514  0.80842  0.68832  1.0000
  H   H754      1.0  0.70536  0.55418  0.74189  1.0000
  C   C426      1.0  0.01047  0.72181  0.70547  1.0000
  H   H755      1.0  0.98633  0.69627  0.71116  1.0000
  S   S96       1.0  0.87802  0.99595  0.67290  1.0000
  H   H756      1.0  0.83759  0.83114  0.70138  1.0000
  C   C427      1.0  0.00254  0.73852  0.67432  1.0000
  C   C428      1.0  0.88679  0.78862  0.68345  1.0000
  C   C429      1.0  0.63235  0.01590  0.99519  1.0000
  C   C430      1.0  0.72329  0.52634  0.73247  1.0000
  H   H757      1.0  0.58695  0.00036  0.85980  1.0000
  H   H758      1.0  0.02281  0.76846  0.67193  1.0000
  H   H759      1.0  0.75067  0.53936  0.71953  1.0000
  H   H760      1.0  0.00678  0.87291  0.67893  1.0000
  H   H761      1.0  0.01423  0.54610  0.81983  1.0000
  H   H762      1.0  0.92932  0.54246  0.97909  1.0000
  H   H763      1.0  0.55282  0.89204  0.75290  1.0000
  H   H764      1.0  0.02040  0.62550  0.88101  1.0000
  H   H765      1.0  0.99150  0.54020  0.85513  1.0000
  H   H766      1.0  0.84955  0.66088  0.66968  1.0000
  C   C431      1.0  0.96094  0.53858  0.98971  1.0000
  H   H767      1.0  0.64239  0.98142  0.99784  1.0000
  C   C432      1.0  0.52441  0.89025  0.73763  1.0000
  H   H768      1.0  0.64871  0.01840  0.95050  1.0000
