data_image0
_chemical_formula_structural       FeS2FeS2FeSFeHS2FeS2FeS2FeSFeS3HFeSFeHSH2NSHC6H4C6H4SC4H2C6H4CHCH2CH2CHCNC6HC2HCH9CH11C2H5CHCH4C2SCH3CHCHC2H4C3H2CH2CH4C2H3CHNC11SH20C3H3NC7HC2HCH3NH12CH14SNC12H26CH2CH3CHCH2CH2C3HCSH3CH3CHSH4CH3CH4CHCH10CH3CH2CHCHFeS2FeS2FeSFeS3H2SFeSHS2H3C3H2CH2CH2C2H2C6H4C3H4CFeCHC6H4CHC2HNH3C3H4C2HCH2CHC2HC3H4CHCH3CSHFeCH2CHCNHSH3C2H3C2HFeCH7CH3NHNH3CHC3H6C3H6C2H2CHCHCH5CH5CHSCH3CHCNH5C2HCFeS2FeS2FeSFeS3HFeSFeS2FeS2FeSFeS3HCSNCH2C6H6C6H4C6H4C5H5C2HC4HNC12H18CHNFeSH3CHCNC4HC4HC2H6CH4CH17CH4CH2NC2H2SH2C3H5CH8CH2CSC3H7CH3CHCH2CHCHCSH2CHC4HCHNHCH7CH6CH2CH2C2H2CNH3NHCH3CHCH4FeHC2H6CH5CHCHCH6CH2CH6CH2CHCH3CHCHSHC2H2CH5SH2CHC2H2CH4CHCH4CHC2H2CHC2H6CH6CH3CH3CHFeS2FeS2FeSFeS3FeHSCHCH2SCSH2C7H2C5H2C6H5CH5C9H3CNCHCH3CNH5CH4CH2CH3CH6CH8CSCH4C2HSHCHCH3C2SH2CHCHC2H4CH4C3H2C3H4CHFeH3SH3CH2CHCSCHFeH4CHNH4C3H2CH2CH4CH3CH2CHNHCHCFeS2FeS2FeSFeS3FeS2FeS2FeSFeS3FeS2FeHC3HFeSHC4HCHNHCH4C6H7C6H5CH2C9H6C4HNCHCH2CH3C2H9SH3CH2CHCH2C2H7C3H5C2H2CH4C3H2NC9HCH11CH7C3H4CH4CH3C3HCH2SC2SCHC2H9CHCH6SCHNH3C2HNC9H22CH5CH3CSH4CH6CH5FeH5CH3C3H3C2HSH2CHFeS2FeS2FeSFeS3H3SCFeS2FeS2FeSFeS3FeNSH2FeCH5CSC2NH4C6H4CSH3C2H4CH2CHC7H6C7H9CSC2H9C2H4CH4CHNHCHC2HCHC2HCHCHCH4CH12C2H5NHNC8H2CH10CH9SC2H4C2NC10H23C2H11CFeHCHC2HCH3CH5C2H5C4H3CHCH4C2NC3H4SCHC4H4CH4C3HFeS2FeS2FeSFeS3FeS2FeS2FeSFeS3FeS2FeSFeHSHC3HSCH2C3H4C6H5C3H3C6H4C3HCH2C2HC6H2CH3C2HNC12H28NC8HCHCH16C2H4SH5NC5HCH2CH5CH7CH2SHCHCH5CH2FeNH3C2HCHCH2NH2C2H2CH5CHSH4NC2HCHCH4CHC2H10C2H4CHCHCH2C2H5CH2CSHFeCH2C4HCH3CH2C2H2SNH2CH4CHCHCH11CH3C2H2CH2CH2CH3C2HFeS2FeS2FeSFeS3HCSHFeS2FeS2FeSFeS3FeHSH3SH2NC2HC2H2C6H5C2H5CH2C4SH3C6H4C6H4C4H2CH2NC2H3C3H2CH3CNCHC2H2C2H9CH2C2H13C6H19C2H3CHCH8CH4C3H3NC6HC2HCH21CH4CNCH2C2H4CHNCH4CHCH3CHCH2CH2CH4C2H2CHC3H2CH2CH2SHCH4CHC2FeH4C3SHCH2CH6CH5C3SCHC3HSH2C2SCSCS2HFeS2FeS2FeHFeHS2HCHC2H4CH2C7H7CH2CH2CH4SH2NC2H3C2H2CFeH2FeH5C2H2CHCH3CNH2FeC2H2CH2CFeH3CHCH2CH2SHCH2C4H2C3SH2FeSFeS2Fe2HS2FeS2HFeS2FeS2FeSFeS4FeHFeS2C2HS2H5C2H2CHC2SC2H2C6H6C6H6C6H4C2SCHCH2CH2CNC12H28NC9HC2H22CH4NHCH3CH5Fe2NC7H3C2H2CH13CHCH7SH2CH3CH2SHC2NCH3FeHCH2C4FeHC4HCHC2SC2HC2H6C5H5CH3CH3CSH2C2H3CH10CHCHCH3C2H4CH6CH2CH5C2H3NH3CHCHCHCH3NCH2CHCHSH3C3H3CH3CH7C3HCH2C3H6CH2C2H2CHCHCHCHSHCHCHSH2SC2HFeS2FeS2FeCFeHS2H6C5H2C6H6CH2CSH2CH2CH2NC9HCH18FeH7CHCH4SHCFeCH3SC2H2CH4CH8CH3CHC4FeHSFeSFeSFeS2FeS2FeS2FeS2FeSFeS3CH2FeS2FeH2S2H2CH4C7H6C6H5FeCH3C6H4C2HC2H8NFeHCHSCHC2HCH2FeH4SCHCH6NC12H16CHCH10CH4CHFeH5C2H4SH2C2HCH2CSCH7CHCHCH2C2HC2H3NCH3NC11H27C2H3NH3C2H2CHC3HC2H5CH3CSHCS2H2FeHC2HCH2CH2C2H7SH2CH3C2H2C6FeHCH3NCH2CH4
_chemical_formula_sum              "Fe128 S256 H2048 N64 C1152"
_cell_length_a       83.5149
_cell_length_b       41.8227
_cell_length_c       47.729
_cell_angle_alpha    90.1349
_cell_angle_beta     89.8173
_cell_angle_gamma    90.7164

_space_group_name_H-M_alt    "P 1"
_space_group_IT_number       1

loop_
  _space_group_symop_operation_xyz
  'x, y, z'

loop_
  _atom_site_type_symbol
  _atom_site_label
  _atom_site_symmetry_multiplicity
  _atom_site_fract_x
  _atom_site_fract_y
  _atom_site_fract_z
  _atom_site_occupancy
  Fe  Fe1       1.0  0.03785  0.14808  0.14152  1.0000
  S   S1        1.0  0.01082  0.15508  0.14125  1.0000
  S   S2        1.0  0.05351  0.19225  0.15424  1.0000
  Fe  Fe2       1.0  0.03352  0.07690  0.12693  1.0000
  S   S3        1.0  0.00686  0.07990  0.12658  1.0000
  S   S4        1.0  0.04517  0.03044  0.11334  1.0000
  Fe  Fe3       1.0  0.01027  0.12495  0.10139  1.0000
  S   S5        1.0  0.99282  0.12990  0.06352  1.0000
  Fe  Fe4       1.0  0.00944  0.10918  0.16616  1.0000
  H   H1        1.0  0.08881  0.32323  0.22897  1.0000
  S   S6        1.0  0.03718  0.12093  0.10023  1.0000
  S   S7        1.0  0.03627  0.10333  0.16782  1.0000
  Fe  Fe5       1.0  0.14013  0.28298  0.19979  1.0000
  S   S8        1.0  0.13183  0.32866  0.22043  1.0000
  S   S9        1.0  0.12549  0.24772  0.17159  1.0000
  Fe  Fe6       1.0  0.17350  0.28707  0.22919  1.0000
  S   S10       1.0  0.16671  0.33139  0.25272  1.0000
  S   S11       1.0  0.19779  0.26549  0.24052  1.0000
  Fe  Fe7       1.0  0.14274  0.30860  0.25957  1.0000
  S   S12       1.0  0.12824  0.31162  0.29969  1.0000
  Fe  Fe8       1.0  0.15666  0.34873  0.21212  1.0000
  S   S13       1.0  0.16735  0.39875  0.20600  1.0000
  S   S14       1.0  0.15001  0.26228  0.23975  1.0000
  S   S15       1.0  0.16443  0.30491  0.18784  1.0000
  H   H2        1.0  0.27523  0.36701  0.18483  1.0000
  Fe  Fe9       1.0  0.15772  0.32661  0.45782  1.0000
  S   S16       1.0  0.16615  0.33419  0.41311  1.0000
  Fe  Fe10      1.0  0.29251  0.30360  0.21421  1.0000
  H   H3        1.0  0.23895  0.43969  0.21508  1.0000
  S   S17       1.0  0.26793  0.29910  0.19299  1.0000
  H   H4        1.0  0.05260  0.22461  0.48359  1.0000
  H   H5        1.0  0.30155  0.38989  0.43050  1.0000
  N   N1        1.0  0.22878  0.39146  0.21521  1.0000
  S   S18       1.0  0.16653  0.28504  0.48307  1.0000
  H   H6        1.0  0.29659  0.22398  0.41933  1.0000
  C   C1        1.0  0.21723  0.27528  0.22716  1.0000
  C   C2        1.0  0.21985  0.28179  0.19878  1.0000
  C   C3        1.0  0.23545  0.28857  0.18880  1.0000
  C   C4        1.0  0.24868  0.28925  0.20699  1.0000
  C   C5        1.0  0.24612  0.28260  0.23541  1.0000
  C   C6        1.0  0.23053  0.27522  0.24531  1.0000
  H   H7        1.0  0.20986  0.28106  0.18440  1.0000
  H   H8        1.0  0.23730  0.29319  0.16673  1.0000
  H   H9        1.0  0.25617  0.28273  0.24965  1.0000
  H   H10       1.0  0.22873  0.26959  0.26722  1.0000
  C   C7        1.0  0.13881  0.31675  0.33135  1.0000
  C   C8        1.0  0.15531  0.32255  0.33125  1.0000
  C   C9        1.0  0.16346  0.32760  0.35657  1.0000
  C   C10       1.0  0.15526  0.32633  0.38224  1.0000
  C   C11       1.0  0.13875  0.32019  0.38247  1.0000
  C   C12       1.0  0.13053  0.31566  0.35701  1.0000
  H   H11       1.0  0.16184  0.32321  0.31173  1.0000
  H   H12       1.0  0.17623  0.33231  0.35628  1.0000
  H   H13       1.0  0.13233  0.31938  0.40218  1.0000
  H   H14       1.0  0.11774  0.31125  0.35723  1.0000
  S   S19       1.0  0.99457  0.09120  0.20399  1.0000
  C   C13       1.0  0.16713  0.46392  0.21138  1.0000
  C   C14       1.0  0.15778  0.43628  0.20655  1.0000
  C   C15       1.0  0.14144  0.43942  0.20102  1.0000
  C   C16       1.0  0.13467  0.47008  0.19939  1.0000
  H   H15       1.0  0.17977  0.46171  0.21560  1.0000
  H   H16       1.0  0.13417  0.41835  0.19695  1.0000
  C   C17       1.0  0.07371  0.20632  0.16008  1.0000
  C   C18       1.0  0.08723  0.18791  0.15416  1.0000
  C   C19       1.0  0.10286  0.20096  0.15772  1.0000
  C   C20       1.0  0.10536  0.23237  0.16785  1.0000
  C   C21       1.0  0.09184  0.25072  0.17374  1.0000
  C   C22       1.0  0.07622  0.23781  0.16993  1.0000
  H   H17       1.0  0.08568  0.16371  0.14651  1.0000
  H   H18       1.0  0.11314  0.18650  0.15269  1.0000
  H   H19       1.0  0.09343  0.27526  0.18036  1.0000
  H   H20       1.0  0.06596  0.25258  0.17428  1.0000
  C   C23       1.0  0.03948  0.99336  0.12848  1.0000
  H   H21       1.0  0.05532  0.26147  0.08065  1.0000
  C   C24       1.0  0.13888  0.41240  0.37807  1.0000
  H   H22       1.0  0.01554  0.13367  0.01546  1.0000
  H   H23       1.0  0.14835  0.42598  0.47220  1.0000
  C   C25       1.0  0.97496  0.12930  0.01432  1.0000
  H   H24       1.0  0.07560  0.30610  0.25504  1.0000
  H   H25       1.0  0.22001  0.46592  0.27125  1.0000
  C   C26       1.0  0.24422  0.38394  0.20001  1.0000
  H   H26       1.0  0.20473  0.43147  0.23850  1.0000
  C   C27       1.0  0.99051  0.13048  0.02587  1.0000
  N   N2        1.0  0.06110  0.21260  0.06973  1.0000
  C   C28       1.0  0.04413  0.20020  0.07281  1.0000
  C   C29       1.0  0.07239  0.18745  0.08037  1.0000
  C   C30       1.0  0.06281  0.24162  0.08855  1.0000
  C   C31       1.0  0.06527  0.22222  0.04004  1.0000
  C   C32       1.0  0.05711  0.20291  0.01600  1.0000
  C   C33       1.0  0.03079  0.22499  0.06764  1.0000
  H   H27       1.0  0.98431  0.05072  0.41612  1.0000
  C   C34       1.0  0.07307  0.15566  0.06378  1.0000
  C   C35       1.0  0.08256  0.13062  0.07983  1.0000
  H   H28       1.0  0.04413  0.20819  0.01504  1.0000
  C   C36       1.0  0.01453  0.20858  0.06320  1.0000
  H   H29       1.0  0.28096  0.23523  0.44333  1.0000
  H   H30       1.0  0.04215  0.19094  0.09446  1.0000
  H   H31       1.0  0.04182  0.17933  0.05899  1.0000
  H   H32       1.0  0.08495  0.19646  0.08045  1.0000
  H   H33       1.0  0.06942  0.18167  0.10253  1.0000
  H   H34       1.0  0.09230  0.29692  0.10965  1.0000
  H   H35       1.0  0.11948  0.46688  0.28098  1.0000
  H   H36       1.0  0.06216  0.24768  0.03623  1.0000
  H   H37       1.0  0.07848  0.22121  0.03684  1.0000
  C   C37       1.0  0.28420  0.47372  0.14910  1.0000
  H   H38       1.0  0.05821  0.17680  0.01869  1.0000
  H   H39       1.0  0.02967  0.24091  0.08622  1.0000
  H   H40       1.0  0.03350  0.24019  0.04917  1.0000
  H   H41       1.0  0.17890  0.41266  0.43199  1.0000
  H   H42       1.0  0.07341  0.28767  0.12620  1.0000
  H   H43       1.0  0.06104  0.14530  0.05980  1.0000
  H   H44       1.0  0.07926  0.15965  0.04345  1.0000
  H   H45       1.0  0.08319  0.10824  0.06733  1.0000
  H   H46       1.0  0.09495  0.13936  0.08397  1.0000
  H   H47       1.0  0.07659  0.12494  0.10011  1.0000
  H   H48       1.0  0.05843  0.14703  0.47593  1.0000
  C   C38       1.0  0.98161  0.99869  0.40928  1.0000
  C   C39       1.0  0.98453  0.14376  0.23587  1.0000
  H   H49       1.0  0.01473  0.19323  0.04417  1.0000
  H   H50       1.0  0.01130  0.19358  0.08161  1.0000
  H   H51       1.0  0.00513  0.22683  0.06049  1.0000
  H   H52       1.0  0.23600  0.42337  0.24893  1.0000
  H   H53       1.0  0.12373  0.44530  0.33598  1.0000
  C   C40       1.0  0.19929  0.36039  0.15687  1.0000
  H   H54       1.0  0.07563  0.29061  0.21960  1.0000
  C   C41       1.0  0.15331  0.47680  0.47053  1.0000
  H   H55       1.0  0.01352  0.10057  0.47026  1.0000
  H   H56       1.0  0.22502  0.36732  0.41823  1.0000
  H   H57       1.0  0.98912  0.15872  0.21916  1.0000
  H   H58       1.0  0.22040  0.32542  0.42428  1.0000
  C   C42       1.0  0.07982  0.28858  0.10578  1.0000
  C   C43       1.0  0.03197  0.18385  0.46487  1.0000
  S   S20       1.0  0.30287  0.34683  0.48248  1.0000
  C   C44       1.0  0.99530  0.02498  0.36989  1.0000
  H   H59       1.0  0.08632  0.25752  0.07173  1.0000
  H   H60       1.0  0.18790  0.37000  0.16516  1.0000
  H   H61       1.0  0.24854  0.41881  0.48089  1.0000
  C   C45       1.0  0.08003  0.25546  0.09216  1.0000
  H   H62       1.0  0.97895  0.00203  0.25735  1.0000
  C   C46       1.0  0.99177  0.99530  0.25628  1.0000
  H   H63       1.0  0.24048  0.25825  0.47621  1.0000
  C   C47       1.0  0.21538  0.39044  0.19392  1.0000
  C   C48       1.0  0.02221  0.20716  0.44668  1.0000
  H   H64       1.0  0.01241  0.17086  0.41836  1.0000
  H   H65       1.0  0.19932  0.34856  0.29188  1.0000
  H   H66       1.0  0.24400  0.35924  0.19140  1.0000
  H   H67       1.0  0.19589  0.41293  0.40864  1.0000
  C   C49       1.0  0.28466  0.23526  0.42095  1.0000
  C   C50       1.0  0.00350  0.13265  0.00723  1.0000
  C   C51       1.0  0.19505  0.43294  0.47994  1.0000
  H   H68       1.0  0.99344  0.02624  0.09362  1.0000
  H   H69       1.0  0.01952  0.06563  0.35084  1.0000
  C   C52       1.0  0.97970  0.09154  0.25586  1.0000
  H   H70       1.0  0.02889  0.23008  0.44425  1.0000
  H   H71       1.0  0.21174  0.45421  0.20912  1.0000
  C   C53       1.0  0.98588  0.11050  0.23383  1.0000
  H   H72       1.0  0.04394  0.18284  0.45471  1.0000
  H   H73       1.0  0.20663  0.34096  0.19611  1.0000
  H   H74       1.0  0.28927  0.42320  0.42108  1.0000
  H   H75       1.0  0.26076  0.36384  0.23092  1.0000
  C   C54       1.0  0.21169  0.35756  0.18018  1.0000
  C   C55       1.0  0.01242  0.04340  0.05206  1.0000
  H   H76       1.0  0.01679  0.00575  0.34977  1.0000
  H   H77       1.0  0.03118  0.18871  0.40679  1.0000
  H   H78       1.0  0.00334  0.06186  0.05669  1.0000
  C   C56       1.0  0.25979  0.38575  0.21790  1.0000
  H   H79       1.0  0.99273  0.99282  0.42097  1.0000
  N   N3        1.0  0.26865  0.31965  0.40009  1.0000
  C   C57       1.0  0.25152  0.33075  0.40195  1.0000
  C   C58       1.0  0.27387  0.31990  0.36978  1.0000
  C   C59       1.0  0.26938  0.28643  0.41231  1.0000
  C   C60       1.0  0.27975  0.34139  0.41645  1.0000
  C   C61       1.0  0.27989  0.37707  0.40745  1.0000
  C   C62       1.0  0.24535  0.33901  0.43185  1.0000
  C   C63       1.0  0.28571  0.26942  0.40977  1.0000
  C   C64       1.0  0.26524  0.29545  0.35034  1.0000
  C   C65       1.0  0.27091  0.29909  0.32001  1.0000
  C   C66       1.0  0.28900  0.39803  0.42842  1.0000
  C   C67       1.0  0.22747  0.34642  0.43179  1.0000
  S   S21       1.0  0.29607  0.32976  0.25477  1.0000
  H   H80       1.0  0.24327  0.31203  0.39345  1.0000
  H   H81       1.0  0.24960  0.35195  0.38839  1.0000
  H   H82       1.0  0.27192  0.34391  0.36049  1.0000
  H   H83       1.0  0.28703  0.31614  0.36796  1.0000
  H   H84       1.0  0.26002  0.27058  0.40294  1.0000
  H   H85       1.0  0.26652  0.28701  0.43502  1.0000
  H   H86       1.0  0.27713  0.33968  0.43930  1.0000
  H   H87       1.0  0.29235  0.33345  0.41432  1.0000
  H   H88       1.0  0.26765  0.38672  0.40568  1.0000
  H   H89       1.0  0.28595  0.37970  0.38681  1.0000
  H   H90       1.0  0.24714  0.31886  0.44640  1.0000
  H   H91       1.0  0.25172  0.36027  0.44048  1.0000
  H   H92       1.0  0.29496  0.28227  0.42218  1.0000
  H   H93       1.0  0.28975  0.26794  0.38770  1.0000
  H   H94       1.0  0.26770  0.27053  0.35680  1.0000
  H   H95       1.0  0.25210  0.29896  0.35066  1.0000
  H   H96       1.0  0.28401  0.29512  0.31844  1.0000
  H   H97       1.0  0.26473  0.28112  0.30654  1.0000
  H   H98       1.0  0.26820  0.32330  0.31192  1.0000
  H   H99       1.0  0.01640  0.04635  0.02999  1.0000
  C   C68       1.0  0.01955  0.19346  0.41729  1.0000
  C   C69       1.0  0.21766  0.47398  0.24950  1.0000
  C   C70       1.0  0.21128  0.37081  0.25628  1.0000
  H   H100      1.0  0.12213  0.47240  0.19430  1.0000
  H   H101      1.0  0.01019  0.21177  0.45558  1.0000
  H   H102      1.0  0.98529  0.02621  0.46306  1.0000
  N   N4        1.0  0.13563  0.43130  0.29773  1.0000
  C   C71       1.0  0.13544  0.43528  0.32922  1.0000
  C   C72       1.0  0.13259  0.46299  0.28338  1.0000
  C   C73       1.0  0.12215  0.40844  0.29022  1.0000
  C   C74       1.0  0.15104  0.41697  0.28739  1.0000
  C   C75       1.0  0.16653  0.43579  0.29449  1.0000
  C   C76       1.0  0.13834  0.40465  0.34674  1.0000
  C   C77       1.0  0.11884  0.40389  0.25843  1.0000
  H   H103      1.0  0.22242  0.34690  0.17053  1.0000
  C   C78       1.0  0.23048  0.42473  0.22773  1.0000
  C   C79       1.0  0.18125  0.41643  0.28679  1.0000
  H   H104      1.0  0.14454  0.45303  0.33624  1.0000
  C   C80       1.0  0.10429  0.38206  0.25376  1.0000
  H   H105      1.0  0.14891  0.42923  0.38279  1.0000
  H   H106      1.0  0.22674  0.45816  0.48119  1.0000
  H   H107      1.0  0.13749  0.46272  0.26161  1.0000
  N   N5        1.0  0.98467  0.99689  0.37806  1.0000
  H   H108      1.0  0.11078  0.41627  0.30027  1.0000
  H   H109      1.0  0.12452  0.38407  0.29847  1.0000
  H   H110      1.0  0.15219  0.39188  0.29487  1.0000
  H   H111      1.0  0.15097  0.41487  0.26417  1.0000
  H   H112      1.0  0.16740  0.44151  0.31710  1.0000
  H   H113      1.0  0.16709  0.45819  0.28207  1.0000
  H   H114      1.0  0.12859  0.38677  0.34361  1.0000
  H   H115      1.0  0.14992  0.39357  0.34115  1.0000
  H   H116      1.0  0.12920  0.39265  0.24788  1.0000
  H   H117      1.0  0.11643  0.42690  0.24784  1.0000
  H   H118      1.0  0.00302  0.06837  0.32648  1.0000
  H   H119      1.0  0.01119  0.00529  0.10015  1.0000
  C   C81       1.0  0.97942  0.99706  0.17123  1.0000
  H   H120      1.0  0.21792  0.40804  0.17693  1.0000
  H   H121      1.0  0.02131  0.04935  0.31594  1.0000
  H   H122      1.0  0.18159  0.39415  0.29939  1.0000
  H   H123      1.0  0.18100  0.41010  0.26418  1.0000
  H   H124      1.0  0.19225  0.43076  0.29111  1.0000
  H   H125      1.0  0.05814  0.23625  0.10992  1.0000
  H   H126      1.0  0.12742  0.42301  0.38509  1.0000
  H   H127      1.0  0.00363  0.03136  0.38732  1.0000
  H   H128      1.0  0.10236  0.37871  0.23092  1.0000
  H   H129      1.0  0.10625  0.35826  0.26338  1.0000
  H   H130      1.0  0.09337  0.39279  0.26296  1.0000
  H   H131      1.0  0.02647  0.15952  0.46242  1.0000
  H   H132      1.0  0.00039  0.00903  0.32611  1.0000
  H   H133      1.0  0.14080  0.39013  0.39018  1.0000
  S   S22       1.0  0.17068  0.36268  0.48432  1.0000
  N   N6        1.0  0.10064  0.21900  0.26226  1.0000
  C   C82       1.0  0.09083  0.19059  0.27221  1.0000
  C   C83       1.0  0.11023  0.23338  0.28618  1.0000
  C   C84       1.0  0.08905  0.24394  0.25215  1.0000
  C   C85       1.0  0.11142  0.21039  0.23806  1.0000
  C   C86       1.0  0.12388  0.18412  0.24350  1.0000
  C   C87       1.0  0.08010  0.17388  0.24985  1.0000
  C   C88       1.0  0.09636  0.27723  0.24470  1.0000
  C   C89       1.0  0.11651  0.21032  0.30899  1.0000
  C   C90       1.0  0.12829  0.22747  0.32856  1.0000
  C   C91       1.0  0.13243  0.17466  0.21642  1.0000
  C   C92       1.0  0.07121  0.14503  0.26227  1.0000
  C   C93       1.0  0.08325  0.30063  0.23660  1.0000
  H   H134      1.0  0.08293  0.19802  0.28988  1.0000
  H   H135      1.0  0.09855  0.17175  0.28098  1.0000
  H   H136      1.0  0.12065  0.24731  0.27779  1.0000
  H   H137      1.0  0.10294  0.25105  0.29805  1.0000
  H   H138      1.0  0.07955  0.24787  0.26823  1.0000
  H   H139      1.0  0.08279  0.23560  0.23288  1.0000
  H   H140      1.0  0.10420  0.20334  0.21950  1.0000
  H   H141      1.0  0.11841  0.23165  0.23106  1.0000
  H   H142      1.0  0.11828  0.16215  0.25223  1.0000
  H   H143      1.0  0.13322  0.19328  0.25804  1.0000
  H   H144      1.0  0.07087  0.19026  0.24173  1.0000
  H   H145      1.0  0.08735  0.16506  0.23198  1.0000
  H   H146      1.0  0.10478  0.27543  0.22680  1.0000
  H   H147      1.0  0.10295  0.28800  0.26255  1.0000
  H   H148      1.0  0.10634  0.20138  0.32199  1.0000
  H   H149      1.0  0.12263  0.18937  0.30000  1.0000
  H   H150      1.0  0.13890  0.23643  0.31669  1.0000
  H   H151      1.0  0.12244  0.24801  0.33907  1.0000
  H   H152      1.0  0.13246  0.21071  0.34492  1.0000
  H   H153      1.0  0.12374  0.16507  0.20087  1.0000
  H   H154      1.0  0.13886  0.19560  0.20725  1.0000
  H   H155      1.0  0.14136  0.15590  0.22088  1.0000
  H   H156      1.0  0.07982  0.12697  0.26985  1.0000
  H   H157      1.0  0.06336  0.15254  0.27988  1.0000
  H   H158      1.0  0.06357  0.13370  0.24590  1.0000
  H   H159      1.0  0.99843  0.00953  0.27220  1.0000
  C   C94       1.0  0.01296  0.05304  0.33378  1.0000
  H   H160      1.0  0.20381  0.39766  0.20327  1.0000
  H   H161      1.0  0.28564  0.38764  0.21263  1.0000
  C   C95       1.0  0.00341  0.10698  0.48321  1.0000
  H   H162      1.0  0.02605  0.01379  0.16249  1.0000
  H   H163      1.0  0.24572  0.40006  0.18158  1.0000
  H   H164      1.0  0.22627  0.34234  0.22886  1.0000
  C   C96       1.0  0.97686  0.15771  0.25930  1.0000
  H   H165      1.0  0.19535  0.38584  0.43788  1.0000
  C   C97       1.0  0.27473  0.38775  0.19936  1.0000
  H   H166      1.0  0.22082  0.34490  0.29216  1.0000
  H   H167      1.0  0.02293  0.04735  0.06594  1.0000
  C   C98       1.0  0.19213  0.41024  0.43084  1.0000
  H   H168      1.0  0.20025  0.36976  0.24339  1.0000
  H   H169      1.0  0.21350  0.27853  0.48875  1.0000
  C   C99       1.0  0.22638  0.36684  0.23789  1.0000
  C   C100      1.0  0.20044  0.43573  0.44891  1.0000
  C   C101      1.0  0.00011  0.00468  0.08723  1.0000
  H   H170      1.0  0.25925  0.48097  0.15806  1.0000
  C   C102      1.0  0.00643  0.02078  0.34398  1.0000
  S   S23       1.0  0.13442  0.33132  0.48182  1.0000
  H   H171      1.0  0.99506  0.00728  0.04186  1.0000
  H   H172      1.0  0.20382  0.37622  0.13988  1.0000
  H   H173      1.0  0.27479  0.41014  0.18696  1.0000
  C   C103      1.0  0.98876  0.11455  0.47054  1.0000
  H   H174      1.0  0.23670  0.36718  0.25256  1.0000
  H   H175      1.0  0.20876  0.32097  0.26863  1.0000
  H   H176      1.0  0.22348  0.35199  0.45348  1.0000
  C   C104      1.0  0.21510  0.44519  0.23018  1.0000
  H   H177      1.0  0.26014  0.40672  0.23210  1.0000
  S   S24       1.0  0.98740  0.11460  0.43359  1.0000
  H   H178      1.0  0.02568  0.25684  0.48347  1.0000
  H   H179      1.0  0.19675  0.33634  0.14787  1.0000
  H   H180      1.0  0.01282  0.21080  0.40442  1.0000
  H   H181      1.0  0.98790  0.04663  0.36664  1.0000
  C   C105      1.0  0.21005  0.34474  0.27858  1.0000
  H   H182      1.0  0.29508  0.48812  0.14396  1.0000
  H   H183      1.0  0.99673  0.01613  0.14274  1.0000
  H   H184      1.0  0.21198  0.39380  0.26774  1.0000
  C   C106      1.0  0.97568  0.12236  0.48744  1.0000
  H   H185      1.0  0.08710  0.23985  0.10616  1.0000
  H   H186      1.0  0.19718  0.45930  0.44013  1.0000
  H   H187      1.0  0.27595  0.22081  0.40858  1.0000
  H   H188      1.0  0.22788  0.48898  0.24214  1.0000
  C   C107      1.0  0.00533  0.00987  0.05633  1.0000
  H   H189      1.0  0.28308  0.39722  0.44930  1.0000
  C   C108      1.0  0.14963  0.44788  0.48418  1.0000
  H   H190      1.0  0.21354  0.43243  0.44678  1.0000
  H   H191      1.0  0.15490  0.47700  0.44802  1.0000
  H   H192      1.0  0.97638  0.01977  0.13136  1.0000
  H   H193      1.0  0.20670  0.48878  0.24974  1.0000
  H   H194      1.0  0.07389  0.30604  0.09186  1.0000
  H   H195      1.0  0.99662  0.00166  0.23527  1.0000
  H   H196      1.0  0.97838  0.02015  0.18267  1.0000
  H   H197      1.0  0.01472  0.99255  0.05037  1.0000
  H   H198      1.0  0.19650  0.40756  0.48583  1.0000
  H   H199      1.0  0.18192  0.43705  0.48060  1.0000
  C   C109      1.0  0.98501  0.00346  0.14124  1.0000
  H   H200      1.0  0.05263  0.28360  0.48214  1.0000
  H   H201      1.0  0.98059  0.06584  0.25453  1.0000
  H   H202      1.0  0.28689  0.45779  0.16702  1.0000
  C   C110      1.0  0.02986  0.99190  0.15248  1.0000
  H   H203      1.0  0.97568  0.18340  0.26034  1.0000
  H   H204      1.0  0.28112  0.45870  0.13062  1.0000
  C   C111      1.0  0.97567  0.03122  0.42085  1.0000
  H   H205      1.0  0.19827  0.21940  0.48714  1.0000
  C   C112      1.0  0.97733  0.12314  0.51677  1.0000
  H   H206      1.0  0.18174  0.28980  0.56491  1.0000
  Fe  Fe11      1.0  0.02854  0.13846  0.64906  1.0000
  S   S25       1.0  0.05445  0.13151  0.63690  1.0000
  S   S26       1.0  0.02132  0.15575  0.69310  1.0000
  Fe  Fe12      1.0  0.01726  0.12122  0.58964  1.0000
  S   S27       1.0  0.04207  0.11161  0.57346  1.0000
  S   S28       1.0  0.99361  0.11849  0.56632  1.0000
  Fe  Fe13      1.0  0.04532  0.08688  0.61511  1.0000
  S   S29       1.0  0.05833  0.04046  0.62380  1.0000
  Fe  Fe14      1.0  0.04953  0.15700  0.59619  1.0000
  S   S30       1.0  0.06276  0.20025  0.57559  1.0000
  S   S31       1.0  0.01989  0.09278  0.62933  1.0000
  S   S32       1.0  0.02422  0.16764  0.61032  1.0000
  H   H207      1.0  0.03509  0.14201  0.50780  1.0000
  H   H208      1.0  0.05564  0.04573  0.68758  1.0000
  S   S33       1.0  0.13143  0.24546  0.52562  1.0000
  Fe  Fe15      1.0  0.17836  0.32179  0.51075  1.0000
  S   S34       1.0  0.20356  0.32807  0.52898  1.0000
  H   H209      1.0  0.01922  0.08871  0.93180  1.0000
  S   S35       1.0  0.14191  0.41171  0.53064  1.0000
  S   S36       1.0  0.15670  0.32532  0.53891  1.0000
  H   H210      1.0  0.15510  0.19937  0.60487  1.0000
  H   H211      1.0  0.98354  0.06734  0.92295  1.0000
  H   H212      1.0  0.21281  0.31520  0.59339  1.0000
  C   C113      1.0  0.22253  0.31441  0.51717  1.0000
  C   C114      1.0  0.23648  0.32827  0.52868  1.0000
  C   C115      1.0  0.25183  0.31751  0.52092  1.0000
  H   H213      1.0  0.04996  0.22117  0.52021  1.0000
  H   H214      1.0  0.13578  0.23720  0.62565  1.0000
  C   C116      1.0  0.00944  0.01086  0.68450  1.0000
  H   H215      1.0  0.23543  0.34737  0.54387  1.0000
  H   H216      1.0  0.26243  0.32836  0.53005  1.0000
  C   C117      1.0  0.25340  0.29201  0.50214  1.0000
  H   H217      1.0  0.19867  0.39792  0.53329  1.0000
  H   H218      1.0  0.01509  0.02234  0.74010  1.0000
  C   C118      1.0  0.14897  0.47602  0.52849  1.0000
  C   C119      1.0  0.20107  0.32040  0.60331  1.0000
  H   H219      1.0  0.01857  0.07920  0.78258  1.0000
  H   H220      1.0  0.03181  0.02849  0.66609  1.0000
  C   C120      1.0  0.08200  0.21206  0.56173  1.0000
  C   C121      1.0  0.08439  0.24391  0.55276  1.0000
  C   C122      1.0  0.09928  0.25458  0.54162  1.0000
  C   C123      1.0  0.11210  0.23346  0.53900  1.0000
  C   C124      1.0  0.10966  0.20153  0.54773  1.0000
  C   C125      1.0  0.09482  0.19093  0.55909  1.0000
  H   H221      1.0  0.07468  0.26063  0.55475  1.0000
  H   H222      1.0  0.10084  0.27919  0.53516  1.0000
  H   H223      1.0  0.05355  0.28153  0.52000  1.0000
  H   H224      1.0  0.09331  0.16641  0.56584  1.0000
  C   C126      1.0  0.14729  0.44742  0.51317  1.0000
  C   C127      1.0  0.99203  0.11617  0.52945  1.0000
  C   C128      1.0  0.04939  0.05134  0.70759  1.0000
  H   H225      1.0  0.05945  0.13272  0.70458  1.0000
  H   H226      1.0  0.01625  0.10142  0.52224  1.0000
  H   H227      1.0  0.06958  0.14240  0.53703  1.0000
  H   H228      1.0  0.02843  0.02226  0.59663  1.0000
  C   C129      1.0  0.04989  0.00295  0.61430  1.0000
  Fe  Fe16      1.0  0.14855  0.36444  0.51029  1.0000
  C   C130      1.0  0.19095  0.23374  0.52893  1.0000
  H   H229      1.0  0.01111  0.13671  0.96394  1.0000
  C   C131      1.0  0.98859  0.11100  0.76147  1.0000
  C   C132      1.0  0.00092  0.13435  0.97786  1.0000
  C   C133      1.0  0.99935  0.11037  0.71344  1.0000
  C   C134      1.0  0.00838  0.13814  0.71875  1.0000
  C   C135      1.0  0.00721  0.15247  0.74541  1.0000
  C   C136      1.0  0.99740  0.13906  0.76663  1.0000
  H   H230      1.0  0.17454  0.20166  0.55110  1.0000
  H   H231      1.0  0.99991  0.09930  0.69297  1.0000
  H   H232      1.0  0.01411  0.17397  0.74979  1.0000
  H   H233      1.0  0.99693  0.15009  0.78713  1.0000
  C   C137      1.0  0.06202  0.10680  0.70644  1.0000
  H   H234      1.0  0.04399  0.16919  0.53194  1.0000
  C   C138      1.0  0.02303  0.05496  0.78764  1.0000
  C   C139      1.0  0.04320  0.22223  0.50010  1.0000
  H   H235      1.0  0.05783  0.99448  0.68067  1.0000
  N   N7        1.0  0.98188  0.02298  0.94612  1.0000
  H   H236      1.0  0.11940  0.18484  0.54589  1.0000
  H   H237      1.0  0.20553  0.19531  0.57215  1.0000
  H   H238      1.0  0.02663  0.25522  0.52088  1.0000
  C   C140      1.0  0.23943  0.27805  0.49070  1.0000
  C   C141      1.0  0.06436  0.21166  0.98755  1.0000
  C   C142      1.0  0.20487  0.20968  0.59167  1.0000
  H   H239      1.0  0.06955  0.09959  0.68832  1.0000
  H   H240      1.0  0.00265  0.99356  0.95387  1.0000
  H   H241      1.0  0.01888  0.06284  0.73222  1.0000
  H   H242      1.0  0.15698  0.26746  0.57933  1.0000
  C   C143      1.0  0.03413  0.04304  0.76440  1.0000
  C   C144      1.0  0.10580  0.47046  0.59895  1.0000
  H   H243      1.0  0.06874  0.10293  0.72616  1.0000
  C   C145      1.0  0.18719  0.21740  0.59837  1.0000
  H   H244      1.0  0.22476  0.18358  0.60919  1.0000
  H   H245      1.0  0.03933  0.09618  0.72512  1.0000
  C   C146      1.0  0.18518  0.41474  0.56854  1.0000
  H   H246      1.0  0.19580  0.41913  0.58201  1.0000
  C   C147      1.0  0.21226  0.18965  0.61494  1.0000
  C   C148      1.0  0.99998  0.20478  0.55143  1.0000
  H   H247      1.0  0.00084  0.01781  0.70115  1.0000
  C   C149      1.0  0.19611  0.45055  0.52964  1.0000
  C   C150      1.0  0.98966  0.09678  0.73474  1.0000
  C   C151      1.0  0.22120  0.44978  0.50115  1.0000
  H   H248      1.0  0.20327  0.33178  0.62400  1.0000
  H   H249      1.0  0.03886  0.01953  0.77092  1.0000
  H   H250      1.0  0.19453  0.33758  0.58996  1.0000
  H   H251      1.0  0.17575  0.43242  0.57353  1.0000
  C   C152      1.0  0.19119  0.28967  0.60712  1.0000
  H   H252      1.0  0.99770  0.22981  0.54502  1.0000
  C   C153      1.0  0.01635  0.19402  0.54083  1.0000
  H   H253      1.0  0.00869  0.00630  0.63902  1.0000
  H   H254      1.0  0.02020  0.05761  0.68321  1.0000
  H   H255      1.0  0.10400  0.48337  0.61906  1.0000
  C   C154      1.0  0.02457  0.03277  0.68536  1.0000
  S   S37       1.0  0.27238  0.27603  0.49294  1.0000
  H   H256      1.0  0.21238  0.23156  0.58941  1.0000
  Fe  Fe17      1.0  0.29757  0.29759  0.49851  1.0000
  C   C155      1.0  0.04030  0.99617  0.71551  1.0000
  H   H257      1.0  0.12601  0.20846  0.60306  1.0000
  H   H258      1.0  0.18030  0.39046  0.57313  1.0000
  C   C156      1.0  0.15071  0.21908  0.59159  1.0000
  H   H259      1.0  0.06117  0.11012  0.51617  1.0000
  C   C157      1.0  0.99118  0.05200  0.93613  1.0000
  N   N8        1.0  0.20334  0.45482  0.50066  1.0000
  H   H260      1.0  0.12936  0.24873  0.59098  1.0000
  S   S38       1.0  0.98297  0.13621  0.92872  1.0000
  H   H261      1.0  0.02966  0.05641  0.80774  1.0000
  H   H262      1.0  0.17883  0.41103  0.52542  1.0000
  H   H263      1.0  0.18635  0.22521  0.62064  1.0000
  C   C158      1.0  0.18821  0.27281  0.57857  1.0000
  C   C159      1.0  0.18980  0.41668  0.53760  1.0000
  H   H264      1.0  0.03959  0.09405  0.68752  1.0000
  H   H265      1.0  0.16639  0.23840  0.54001  1.0000
  H   H266      1.0  0.19096  0.25915  0.52223  1.0000
  C   C160      1.0  0.02498  0.03989  0.73630  1.0000
  C   C161      1.0  0.04627  0.08782  0.70675  1.0000
  H   H267      1.0  0.99963  0.20352  0.57465  1.0000
  Fe  Fe18      1.0  0.14395  0.29157  0.50922  1.0000
  C   C162      1.0  0.99238  0.00388  0.96537  1.0000
  H   H268      1.0  0.99036  0.18887  0.54307  1.0000
  H   H269      1.0  0.98470  0.21543  0.80679  1.0000
  H   H270      1.0  0.00967  0.17213  0.50162  1.0000
  H   H271      1.0  0.19789  0.27400  0.62154  1.0000
  H   H272      1.0  0.20289  0.22893  0.53773  1.0000
  H   H273      1.0  0.18072  0.19403  0.59761  1.0000
  H   H274      1.0  0.01839  0.16960  0.54906  1.0000
  C   C163      1.0  0.18889  0.21296  0.50277  1.0000
  H   H275      1.0  0.09416  0.46039  0.59167  1.0000
  H   H276      1.0  0.14861  0.20960  0.57017  1.0000
  H   H277      1.0  0.20013  0.27038  0.56853  1.0000
  N   N9        1.0  0.03480  0.03003  0.71120  1.0000
  H   H278      1.0  0.02598  0.07229  0.89891  1.0000
  N   N10       1.0  0.17920  0.24127  0.57953  1.0000
  H   H279      1.0  0.99480  0.06711  0.95440  1.0000
  H   H280      1.0  0.02571  0.21021  0.54964  1.0000
  H   H281      1.0  0.16349  0.25615  0.61338  1.0000
  C   C164      1.0  0.13452  0.22909  0.60359  1.0000
  H   H282      1.0  0.01260  0.03848  0.79041  1.0000
  C   C165      1.0  0.16271  0.24779  0.59131  1.0000
  C   C166      1.0  0.17711  0.22785  0.55023  1.0000
  C   C167      1.0  0.98536  0.13331  0.96631  1.0000
  H   H283      1.0  0.04932  0.99543  0.73262  1.0000
  H   H284      1.0  0.11406  0.45028  0.60269  1.0000
  H   H285      1.0  0.17697  0.21672  0.49314  1.0000
  H   H286      1.0  0.01307  0.00810  0.50382  1.0000
  H   H287      1.0  0.20536  0.16701  0.61794  1.0000
  H   H288      1.0  0.22427  0.40845  0.52874  1.0000
  C   C168      1.0  0.00620  0.04592  0.91795  1.0000
  C   C169      1.0  0.04232  0.16448  0.50919  1.0000
  C   C170      1.0  0.01699  0.19317  0.50840  1.0000
  H   H289      1.0  0.99699  0.03885  0.65299  1.0000
  H   H290      1.0  0.04426  0.06032  0.76286  1.0000
  H   H291      1.0  0.20477  0.45841  0.54603  1.0000
  H   H292      1.0  0.21251  0.20325  0.63496  1.0000
  H   H293      1.0  0.05836  0.04662  0.72421  1.0000
  H   H294      1.0  0.17977  0.29659  0.61720  1.0000
  C   C171      1.0  0.06798  0.13309  0.51539  1.0000
  C   C172      1.0  0.00502  0.10761  0.51259  1.0000
  H   H295      1.0  0.19010  0.18728  0.50814  1.0000
  H   H296      1.0  0.18546  0.46618  0.53227  1.0000
  C   C173      1.0  0.03495  0.00073  0.60132  1.0000
  H   H297      1.0  0.01467  0.02961  0.92832  1.0000
  C   C174      1.0  0.00078  0.01380  0.65651  1.0000
  H   H298      1.0  0.14739  0.47567  0.55099  1.0000
  C   C175      1.0  0.01526  0.07718  0.91197  1.0000
  H   H299      1.0  0.99798  0.01991  0.98140  1.0000
  H   H300      1.0  0.06306  0.23763  0.98341  1.0000
  H   H301      1.0  0.00258  0.03589  0.89734  1.0000
  H   H302      1.0  0.97525  0.20243  0.69065  1.0000
  H   H303      1.0  0.00751  0.09400  0.90035  1.0000
  C   C176      1.0  0.05927  0.15740  0.49731  1.0000
  H   H304      1.0  0.11510  0.47822  0.55778  1.0000
  H   H305      1.0  0.22685  0.46491  0.51767  1.0000
  H   H306      1.0  0.05804  0.19815  0.97074  1.0000
  H   H307      1.0  0.98297  0.07501  0.73046  1.0000
  H   H308      1.0  0.01029  0.21401  0.50061  1.0000
  C   C177      1.0  0.22409  0.28948  0.49780  1.0000
  H   H309      1.0  0.98071  0.16255  0.68064  1.0000
  S   S39       1.0  0.97663  0.09183  0.78773  1.0000
  C   C178      1.0  0.22696  0.41531  0.50678  1.0000
  H   H310      1.0  0.08003  0.12854  0.50643  1.0000
  H   H311      1.0  0.25147  0.42963  0.51735  1.0000
  H   H312      1.0  0.98995  0.99813  0.65647  1.0000
  C   C179      1.0  0.03389  0.25409  0.50139  1.0000
  H   H313      1.0  0.99364  0.99303  0.51411  1.0000
  C   C180      1.0  0.04539  0.28282  0.50169  1.0000
  N   N11       1.0  0.03354  0.19180  0.49564  1.0000
  H   H314      1.0  0.03847  0.30526  0.50328  1.0000
  H   H315      1.0  0.24904  0.38834  0.50736  1.0000
  H   H316      1.0  0.00996  0.99395  0.53902  1.0000
  H   H317      1.0  0.06680  0.17943  0.49651  1.0000
  H   H318      1.0  0.07724  0.20540  0.98681  1.0000
  C   C181      1.0  0.24510  0.41305  0.50283  1.0000
  C   C182      1.0  0.97551  0.00360  0.92161  1.0000
  H   H319      1.0  0.22141  0.39757  0.49241  1.0000
  C   C183      1.0  0.20039  0.48885  0.49154  1.0000
  Fe  Fe19      1.0  0.00990  0.79658  0.10892  1.0000
  S   S40       1.0  0.03448  0.81997  0.11068  1.0000
  S   S41       1.0  0.99290  0.79082  0.07025  1.0000
  Fe  Fe20      1.0  0.00985  0.78524  0.17437  1.0000
  S   S42       1.0  0.03411  0.80827  0.17874  1.0000
  S   S43       1.0  0.00145  0.76378  0.21636  1.0000
  Fe  Fe21      1.0  0.02503  0.84569  0.14913  1.0000
  S   S44       1.0  0.02349  0.89679  0.16576  1.0000
  Fe  Fe22      1.0  0.04152  0.78009  0.14090  1.0000
  S   S45       1.0  0.06306  0.74515  0.13896  1.0000
  S   S46       1.0  0.00037  0.82377  0.14646  1.0000
  S   S47       1.0  0.01734  0.75558  0.13699  1.0000
  H   H320      1.0  0.20775  0.56427  0.20200  1.0000
  Fe  Fe23      1.0  0.15432  0.65798  0.46061  1.0000
  S   S48       1.0  0.14932  0.68609  0.42145  1.0000
  Fe  Fe24      1.0  0.14718  0.58212  0.21492  1.0000
  S   S49       1.0  0.15290  0.62528  0.18815  1.0000
  S   S50       1.0  0.13531  0.53589  0.19990  1.0000
  Fe  Fe25      1.0  0.15633  0.61660  0.26844  1.0000
  S   S51       1.0  0.16264  0.66257  0.24636  1.0000
  S   S52       1.0  0.15935  0.60082  0.31341  1.0000
  Fe  Fe26      1.0  0.13986  0.65422  0.22095  1.0000
  S   S53       1.0  0.12232  0.69660  0.21435  1.0000
  Fe  Fe27      1.0  0.17521  0.63088  0.21506  1.0000
  S   S54       1.0  0.19962  0.64214  0.19414  1.0000
  S   S55       1.0  0.13289  0.61054  0.24605  1.0000
  S   S56       1.0  0.17019  0.58549  0.23876  1.0000
  H   H321      1.0  0.27208  0.54633  0.39437  1.0000
  C   C184      1.0  0.09412  0.63739  0.47787  1.0000
  S   S57       1.0  0.27207  0.64368  0.24059  1.0000
  N   N12       1.0  0.00878  0.69778  0.01579  1.0000
  C   C185      1.0  0.98722  0.86172  0.47927  1.0000
  H   H322      1.0  0.16770  0.51560  0.21345  1.0000
  H   H323      1.0  0.98361  0.93430  0.40585  1.0000
  C   C186      1.0  0.21970  0.64174  0.20742  1.0000
  C   C187      1.0  0.23263  0.64767  0.18898  1.0000
  C   C188      1.0  0.24868  0.64792  0.19852  1.0000
  C   C189      1.0  0.25208  0.64273  0.22685  1.0000
  C   C190      1.0  0.23915  0.63670  0.24527  1.0000
  C   C191      1.0  0.22313  0.63591  0.23564  1.0000
  H   H324      1.0  0.23021  0.65227  0.16711  1.0000
  H   H325      1.0  0.25839  0.65285  0.18405  1.0000
  H   H326      1.0  0.24154  0.63266  0.26723  1.0000
  H   H327      1.0  0.21340  0.63118  0.25010  1.0000
  H   H328      1.0  0.25556  0.63217  0.37422  1.0000
  H   H329      1.0  0.08211  0.61677  0.23885  1.0000
  C   C192      1.0  0.15080  0.66248  0.39101  1.0000
  C   C193      1.0  0.15244  0.62939  0.39321  1.0000
  C   C194      1.0  0.15458  0.61079  0.36906  1.0000
  C   C195      1.0  0.15492  0.62503  0.34251  1.0000
  C   C196      1.0  0.15290  0.65807  0.34015  1.0000
  C   C197      1.0  0.15085  0.67680  0.36443  1.0000
  H   H330      1.0  0.15224  0.61808  0.41357  1.0000
  H   H331      1.0  0.15614  0.58524  0.37098  1.0000
  H   H332      1.0  0.15326  0.66922  0.31972  1.0000
  H   H333      1.0  0.14956  0.70242  0.36265  1.0000
  C   C198      1.0  0.07903  0.73146  0.16113  1.0000
  C   C199      1.0  0.08473  0.74901  0.18415  1.0000
  C   C200      1.0  0.09771  0.73768  0.20030  1.0000
  C   C201      1.0  0.10517  0.70839  0.19413  1.0000
  C   C202      1.0  0.09934  0.69059  0.17133  1.0000
  C   C203      1.0  0.08652  0.70218  0.15490  1.0000
  H   H334      1.0  0.07938  0.77175  0.18915  1.0000
  H   H335      1.0  0.10212  0.75198  0.21763  1.0000
  H   H336      1.0  0.10484  0.66809  0.16607  1.0000
  H   H337      1.0  0.08235  0.68826  0.13717  1.0000
  C   C204      1.0  0.03011  0.93342  0.15096  1.0000
  C   C205      1.0  0.03974  0.93481  0.12697  1.0000
  C   C206      1.0  0.04446  0.96471  0.11586  1.0000
  C   C207      1.0  0.02094  0.84556  0.24315  1.0000
  C   C208      1.0  0.02536  0.96207  0.16382  1.0000
  H   H338      1.0  0.04362  0.91293  0.11707  1.0000
  H   H339      1.0  0.01806  0.96122  0.18256  1.0000
  H   H340      1.0  0.14383  0.62946  0.11974  1.0000
  H   H341      1.0  0.00670  0.95442  0.26169  1.0000
  H   H342      1.0  0.17164  0.69100  0.11104  1.0000
  C   C209      1.0  0.25158  0.65629  0.38085  1.0000
  C   C210      1.0  0.99369  0.95958  0.26202  1.0000
  H   H343      1.0  0.20617  0.49384  0.47097  1.0000
  C   C211      1.0  0.14410  0.49777  0.20369  1.0000
  C   C212      1.0  0.00183  0.80494  0.01426  1.0000
  C   C213      1.0  0.98972  0.79512  0.03292  1.0000
  C   C214      1.0  0.19866  0.70810  0.44162  1.0000
  H   H344      1.0  0.08009  0.68645  0.25928  1.0000
  N   N13       1.0  0.04981  0.69366  0.23079  1.0000
  C   C215      1.0  0.04188  0.69846  0.20272  1.0000
  C   C216      1.0  0.05733  0.72466  0.24118  1.0000
  C   C217      1.0  0.06307  0.66978  0.22657  1.0000
  C   C218      1.0  0.03827  0.68025  0.25228  1.0000
  C   C219      1.0  0.02260  0.69901  0.25683  1.0000
  C   C220      1.0  0.03435  0.66819  0.18897  1.0000
  C   C221      1.0  0.07412  0.66401  0.25217  1.0000
  C   C222      1.0  0.04940  0.75638  0.23226  1.0000
  C   C223      1.0  0.05708  0.78504  0.24721  1.0000
  C   C224      1.0  0.01153  0.68180  0.27760  1.0000
  C   C225      1.0  0.98443  0.93481  0.38263  1.0000
  C   C226      1.0  0.08732  0.64037  0.24483  1.0000
  H   H345      1.0  0.05074  0.70849  0.18754  1.0000
  H   H346      1.0  0.03230  0.71660  0.20397  1.0000
  H   H347      1.0  0.05832  0.72459  0.26445  1.0000
  H   H348      1.0  0.06987  0.72709  0.23342  1.0000
  H   H349      1.0  0.07087  0.67738  0.20869  1.0000
  H   H350      1.0  0.05808  0.64590  0.22079  1.0000
  H   H351      1.0  0.03498  0.65505  0.24713  1.0000
  H   H352      1.0  0.04410  0.67899  0.27315  1.0000
  H   H353      1.0  0.01581  0.70163  0.23708  1.0000
  H   H354      1.0  0.02530  0.72296  0.26571  1.0000
  H   H355      1.0  0.04378  0.65115  0.18263  1.0000
  H   H356      1.0  0.02583  0.65599  0.20339  1.0000
  H   H357      1.0  0.06722  0.65383  0.26999  1.0000
  H   H358      1.0  0.05117  0.75995  0.20942  1.0000
  H   H359      1.0  0.03639  0.75657  0.23664  1.0000
  H   H360      1.0  0.07019  0.78595  0.24320  1.0000
  H   H361      1.0  0.05183  0.80749  0.23921  1.0000
  H   H362      1.0  0.05483  0.78365  0.27013  1.0000
  C   C227      1.0  0.98479  0.93915  0.23965  1.0000
  H   H363      1.0  0.01742  0.67943  0.29832  1.0000
  N   N14       1.0  0.98450  0.90352  0.24452  1.0000
  Fe  Fe28      1.0  0.15798  0.59122  0.48563  1.0000
  S   S58       1.0  0.15918  0.54109  0.46748  1.0000
  H   H364      1.0  0.04915  0.77317  0.04275  1.0000
  H   H365      1.0  0.09480  0.64955  0.22725  1.0000
  H   H366      1.0  0.09523  0.63699  0.26323  1.0000
  C   C228      1.0  0.28348  0.60341  0.13732  1.0000
  H   H367      1.0  0.29016  0.58061  0.17574  1.0000
  C   C229      1.0  0.24560  0.53177  0.18900  1.0000
  N   N15       1.0  0.14798  0.72697  0.14026  1.0000
  C   C230      1.0  0.14389  0.69173  0.14190  1.0000
  C   C231      1.0  0.15693  0.73761  0.16633  1.0000
  C   C232      1.0  0.13238  0.74487  0.13931  1.0000
  C   C233      1.0  0.15736  0.73520  0.11415  1.0000
  H   H368      1.0  0.99932  0.66907  0.04971  1.0000
  C   C234      1.0  0.13394  0.67749  0.11736  1.0000
  C   C235      1.0  0.13366  0.78195  0.14032  1.0000
  C   C236      1.0  0.16836  0.71320  0.18005  1.0000
  C   C237      1.0  0.17882  0.72902  0.20248  1.0000
  H   H369      1.0  0.19196  0.71204  0.07838  1.0000
  C   C238      1.0  0.13199  0.64126  0.12039  1.0000
  C   C239      1.0  0.11706  0.79681  0.14235  1.0000
  H   H370      1.0  0.13709  0.68677  0.16153  1.0000
  H   H371      1.0  0.15482  0.67709  0.14354  1.0000
  H   H372      1.0  0.16389  0.75998  0.16212  1.0000
  H   H373      1.0  0.14830  0.74375  0.18340  1.0000
  H   H374      1.0  0.12457  0.73723  0.15704  1.0000
  H   H375      1.0  0.12560  0.73909  0.11989  1.0000
  C   C240      1.0  0.11442  0.53589  0.46960  1.0000
  H   H376      1.0  0.16065  0.76105  0.11410  1.0000
  H   H377      1.0  0.25366  0.52410  0.24325  1.0000
  H   H378      1.0  0.01488  0.69237  0.16782  1.0000
  H   H379      1.0  0.12171  0.68755  0.11709  1.0000
  C   C241      1.0  0.02513  0.67675  0.16250  1.0000
  H   H380      1.0  0.13945  0.79131  0.12101  1.0000
  H   H381      1.0  0.14064  0.79045  0.15868  1.0000
  H   H382      1.0  0.16115  0.69418  0.19045  1.0000
  H   H383      1.0  0.17637  0.70151  0.16477  1.0000
  H   H384      1.0  0.17125  0.73967  0.21918  1.0000
  H   H385      1.0  0.18660  0.71077  0.21219  1.0000
  H   H386      1.0  0.18663  0.74785  0.19310  1.0000
  H   H387      1.0  0.29360  0.64966  0.35487  1.0000
  H   H388      1.0  0.97969  0.77203  0.31237  1.0000
  H   H389      1.0  0.04893  0.86663  0.48047  1.0000
  H   H390      1.0  0.30420  0.51826  0.41879  1.0000
  H   H391      1.0  0.14074  0.54501  0.29080  1.0000
  H   H392      1.0  0.12459  0.63165  0.10292  1.0000
  H   H393      1.0  0.10942  0.78904  0.12450  1.0000
  H   H394      1.0  0.11110  0.78977  0.16227  1.0000
  H   H395      1.0  0.11818  0.82330  0.14193  1.0000
  H   H396      1.0  0.15254  0.75167  0.47624  1.0000
  C   C242      1.0  0.09687  0.73134  0.43655  1.0000
  H   H397      1.0  0.17218  0.71605  0.06399  1.0000
  H   H398      1.0  0.27172  0.49613  0.20087  1.0000
  H   H399      1.0  0.27920  0.62540  0.14795  1.0000
  H   H400      1.0  0.00812  0.65770  0.26960  1.0000
  C   C243      1.0  0.10652  0.71514  0.41262  1.0000
  H   H401      1.0  0.02035  0.65464  0.15248  1.0000
  H   H402      1.0  0.00276  0.90221  0.46936  1.0000
  N   N16       1.0  0.10365  0.72821  0.46573  1.0000
  C   C244      1.0  0.09785  0.71786  0.38459  1.0000
  C   C245      1.0  0.19930  0.67010  0.33842  1.0000
  H   H403      1.0  0.09577  0.75715  0.43115  1.0000
  H   H404      1.0  0.08451  0.72154  0.43530  1.0000
  S   S59       1.0  0.13683  0.62278  0.47848  1.0000
  H   H405      1.0  0.98755  0.88349  0.38229  1.0000
  H   H406      1.0  0.00041  0.69576  0.28046  1.0000
  C   C246      1.0  0.13768  0.52293  0.27890  1.0000
  C   C247      1.0  0.02162  0.67389  0.00831  1.0000
  C   C248      1.0  0.97799  0.77862  0.29069  1.0000
  H   H407      1.0  0.08362  0.67453  0.45389  1.0000
  H   H408      1.0  0.20343  0.71260  0.46299  1.0000
  H   H409      1.0  0.11844  0.72673  0.40991  1.0000
  H   H410      1.0  0.10822  0.68932  0.41677  1.0000
  H   H411      1.0  0.25350  0.65907  0.40377  1.0000
  C   C249      1.0  0.19653  0.66332  0.30731  1.0000
  H   H412      1.0  0.98015  0.91666  0.18530  1.0000
  H   H413      1.0  0.13148  0.49875  0.31703  1.0000
  H   H414      1.0  0.01382  0.76809  0.46683  1.0000
  H   H415      1.0  0.99395  0.90295  0.35051  1.0000
  H   H416      1.0  0.97591  0.97715  0.32285  1.0000
  H   H417      1.0  0.08602  0.70545  0.38550  1.0000
  H   H418      1.0  0.09613  0.74337  0.37901  1.0000
  H   H419      1.0  0.10514  0.70648  0.36788  1.0000
  C   C250      1.0  0.98086  0.70315  0.03968  1.0000
  H   H420      1.0  0.00315  0.94633  0.06212  1.0000
  H   H421      1.0  0.03313  0.68923  0.14729  1.0000
  C   C251      1.0  0.98936  0.76973  0.27014  1.0000
  S   S60       1.0  0.30228  0.64840  0.41287  1.0000
  C   C252      1.0  0.01606  0.63940  0.00059  1.0000
  C   C253      1.0  0.00578  0.88659  0.08428  1.0000
  C   C254      1.0  0.00143  0.89152  0.24242  1.0000
  H   H422      1.0  0.28030  0.56551  0.21613  1.0000
  H   H423      1.0  0.25914  0.67441  0.36988  1.0000
  H   H424      1.0  0.98907  0.95482  0.28337  1.0000
  H   H425      1.0  0.18547  0.70463  0.44329  1.0000
  H   H426      1.0  0.28801  0.55422  0.14631  1.0000
  H   H427      1.0  0.26083  0.58031  0.21975  1.0000
  H   H428      1.0  0.02663  0.85400  0.26287  1.0000
  C   C255      1.0  0.26752  0.55783  0.21646  1.0000
  H   H429      1.0  0.99745  0.84363  0.26096  1.0000
  H   H430      1.0  0.21050  0.68428  0.34031  1.0000
  H   H431      1.0  0.23502  0.57980  0.18739  1.0000
  C   C256      1.0  0.13886  0.49387  0.29810  1.0000
  H   H432      1.0  0.99976  0.75644  0.27636  1.0000
  C   C257      1.0  0.23337  0.55708  0.19895  1.0000
  H   H433      1.0  0.99377  0.85953  0.43508  1.0000
  H   H434      1.0  0.19311  0.57847  0.36812  1.0000
  C   C258      1.0  0.22315  0.63562  0.38767  1.0000
  H   H435      1.0  0.25845  0.56060  0.14685  1.0000
  C   C259      1.0  0.26657  0.55659  0.26967  1.0000
  H   H436      1.0  0.25978  0.59049  0.17279  1.0000
  C   C260      1.0  0.98731  0.77767  0.24170  1.0000
  S   S61       1.0  0.17498  0.62498  0.46407  1.0000
  H   H437      1.0  0.18966  0.53156  0.39855  1.0000
  H   H438      1.0  0.99805  0.84390  0.22326  1.0000
  C   C261      1.0  0.99362  0.90510  0.37371  1.0000
  H   H439      1.0  0.17591  0.56240  0.40855  1.0000
  C   C262      1.0  0.18878  0.55593  0.40765  1.0000
  C   C263      1.0  0.28264  0.57494  0.15731  1.0000
  C   C264      1.0  0.18038  0.72455  0.08079  1.0000
  C   C265      1.0  0.26512  0.56742  0.16616  1.0000
  H   H440      1.0  0.29693  0.57036  0.37488  1.0000
  C   C266      1.0  0.19819  0.57982  0.38956  1.0000
  H   H441      1.0  0.21078  0.57178  0.38872  1.0000
  N   N17       1.0  0.26291  0.54263  0.18891  1.0000
  H   H442      1.0  0.19356  0.55547  0.42934  1.0000
  C   C267      1.0  0.27033  0.49582  0.15611  1.0000
  H   H443      1.0  0.19581  0.68620  0.29563  1.0000
  H   H444      1.0  0.20364  0.65827  0.44364  1.0000
  H   H445      1.0  0.18713  0.62947  0.35476  1.0000
  H   H446      1.0  0.18513  0.64987  0.30419  1.0000
  H   H447      1.0  0.20656  0.64926  0.29849  1.0000
  H   H448      1.0  0.99154  0.88073  0.18882  1.0000
  H   H449      1.0  0.27499  0.51841  0.24357  1.0000
  C   C268      1.0  0.12006  0.74391  0.46541  1.0000
  H   H450      1.0  0.98477  0.72120  0.05535  1.0000
  H   H451      1.0  0.26880  0.51217  0.13812  1.0000
  H   H452      1.0  0.12844  0.73020  0.45197  1.0000
  H   H453      1.0  0.18261  0.75065  0.07831  1.0000
  H   H454      1.0  0.11964  0.55165  0.45314  1.0000
  H   H455      1.0  0.20688  0.62083  0.34374  1.0000
  C   C269      1.0  0.17327  0.71728  0.10967  1.0000
  H   H456      1.0  0.18414  0.61939  0.40437  1.0000
  H   H457      1.0  0.24196  0.52421  0.16753  1.0000
  C   C270      1.0  0.09023  0.67266  0.47388  1.0000
  H   H458      1.0  0.99542  0.96250  0.34965  1.0000
  H   H459      1.0  0.26547  0.54080  0.28826  1.0000
  C   C271      1.0  0.19969  0.63863  0.35562  1.0000
  C   C272      1.0  0.21612  0.54579  0.19413  1.0000
  H   H460      1.0  0.22644  0.61249  0.37784  1.0000
  H   H461      1.0  0.20197  0.61250  0.42357  1.0000
  C   C273      1.0  0.19710  0.61411  0.40200  1.0000
  N   N18       1.0  0.20534  0.64064  0.38573  1.0000
  H   H462      1.0  0.01353  0.81130  0.02233  1.0000
  H   H463      1.0  0.20464  0.69275  0.38666  1.0000
  H   H464      1.0  0.23075  0.68572  0.38001  1.0000
  N   N19       1.0  0.99060  0.97451  0.09336  1.0000
  H   H465      1.0  0.18924  0.68513  0.34592  1.0000
  C   C274      1.0  0.29731  0.56017  0.39628  1.0000
  H   H466      1.0  0.20131  0.72937  0.42843  1.0000
  H   H467      1.0  0.07257  0.76271  0.46340  1.0000
  H   H468      1.0  0.02057  0.85127  0.47707  1.0000
  C   C275      1.0  0.16032  0.49450  0.21017  1.0000
  H   H469      1.0  0.99696  0.95943  0.13540  1.0000
  C   C276      1.0  0.20037  0.67189  0.39897  1.0000
  H   H470      1.0  0.11939  0.76829  0.45609  1.0000
  H   H471      1.0  0.23293  0.65908  0.35034  1.0000
  H   H472      1.0  0.18702  0.67357  0.39887  1.0000
  H   H473      1.0  0.21957  0.68221  0.42927  1.0000
  Fe  Fe29      1.0  0.29872  0.63864  0.22780  1.0000
  H   H474      1.0  0.00869  0.90089  0.26020  1.0000
  C   C277      1.0  0.20639  0.67827  0.42926  1.0000
  C   C278      1.0  0.23395  0.66118  0.37346  1.0000
  H   H475      1.0  0.26748  0.73659  0.46366  1.0000
  H   H476      1.0  0.22684  0.63344  0.41000  1.0000
  H   H477      1.0  0.00861  0.88752  0.06153  1.0000
  H   H478      1.0  0.28629  0.52113  0.18534  1.0000
  H   H479      1.0  0.12538  0.52533  0.27043  1.0000
  H   H480      1.0  0.05196  0.96568  0.09735  1.0000
  C   C279      1.0  0.03155  0.73919  0.02656  1.0000
  H   H481      1.0  0.04156  0.74538  0.06854  1.0000
  H   H482      1.0  0.01702  0.88920  0.09649  1.0000
  H   H483      1.0  0.12591  0.63519  0.14047  1.0000
  H   H484      1.0  0.14979  0.73175  0.09521  1.0000
  H   H485      1.0  0.98672  0.90163  0.28983  1.0000
  C   C280      1.0  0.99308  0.96577  0.37232  1.0000
  H   H486      1.0  0.18221  0.72536  0.12538  1.0000
  C   C281      1.0  0.98705  0.97187  0.12449  1.0000
  H   H487      1.0  0.98951  0.66227  0.01748  1.0000
  C   C282      1.0  0.00331  0.85468  0.24244  1.0000
  H   H488      1.0  0.02745  0.85610  0.22497  1.0000
  H   H489      1.0  0.98829  0.98220  0.18230  1.0000
  H   H490      1.0  0.00750  0.90097  0.22326  1.0000
  H   H491      1.0  0.99154  0.91025  0.11511  1.0000
  H   H492      1.0  0.00042  0.86275  0.08895  1.0000
  H   H493      1.0  0.25683  0.57443  0.27044  1.0000
  C   C283      1.0  0.99491  0.68141  0.03059  1.0000
  H   H494      1.0  0.13984  0.68217  0.09691  1.0000
  H   H495      1.0  0.20599  0.55329  0.48006  1.0000
  C   C284      1.0  0.10560  0.69369  0.47409  1.0000
  H   H496      1.0  0.00854  0.95363  0.48491  1.0000
  H   H497      1.0  0.27600  0.58570  0.40856  1.0000
  H   H498      1.0  0.02191  0.81912  0.24210  1.0000
  H   H499      1.0  0.02911  0.75510  0.00853  1.0000
  H   H500      1.0  0.02998  0.67067  0.02626  1.0000
  H   H501      1.0  0.11491  0.68205  0.46095  1.0000
  C   C285      1.0  0.00087  0.94648  0.08509  1.0000
  H   H502      1.0  0.01285  0.94879  0.09512  1.0000
  H   H503      1.0  0.00738  0.74077  0.04090  1.0000
  C   C286      1.0  0.99556  0.95196  0.99263  1.0000
  H   H504      1.0  0.29609  0.60754  0.13064  1.0000
  C   C287      1.0  0.00368  0.77194  0.48054  1.0000
  H   H505      1.0  0.14627  0.52091  0.26122  1.0000
  H   H506      1.0  0.27413  0.69703  0.47218  1.0000
  H   H507      1.0  0.08288  0.62297  0.47820  1.0000
  C   C288      1.0  0.27340  0.51410  0.18395  1.0000
  H   H508      1.0  0.01849  0.70981  0.05660  1.0000
  C   C289      1.0  0.97956  0.89126  0.19187  1.0000
  H   H509      1.0  0.23476  0.56209  0.22168  1.0000
  S   S62       1.0  0.98566  0.77281  0.43226  1.0000
  H   H510      1.0  0.27613  0.59873  0.11837  1.0000
  C   C290      1.0  0.26541  0.53660  0.24287  1.0000
  C   C291      1.0  0.98835  0.77552  0.46897  1.0000
  H   H511      1.0  0.27826  0.56945  0.27072  1.0000
  H   H512      1.0  0.99091  0.94470  0.21949  1.0000
  C   C292      1.0  0.99400  0.91275  0.09236  1.0000
  H   H513      1.0  0.18733  0.49250  0.48835  1.0000
  H   H514      1.0  0.99511  0.84131  0.48334  1.0000
  H   H515      1.0  0.10172  0.53065  0.46428  1.0000
  H   H516      1.0  0.15148  0.49200  0.30477  1.0000
  H   H517      1.0  0.00604  0.90595  0.38196  1.0000
  S   S63       1.0  0.30121  0.58773  0.47368  1.0000
  H   H518      1.0  0.23370  0.66920  0.48013  1.0000
  H   H519      1.0  0.24392  0.50994  0.20197  1.0000
  C   C293      1.0  0.09334  0.74573  0.48686  1.0000
  H   H520      1.0  0.06993  0.72279  0.47640  1.0000
  C   C294      1.0  0.01598  0.72162  0.03616  1.0000
  C   C295      1.0  0.98281  0.86071  0.44827  1.0000
  H   H521      1.0  0.04104  0.72223  0.02039  1.0000
  H   H522      1.0  0.29636  0.52740  0.34139  1.0000
  C   C296      1.0  0.00342  0.71575  0.99016  1.0000
  H   H523      1.0  0.10171  0.62868  0.46034  1.0000
  H   H524      1.0  0.30143  0.52995  0.29042  1.0000
  H   H525      1.0  0.97567  0.71563  0.02141  1.0000
  H   H526      1.0  0.21381  0.54225  0.17142  1.0000
  C   C297      1.0  0.03826  0.76017  0.05016  1.0000
  H   H527      1.0  0.12121  0.51321  0.46969  1.0000
  C   C298      1.0  0.30583  0.64157  0.35617  1.0000
  H   H528      1.0  0.02930  0.77807  0.05683  1.0000
  H   H529      1.0  0.98274  0.90789  0.08075  1.0000
  H   H530      1.0  0.29537  0.50948  0.38602  1.0000
  H   H531      1.0  0.99553  0.73584  0.99620  1.0000
  C   C299      1.0  0.97535  0.97261  0.07655  1.0000
  H   H532      1.0  0.14294  0.78945  0.48344  1.0000
  C   C300      1.0  0.97794  0.89521  0.27318  1.0000
  C   C301      1.0  0.07502  0.74665  0.48137  1.0000
  H   H533      1.0  0.01160  0.62689  0.01967  1.0000
  H   H534      1.0  0.09706  0.77139  0.48831  1.0000
  C   C302      1.0  0.30415  0.52579  0.39643  1.0000
  H   H535      1.0  0.26080  0.64694  0.48822  1.0000
  C   C303      1.0  0.28026  0.56063  0.40792  1.0000
  C   C304      1.0  0.27419  0.72237  0.47922  1.0000
  H   H536      1.0  0.21359  0.52314  0.20543  1.0000
  H   H537      1.0  0.97625  0.95656  0.12820  1.0000
  H   H538      1.0  0.97719  0.98652  0.99979  1.0000
  H   H539      1.0  0.00512  0.96639  0.38236  1.0000
  H   H540      1.0  0.97806  0.96833  0.05402  1.0000
  H   H541      1.0  0.98908  0.93378  0.00544  1.0000
  C   C305      1.0  0.15470  0.50546  0.48573  1.0000
  H   H542      1.0  0.00482  0.96376  0.00585  1.0000
  H   H543      1.0  0.28676  0.73142  0.47978  1.0000
  H   H544      1.0  0.97537  0.83916  0.44398  1.0000
  H   H545      1.0  0.27990  0.55096  0.42958  1.0000
  H   H546      1.0  0.03986  0.61877  0.00407  1.0000
  H   H547      1.0  0.97619  0.86886  0.27518  1.0000
  C   C306      1.0  0.99498  0.89442  0.48715  1.0000
  H   H548      1.0  0.98491  0.91168  0.48729  1.0000
  H   H549      1.0  0.30469  0.57625  0.40963  1.0000
  H   H550      1.0  0.02918  0.68326  0.99080  1.0000
  C   C307      1.0  0.97537  0.78057  0.48686  1.0000
  H   H551      1.0  0.97588  0.88209  0.44240  1.0000
  H   H552      1.0  0.04599  0.82502  0.48920  1.0000
  H   H553      1.0  0.03441  0.63073  0.96892  1.0000
  C   C308      1.0  0.12396  0.55913  0.55939  1.0000
  H   H554      1.0  0.97783  0.73133  0.95385  1.0000
  Fe  Fe30      1.0  0.01771  0.79024  0.58690  1.0000
  S   S64       1.0  0.03808  0.81636  0.56627  1.0000
  S   S65       1.0  0.99471  0.77548  0.56463  1.0000
  Fe  Fe31      1.0  0.03017  0.80431  0.64681  1.0000
  S   S66       1.0  0.05177  0.83095  0.62942  1.0000
  S   S67       1.0  0.02536  0.81201  0.69400  1.0000
  Fe  Fe32      1.0  0.03483  0.85410  0.59949  1.0000
  S   S68       1.0  0.02822  0.90547  0.58917  1.0000
  Fe  Fe33      1.0  0.05367  0.79063  0.59751  1.0000
  S   S69       1.0  0.07878  0.77493  0.58220  1.0000
  S   S70       1.0  0.01346  0.82933  0.61794  1.0000
  S   S71       1.0  0.03312  0.76228  0.61702  1.0000
  Fe  Fe34      1.0  0.14272  0.64522  0.52025  1.0000
  H   H555      1.0  0.12478  0.50128  0.58487  1.0000
  S   S72       1.0  0.12014  0.65173  0.54757  1.0000
  C   C309      1.0  0.25086  0.63962  0.50139  1.0000
  H   H556      1.0  0.09036  0.51010  0.56269  1.0000
  C   C310      1.0  0.27883  0.68645  0.57911  1.0000
  H   H557      1.0  0.00616  0.87299  0.55463  1.0000
  H   H558      1.0  0.14384  0.60739  0.58276  1.0000
  S   S73       1.0  0.16309  0.61068  0.52877  1.0000
  C   C311      1.0  0.12477  0.57232  0.58979  1.0000
  S   S74       1.0  0.27323  0.61024  0.53585  1.0000
  H   H559      1.0  0.00078  0.86165  0.70556  1.0000
  H   H560      1.0  0.99709  0.84880  0.52919  1.0000
  C   C312      1.0  0.28861  0.75846  0.56833  1.0000
  C   C313      1.0  0.22244  0.64333  0.51404  1.0000
  C   C314      1.0  0.05820  0.97473  0.62031  1.0000
  C   C315      1.0  0.02553  0.85477  0.49840  1.0000
  C   C316      1.0  0.25360  0.61974  0.52443  1.0000
  C   C317      1.0  0.24048  0.61013  0.54105  1.0000
  C   C318      1.0  0.22498  0.62158  0.53575  1.0000
  H   H561      1.0  0.24244  0.59487  0.55896  1.0000
  H   H562      1.0  0.21522  0.61537  0.54974  1.0000
  C   C319      1.0  0.03677  0.94238  0.60007  1.0000
  C   C320      1.0  0.02844  0.97060  0.59428  1.0000
  C   C321      1.0  0.04361  0.84991  0.49607  1.0000
  C   C322      1.0  0.97753  0.78072  0.51606  1.0000
  C   C323      1.0  0.05164  0.94451  0.61337  1.0000
  H   H563      1.0  0.01686  0.96919  0.58430  1.0000
  H   H564      1.0  0.05819  0.92297  0.61785  1.0000
  C   C324      1.0  0.08986  0.74006  0.57260  1.0000
  C   C325      1.0  0.08301  0.70930  0.57148  1.0000
  C   C326      1.0  0.09238  0.68272  0.56358  1.0000
  C   C327      1.0  0.10870  0.68637  0.55644  1.0000
  C   C328      1.0  0.11553  0.71707  0.55757  1.0000
  C   C329      1.0  0.10618  0.74361  0.56547  1.0000
  H   H565      1.0  0.07052  0.70600  0.57696  1.0000
  H   H566      1.0  0.08694  0.65914  0.56322  1.0000
  H   H567      1.0  0.12815  0.72030  0.55318  1.0000
  H   H568      1.0  0.11171  0.76712  0.56650  1.0000
  H   H569      1.0  0.97765  0.87621  0.74888  1.0000
  C   C330      1.0  0.99281  0.77692  0.52772  1.0000
  H   H570      1.0  0.11602  0.59175  0.59300  1.0000
  H   H571      1.0  0.01776  0.76986  0.51854  1.0000
  H   H572      1.0  0.25374  0.71689  0.50578  1.0000
  H   H573      1.0  0.98513  0.68064  0.97570  1.0000
  H   H574      1.0  0.26312  0.75905  0.55943  1.0000
  C   C331      1.0  0.98114  0.88275  0.54875  1.0000
  C   C332      1.0  0.14135  0.58626  0.59621  1.0000
  C   C333      1.0  0.99120  0.77601  0.76444  1.0000
  C   C334      1.0  0.99216  0.75937  0.73876  1.0000
  C   C335      1.0  0.00237  0.77007  0.71689  1.0000
  C   C336      1.0  0.01202  0.79735  0.72056  1.0000
  C   C337      1.0  0.01109  0.81395  0.74625  1.0000
  C   C338      1.0  0.00066  0.80361  0.76792  1.0000
  C   C339      1.0  0.12853  0.74733  0.49416  1.0000
  H   H575      1.0  0.00297  0.75686  0.69741  1.0000
  H   H576      1.0  0.01854  0.83497  0.74948  1.0000
  H   H577      1.0  0.00109  0.88007  0.65220  1.0000
  C   C340      1.0  0.00346  0.92997  0.52547  1.0000
  N   N20       1.0  0.00429  0.89615  0.51425  1.0000
  C   C341      1.0  0.99173  0.87752  0.69581  1.0000
  H   H578      1.0  0.00632  0.63906  0.98495  1.0000
  C   C342      1.0  0.24447  0.70017  0.59123  1.0000
  H   H579      1.0  0.99402  0.82638  0.66979  1.0000
  H   H580      1.0  0.15069  0.76584  0.51178  1.0000
  H   H581      1.0  0.99883  0.98493  0.90628  1.0000
  C   C343      1.0  0.14465  0.76467  0.49109  1.0000
  N   N21       1.0  0.10791  0.54587  0.55031  1.0000
  H   H582      1.0  0.01599  0.92381  0.69710  1.0000
  H   H583      1.0  0.27881  0.69525  0.60115  1.0000
  H   H584      1.0  0.04950  0.85391  0.51663  1.0000
  H   H585      1.0  0.07394  0.54469  0.54384  1.0000
  H   H586      1.0  0.99690  0.73353  0.93574  1.0000
  C   C344      1.0  0.01168  0.95633  0.50736  1.0000
  H   H587      1.0  0.98244  0.84878  0.58329  1.0000
  H   H588      1.0  0.99263  0.91653  0.66493  1.0000
  H   H589      1.0  0.28818  0.71117  0.52790  1.0000
  H   H590      1.0  0.12835  0.55917  0.50142  1.0000
  C   C345      1.0  0.05491  0.94731  0.69727  1.0000
  H   H591      1.0  0.03891  0.97565  0.67295  1.0000
  H   H592      1.0  0.09831  0.53240  0.59095  1.0000
  C   C346      1.0  0.06867  0.59426  0.53792  1.0000
  H   H593      1.0  0.05943  0.93535  0.67804  1.0000
  H   H594      1.0  0.06980  0.97626  0.63028  1.0000
  H   H595      1.0  0.29809  0.63666  0.59783  1.0000
  C   C347      1.0  0.10166  0.52107  0.57065  1.0000
  H   H596      1.0  0.25128  0.68541  0.60624  1.0000
  H   H597      1.0  0.26826  0.74495  0.59298  1.0000
  H   H598      1.0  0.12126  0.76110  0.50935  1.0000
  H   H599      1.0  0.02865  0.89271  0.52901  1.0000
  H   H600      1.0  0.28389  0.79687  0.59820  1.0000
  H   H601      1.0  0.27261  0.66266  0.57976  1.0000
  C   C348      1.0  0.01655  0.90766  0.67865  1.0000
  H   H602      1.0  0.02067  0.83608  0.51257  1.0000
  H   H603      1.0  0.02450  0.88724  0.68342  1.0000
  H   H604      1.0  0.10166  0.59439  0.53899  1.0000
  H   H605      1.0  0.13341  0.54089  0.55689  1.0000
  H   H606      1.0  0.21986  0.51565  0.51257  1.0000
  H   H607      1.0  0.07071  0.78359  0.51299  1.0000
  H   H608      1.0  0.03025  0.98059  0.72289  1.0000
  H   H609      1.0  0.09335  0.58138  0.57098  1.0000
  C   C349      1.0  0.06596  0.75967  0.50676  1.0000
  S   S75       1.0  0.98090  0.80022  0.93596  1.0000
  C   C350      1.0  0.11303  0.49281  0.57688  1.0000
  H   H610      1.0  0.01380  0.72755  0.97963  1.0000
  H   H611      1.0  0.06575  0.59839  0.56037  1.0000
  H   H612      1.0  0.98039  0.82562  0.72291  1.0000
  H   H613      1.0  0.97609  0.85777  0.49165  1.0000
  C   C351      1.0  0.98640  0.97665  0.91004  1.0000
  C   C352      1.0  0.99890  0.80640  0.98497  1.0000
  H   H614      1.0  0.05734  0.58916  0.52653  1.0000
  S   S76       1.0  0.30566  0.66294  0.49234  1.0000
  H   H615      1.0  0.13089  0.72349  0.50313  1.0000
  C   C353      1.0  0.29639  0.67853  0.57096  1.0000
  H   H616      1.0  0.29353  0.75703  0.54678  1.0000
  C   C354      1.0  0.25227  0.70030  0.56164  1.0000
  H   H617      1.0  0.22005  0.69988  0.57474  1.0000
  H   H618      1.0  0.98810  0.94448  0.87437  1.0000
  H   H619      1.0  0.98070  0.84386  0.64555  1.0000
  C   C355      1.0  0.04795  0.97976  0.68960  1.0000
  C   C356      1.0  0.10973  0.53031  0.52196  1.0000
  S   S77       1.0  0.20455  0.66581  0.51272  1.0000
  H   H620      1.0  0.18824  0.55044  0.50186  1.0000
  H   H621      1.0  0.05305  0.76196  0.50170  1.0000
  C   C357      1.0  0.98377  0.79846  0.97353  1.0000
  H   H622      1.0  0.98948  0.77540  0.64217  1.0000
  C   C358      1.0  0.99983  0.89547  0.67090  1.0000
  H   H623      1.0  0.00385  0.68028  0.95645  1.0000
  C   C359      1.0  0.22740  0.68662  0.59013  1.0000
  C   C360      1.0  0.30464  0.65954  0.59396  1.0000
  H   H624      1.0  0.99076  0.93719  0.52811  1.0000
  H   H625      1.0  0.15440  0.52679  0.52668  1.0000
  H   H626      1.0  0.30527  0.67363  0.61368  1.0000
  H   H627      1.0  0.00885  0.93141  0.54674  1.0000
  C   C361      1.0  0.07999  0.56601  0.53474  1.0000
  H   H628      1.0  0.08232  0.67971  0.49153  1.0000
  H   H629      1.0  0.04566  0.93158  0.70699  1.0000
  H   H630      1.0  0.14182  0.59422  0.61842  1.0000
  H   H631      1.0  0.00020  0.81657  0.78754  1.0000
  C   C362      1.0  0.20149  0.54857  0.50160  1.0000
  C   C363      1.0  0.99776  0.87391  0.53659  1.0000
  C   C364      1.0  0.27167  0.74327  0.57048  1.0000
  H   H632      1.0  0.29682  0.74652  0.58309  1.0000
  H   H633      1.0  0.15076  0.56811  0.59277  1.0000
  C   C365      1.0  0.02173  0.88872  0.50931  1.0000
  C   C366      1.0  0.20658  0.51554  0.51165  1.0000
  C   C367      1.0  0.28836  0.79385  0.57642  1.0000
  H   H634      1.0  0.02490  0.95507  0.50957  1.0000
  H   H635      1.0  0.12227  0.55320  0.60532  1.0000
  H   H636      1.0  0.02706  0.90524  0.49354  1.0000
  H   H637      1.0  0.22168  0.68863  0.61109  1.0000
  C   C368      1.0  0.26631  0.72544  0.50805  1.0000
  H   H638      1.0  0.02570  0.59516  0.98416  1.0000
  Fe  Fe35      1.0  0.17906  0.64664  0.50628  1.0000
  H   H639      1.0  0.06506  0.95041  0.71206  1.0000
  H   H640      1.0  0.00152  0.93947  0.97493  1.0000
  H   H641      1.0  0.97899  0.98227  0.86645  1.0000
  S   S78       1.0  0.15917  0.68254  0.50153  1.0000
  H   H642      1.0  0.27411  0.67992  0.52400  1.0000
  H   H643      1.0  0.98502  0.73788  0.73583  1.0000
  H   H644      1.0  0.26633  0.75116  0.51368  1.0000
  C   C369      1.0  0.15281  0.50494  0.51483  1.0000
  H   H645      1.0  0.22753  0.66097  0.58413  1.0000
  H   H646      1.0  0.07418  0.61640  0.52915  1.0000
  C   C370      1.0  0.27526  0.70545  0.53029  1.0000
  H   H647      1.0  0.12773  0.57921  0.54545  1.0000
  C   C371      1.0  0.98372  0.97645  0.98154  1.0000
  S   S79       1.0  0.97844  0.76060  0.79158  1.0000
  C   C372      1.0  0.09621  0.57309  0.54938  1.0000
  H   H648      1.0  0.02184  0.92104  0.66070  1.0000
  Fe  Fe36      1.0  0.29677  0.61737  0.51193  1.0000
  H   H649      1.0  0.10046  0.63386  0.49801  1.0000
  H   H650      1.0  0.28062  0.80737  0.56185  1.0000
  H   H651      1.0  0.24498  0.71692  0.54893  1.0000
  H   H652      1.0  0.25032  0.67619  0.55231  1.0000
  C   C373      1.0  0.00595  0.77302  0.50981  1.0000
  H   H653      1.0  0.24377  0.72488  0.59962  1.0000
  N   N22       1.0  0.26985  0.70925  0.56032  1.0000
  H   H654      1.0  0.98919  0.89627  0.71168  1.0000
  H   H655      1.0  0.00845  0.81388  0.97100  1.0000
  H   H656      1.0  0.06702  0.74313  0.52481  1.0000
  H   H657      1.0  0.98236  0.90389  0.56277  1.0000
  C   C374      1.0  0.11559  0.55258  0.49804  1.0000
  C   C375      1.0  0.00674  0.98981  0.51673  1.0000
  C   C376      1.0  0.97995  0.96316  0.88248  1.0000
  H   H658      1.0  0.98268  0.70216  0.92753  1.0000
  H   H659      1.0  0.20184  0.51244  0.53322  1.0000
  C   C377      1.0  0.99498  0.69567  0.96714  1.0000
  H   H660      1.0  0.09836  0.51826  0.51552  1.0000
  H   H661      1.0  0.20647  0.56725  0.51577  1.0000
  C   C378      1.0  0.97649  0.78086  0.64157  1.0000
  H   H662      1.0  0.10855  0.57477  0.49689  1.0000
  H   H663      1.0  0.09520  0.73586  0.50827  1.0000
  H   H664      1.0  0.11864  0.51084  0.52283  1.0000
  H   H665      1.0  0.08177  0.56183  0.51198  1.0000
  C   C379      1.0  0.23544  0.65195  0.49666  1.0000
  H   H666      1.0  0.29646  0.66343  0.55183  1.0000
  H   H667      1.0  0.01247  0.98537  0.68735  1.0000
  H   H668      1.0  0.30069  0.80405  0.57515  1.0000
  C   C380      1.0  0.98131  0.83357  0.66701  1.0000
  H   H669      1.0  0.11031  0.69208  0.49578  1.0000
  H   H670      1.0  0.30375  0.70012  0.56661  1.0000
  C   C381      1.0  0.98770  0.71705  0.94476  1.0000
  H   H671      1.0  0.98690  0.95651  0.92508  1.0000
  N   N23       1.0  0.97679  0.85838  0.68879  1.0000
  H   H672      1.0  0.97485  0.96375  0.96814  1.0000
  C   C382      1.0  0.02990  0.61993  0.98873  1.0000
  H   H673      1.0  0.48385  0.18743  0.45703  1.0000
  C   C383      1.0  0.44821  0.02596  0.06530  1.0000
  Fe  Fe37      1.0  0.54456  0.13741  0.40560  1.0000
  S   S80       1.0  0.51815  0.14909  0.40413  1.0000
  S   S81       1.0  0.55975  0.17833  0.42577  1.0000
  Fe  Fe38      1.0  0.53774  0.07055  0.38069  1.0000
  S   S82       1.0  0.51132  0.07864  0.37792  1.0000
  S   S83       1.0  0.54550  0.02343  0.36114  1.0000
  Fe  Fe39      1.0  0.51769  0.12696  0.36091  1.0000
  S   S84       1.0  0.50195  0.15058  0.32760  1.0000
  Fe  Fe40      1.0  0.51373  0.09990  0.42096  1.0000
  S   S85       1.0  0.49440  0.08332  0.45152  1.0000
  S   S86       1.0  0.54425  0.11831  0.36104  1.0000
  S   S87       1.0  0.53992  0.08864  0.42510  1.0000
  Fe  Fe41      1.0  0.43415  0.16262  0.15451  1.0000
  S   S88       1.0  0.45964  0.17383  0.14014  1.0000
  S   S89       1.0  0.41813  0.20408  0.17052  1.0000
  Fe  Fe42      1.0  0.43987  0.09032  0.14743  1.0000
  S   S90       1.0  0.46526  0.09695  0.13343  1.0000
  S   S91       1.0  0.42744  0.04174  0.15000  1.0000
  Fe  Fe43      1.0  0.46687  0.13319  0.16865  1.0000
  S   S92       1.0  0.48933  0.12927  0.19616  1.0000
  Fe  Fe44      1.0  0.45622  0.13652  0.10584  1.0000
  S   S93       1.0  0.45970  0.13781  0.05719  1.0000
  S   S94       1.0  0.44186  0.12383  0.18431  1.0000
  S   S95       1.0  0.43031  0.12810  0.11869  1.0000
  Fe  Fe45      1.0  0.32936  0.29142  0.20675  1.0000
  S   S96       1.0  0.33498  0.31834  0.24663  1.0000
  S   S97       1.0  0.34648  0.25964  0.18018  1.0000
  Fe  Fe46      1.0  0.31671  0.35473  0.23304  1.0000
  H   H674      1.0  0.33706  0.48024  0.42219  1.0000
  C   C384      1.0  0.45434  0.00450  0.14280  1.0000
  C   C385      1.0  0.43452  0.05567  0.22959  1.0000
  C   C386      1.0  0.54084  0.02522  0.48387  1.0000
  H   H675      1.0  0.49159  0.02626  0.01675  1.0000
  Fe  Fe47      1.0  0.32343  0.32492  0.45945  1.0000
  S   S98       1.0  0.32793  0.34546  0.41624  1.0000
  H   H676      1.0  0.59602  0.48152  0.45289  1.0000
  C   C387      1.0  0.32042  0.32064  0.33523  1.0000
  C   C388      1.0  0.32314  0.33817  0.35995  1.0000
  C   C389      1.0  0.32449  0.32252  0.38580  1.0000
  C   C390      1.0  0.32322  0.28918  0.38680  1.0000
  H   H677      1.0  0.59267  0.15432  0.31997  1.0000
  C   C391      1.0  0.47978  0.02365  0.00656  1.0000
  H   H678      1.0  0.32422  0.36395  0.35903  1.0000
  N   N24       1.0  0.46545  0.02637  0.05538  1.0000
  H   H679      1.0  0.45467  0.02926  0.01404  1.0000
  C   C392      1.0  0.31890  0.44394  0.22767  1.0000
  H   H680      1.0  0.45767  0.02545  0.25803  1.0000
  H   H681      1.0  0.48128  0.00371  0.27196  1.0000
  H   H682      1.0  0.33140  0.42251  0.42721  1.0000
  H   H683      1.0  0.31756  0.47199  0.26553  1.0000
  C   C393      1.0  0.39787  0.21735  0.17533  1.0000
  C   C394      1.0  0.38462  0.20101  0.16408  1.0000
  C   C395      1.0  0.36907  0.21404  0.16620  1.0000
  C   C396      1.0  0.36633  0.24330  0.18012  1.0000
  C   C397      1.0  0.37953  0.25925  0.19197  1.0000
  C   C398      1.0  0.39512  0.24646  0.18947  1.0000
  H   H684      1.0  0.38637  0.17857  0.15330  1.0000
  H   H685      1.0  0.35904  0.20142  0.15680  1.0000
  H   H686      1.0  0.37783  0.28208  0.20217  1.0000
  H   H687      1.0  0.40520  0.25962  0.19810  1.0000
  H   H688      1.0  0.50018  0.00740  0.18333  1.0000
  H   H689      1.0  0.46123  0.02652  0.14342  1.0000
  H   H690      1.0  0.39580  0.13111  0.07465  1.0000
  C   C399      1.0  0.49816  0.14164  0.29155  1.0000
  C   C400      1.0  0.48360  0.15124  0.27955  1.0000
  C   C401      1.0  0.48048  0.14685  0.25067  1.0000
  C   C402      1.0  0.49212  0.13363  0.23313  1.0000
  C   C403      1.0  0.50671  0.12407  0.24511  1.0000
  C   C404      1.0  0.50964  0.12761  0.27414  1.0000
  H   H691      1.0  0.47468  0.16245  0.29266  1.0000
  H   H692      1.0  0.46926  0.15457  0.24187  1.0000
  H   H693      1.0  0.51588  0.11406  0.23182  1.0000
  H   H694      1.0  0.52098  0.12044  0.28285  1.0000
  H   H695      1.0  0.41461  0.28437  0.99730  1.0000
  C   C405      1.0  0.33802  0.17241  0.33661  1.0000
  H   H696      1.0  0.46984  0.21210  0.43861  1.0000
  H   H697      1.0  0.52181  0.20676  0.30962  1.0000
  C   C406      1.0  0.50450  0.03869  0.29548  1.0000
  C   C407      1.0  0.47098  0.19061  0.45205  1.0000
  C   C408      1.0  0.60992  0.22690  0.43691  1.0000
  C   C409      1.0  0.59619  0.23942  0.44960  1.0000
  C   C410      1.0  0.58107  0.22421  0.44601  1.0000
  C   C411      1.0  0.57932  0.19620  0.42970  1.0000
  C   C412      1.0  0.59305  0.18361  0.41710  1.0000
  C   C413      1.0  0.60814  0.19898  0.42049  1.0000
  C   C414      1.0  0.33004  0.43426  0.40650  1.0000
  H   H698      1.0  0.57061  0.23437  0.45585  1.0000
  H   H699      1.0  0.59206  0.16201  0.40473  1.0000
  H   H700      1.0  0.45623  0.25076  0.06474  1.0000
  H   H701      1.0  0.52161  0.04398  0.16892  1.0000
  H   H702      1.0  0.53451  0.21296  0.24935  1.0000
  H   H703      1.0  0.52098  0.24039  0.26661  1.0000
  C   C415      1.0  0.32057  0.27162  0.36204  1.0000
  C   C416      1.0  0.47355  0.13702  0.02793  1.0000
  C   C417      1.0  0.49023  0.13868  0.03115  1.0000
  C   C418      1.0  0.50228  0.02886  0.19664  1.0000
  H   H704      1.0  0.49525  0.14072  0.05193  1.0000
  N   N25       1.0  0.47785  0.02058  0.22963  1.0000
  C   C419      1.0  0.46281  0.03720  0.23908  1.0000
  H   H705      1.0  0.32325  0.16283  0.20887  1.0000
  C   C420      1.0  0.32440  0.48696  0.38221  1.0000
  H   H706      1.0  0.46472  0.21166  0.06899  1.0000
  H   H707      1.0  0.33945  0.16228  0.25168  1.0000
  C   C421      1.0  0.53183  0.20543  0.29437  1.0000
  H   H708      1.0  0.33593  0.14836  0.32730  1.0000
  H   H709      1.0  0.54904  0.20507  0.37299  1.0000
  H   H710      1.0  0.57009  0.24076  0.36060  1.0000
  C   C422      1.0  0.32004  0.44528  0.19843  1.0000
  C   C423      1.0  0.56379  0.18803  0.32423  1.0000
  H   H711      1.0  0.51024  0.06086  0.30381  1.0000
  H   H712      1.0  0.32723  0.17899  0.34893  1.0000
  H   H713      1.0  0.55461  0.22828  0.28568  1.0000
  H   H714      1.0  0.40829  0.24307  0.99523  1.0000
  H   H715      1.0  0.59715  0.26120  0.46177  1.0000
  H   H716      1.0  0.49460  0.09973  0.09005  1.0000
  H   H717      1.0  0.49401  0.06705  0.04636  1.0000
  H   H718      1.0  0.51084  0.20985  0.37299  1.0000
  H   H719      1.0  0.54139  0.25231  0.30512  1.0000
  S   S99       1.0  0.62943  0.24525  0.44011  1.0000
  H   H720      1.0  0.52427  0.21995  0.40168  1.0000
  H   H721      1.0  0.41594  0.07834  0.07126  1.0000
  H   H722      1.0  0.31999  0.42225  0.39529  1.0000
  C   C424      1.0  0.48899  0.10478  0.48196  1.0000
  H   H723      1.0  0.51412  0.07518  0.19131  1.0000
  H   H724      1.0  0.32442  0.27693  0.40660  1.0000
  C   C425      1.0  0.46749  0.13479  0.00037  1.0000
  H   H725      1.0  0.49570  0.02995  0.31126  1.0000
  C   C426      1.0  0.46590  0.03659  0.02498  1.0000
  H   H726      1.0  0.46677  0.16911  0.44036  1.0000
  H   H727      1.0  0.44729  0.01573  0.08678  1.0000
  C   C427      1.0  0.58499  0.14815  0.33826  1.0000
  C   C428      1.0  0.53143  0.23934  0.36115  1.0000
  H   H728      1.0  0.53553  0.18013  0.29269  1.0000
  H   H729      1.0  0.33008  0.19756  0.30035  1.0000
  H   H730      1.0  0.41636  0.04187  0.05107  1.0000
  H   H731      1.0  0.51062  0.02244  0.21368  1.0000
  H   H732      1.0  0.55849  0.26766  0.34103  1.0000
  H   H733      1.0  0.34127  0.43087  0.39439  1.0000
  H   H734      1.0  0.42403  0.14144  0.46584  1.0000
  C   C429      1.0  0.32673  0.46983  0.41070  1.0000
  C   C430      1.0  0.57538  0.17719  0.34765  1.0000
  C   C431      1.0  0.31836  0.47275  0.24292  1.0000
  H   H735      1.0  0.51491  0.19954  0.26032  1.0000
  H   H736      1.0  0.43757  0.07995  0.23758  1.0000
  H   H737      1.0  0.50536  0.05601  0.25334  1.0000
  H   H738      1.0  0.48813  0.06589  0.21671  1.0000
  H   H739      1.0  0.48930  0.01709  0.37052  1.0000
  C   C432      1.0  0.40717  0.19518  0.46572  1.0000
  C   C433      1.0  0.54264  0.21127  0.35340  1.0000
  H   H740      1.0  0.41877  0.04073  0.08877  1.0000
  H   H741      1.0  0.42952  0.04094  0.24694  1.0000
  C   C434      1.0  0.48833  0.01544  0.25494  1.0000
  H   H742      1.0  0.51334  0.14024  0.01041  1.0000
  H   H743      1.0  0.34353  0.46644  0.46855  1.0000
  H   H744      1.0  0.39717  0.23898  0.44859  1.0000
  H   H745      1.0  0.43985  0.18700  0.45519  1.0000
  C   C435      1.0  0.49094  0.99301  0.47500  1.0000
  C   C436      1.0  0.31914  0.28731  0.33623  1.0000
  C   C437      1.0  0.59018  0.27954  0.33135  1.0000
  H   H746      1.0  0.51099  0.24952  0.38773  1.0000
  H   H747      1.0  0.58733  0.23178  0.31595  1.0000
  N   N26       1.0  0.35993  0.21170  0.27219  1.0000
  C   C438      1.0  0.35604  0.18928  0.29611  1.0000
  C   C439      1.0  0.37530  0.20188  0.25774  1.0000
  C   C440      1.0  0.36247  0.24470  0.28460  1.0000
  C   C441      1.0  0.34635  0.21355  0.25149  1.0000
  C   C442      1.0  0.34157  0.18197  0.23660  1.0000
  C   C443      1.0  0.34093  0.19727  0.31368  1.0000
  C   C444      1.0  0.36964  0.27057  0.26469  1.0000
  C   C445      1.0  0.37898  0.16558  0.25615  1.0000
  C   C446      1.0  0.39302  0.15912  0.23636  1.0000
  H   H748      1.0  0.48718  0.06472  0.27199  1.0000
  C   C447      1.0  0.37206  0.30231  0.28018  1.0000
  H   H749      1.0  0.36639  0.18855  0.31080  1.0000
  H   H750      1.0  0.35438  0.16435  0.28869  1.0000
  H   H751      1.0  0.37576  0.21175  0.23606  1.0000
  H   H752      1.0  0.38588  0.21243  0.26876  1.0000
  H   H753      1.0  0.37048  0.24345  0.30320  1.0000
  H   H754      1.0  0.35092  0.25452  0.29233  1.0000
  H   H755      1.0  0.33552  0.22392  0.26148  1.0000
  H   H756      1.0  0.34941  0.23057  0.23446  1.0000
  H   H757      1.0  0.59528  0.27219  0.35181  1.0000
  H   H758      1.0  0.35110  0.17518  0.22154  1.0000
  H   H759      1.0  0.34227  0.22078  0.32428  1.0000
  C   C448      1.0  0.50053  0.13853  0.00739  1.0000
  H   H760      1.0  0.36157  0.27481  0.24676  1.0000
  H   H761      1.0  0.38147  0.26363  0.25620  1.0000
  H   H762      1.0  0.38234  0.15677  0.27726  1.0000
  H   H763      1.0  0.36863  0.15113  0.24884  1.0000
  H   H764      1.0  0.38973  0.16511  0.21450  1.0000
  H   H765      1.0  0.40375  0.17348  0.24244  1.0000
  H   H766      1.0  0.39613  0.13339  0.23706  1.0000
  C   C449      1.0  0.49616  0.04599  0.26778  1.0000
  C   C450      1.0  0.32618  0.18564  0.21976  1.0000
  C   C451      1.0  0.51062  0.05408  0.17844  1.0000
  H   H767      1.0  0.38120  0.29985  0.29687  1.0000
  H   H768      1.0  0.37623  0.32094  0.26519  1.0000
  H   H769      1.0  0.36066  0.31035  0.28983  1.0000
  H   H770      1.0  0.59283  0.14026  0.35561  1.0000
  C   C452      1.0  0.54599  0.22751  0.30351  1.0000
  H   H771      1.0  0.38618  0.20300  0.43996  1.0000
  H   H772      1.0  0.39239  0.13662  0.11184  1.0000
  H   H773      1.0  0.58320  0.30174  0.33432  1.0000
  H   H774      1.0  0.31464  0.47373  0.37116  1.0000
  C   C453      1.0  0.51862  0.22888  0.38220  1.0000
  H   H775      1.0  0.32214  0.47596  0.16220  1.0000
  H   H776      1.0  0.33531  0.48293  0.36925  1.0000
  H   H777      1.0  0.63832  0.17358  0.45059  1.0000
  C   C454      1.0  0.44929  0.03985  0.21696  1.0000
  C   C455      1.0  0.52522  0.21533  0.26591  1.0000
  C   C456      1.0  0.39296  0.21550  0.45680  1.0000
  H   H778      1.0  0.53840  0.25913  0.37100  1.0000
  C   C457      1.0  0.47456  0.04992  0.07350  1.0000
  H   H779      1.0  0.58451  0.13938  0.47085  1.0000
  H   H780      1.0  0.32767  0.20461  0.20368  1.0000
  S   S100      1.0  0.31732  0.27499  0.47299  1.0000
  C   C458      1.0  0.43770  0.00523  0.14578  1.0000
  C   C459      1.0  0.43967  0.05871  0.06593  1.0000
  S   S101      1.0  0.31571  0.26469  0.30562  1.0000
  C   C460      1.0  0.50059  0.07619  0.08884  1.0000
  H   H781      1.0  0.52517  0.24884  0.34258  1.0000
  C   C461      1.0  0.46143  0.19449  0.47920  1.0000
  C   C462      1.0  0.42157  0.05451  0.06945  1.0000
  H   H782      1.0  0.42517  0.05799  0.21323  1.0000
  H   H783      1.0  0.32057  0.42333  0.18645  1.0000
  H   H784      1.0  0.46944  0.07419  0.07173  1.0000
  H   H785      1.0  0.47334  0.04296  0.09595  1.0000
  H   H786      1.0  0.44312  0.22695  0.46579  1.0000
  H   H787      1.0  0.57081  0.19048  0.30447  1.0000
  H   H788      1.0  0.50258  0.06205  0.16141  1.0000
  H   H789      1.0  0.46616  0.06324  0.02361  1.0000
  H   H790      1.0  0.55548  0.16754  0.32034  1.0000
  C   C463      1.0  0.56535  0.24513  0.33913  1.0000
  H   H791      1.0  0.57521  0.26085  0.29853  1.0000
  C   C464      1.0  0.49256  0.05480  0.06685  1.0000
  H   H792      1.0  0.44193  0.07248  0.04644  1.0000
  H   H793      1.0  0.44397  0.07308  0.08404  1.0000
  H   H794      1.0  0.53517  0.18972  0.34852  1.0000
  H   H795      1.0  0.49907  0.03190  0.06648  1.0000
  H   H796      1.0  0.60026  0.28479  0.31675  1.0000
  H   H797      1.0  0.51335  0.08038  0.08310  1.0000
  S   S102      1.0  0.31845  0.40729  0.24645  1.0000
  C   C465      1.0  0.44359  0.20178  0.47337  1.0000
  H   H798      1.0  0.41485  0.19229  0.44697  1.0000
  N   N27       1.0  0.55445  0.21800  0.33010  1.0000
  H   H799      1.0  0.37569  0.13456  0.08808  1.0000
  H   H800      1.0  0.56863  0.17037  0.36675  1.0000
  H   H801      1.0  0.58413  0.19618  0.35345  1.0000
  C   C466      1.0  0.38823  0.14323  0.09055  1.0000
  C   C467      1.0  0.57961  0.25282  0.31924  1.0000
  H   H802      1.0  0.57688  0.12792  0.33255  1.0000
  N   N28       1.0  0.40921  0.22731  0.08324  1.0000
  C   C468      1.0  0.42640  0.23529  0.09046  1.0000
  C   C469      1.0  0.39834  0.24689  0.10170  1.0000
  C   C470      1.0  0.40633  0.19253  0.09057  1.0000
  C   C471      1.0  0.40546  0.23215  0.05259  1.0000
  C   C472      1.0  0.41458  0.25962  0.03722  1.0000
  C   C473      1.0  0.43915  0.21336  0.07684  1.0000
  C   C474      1.0  0.38897  0.17951  0.08672  1.0000
  C   C475      1.0  0.39904  0.28362  0.09816  1.0000
  C   C476      1.0  0.38918  0.30006  0.12099  1.0000
  H   H803      1.0  0.31592  0.47176  0.42413  1.0000
  H   H804      1.0  0.34840  0.17158  0.35108  1.0000
  H   H805      1.0  0.42819  0.23391  0.11360  1.0000
  H   H806      1.0  0.42948  0.26038  0.08506  1.0000
  H   H807      1.0  0.38558  0.24032  0.09826  1.0000
  H   H808      1.0  0.40087  0.24161  0.12404  1.0000
  H   H809      1.0  0.40980  0.18803  0.11274  1.0000
  H   H810      1.0  0.41406  0.17691  0.07751  1.0000
  H   H811      1.0  0.40807  0.21006  0.04034  1.0000
  H   H812      1.0  0.39237  0.23600  0.04990  1.0000
  H   H813      1.0  0.42738  0.25354  0.03441  1.0000
  H   H814      1.0  0.41417  0.28248  0.04884  1.0000
  H   H815      1.0  0.43972  0.19052  0.08856  1.0000
  H   H816      1.0  0.43621  0.20743  0.05477  1.0000
  H   H817      1.0  0.38433  0.18506  0.06555  1.0000
  H   H818      1.0  0.38077  0.18984  0.10258  1.0000
  H   H819      1.0  0.41142  0.29325  0.09962  1.0000
  H   H820      1.0  0.39377  0.29032  0.07771  1.0000
  H   H821      1.0  0.38925  0.32631  0.11748  1.0000
  H   H822      1.0  0.37655  0.29132  0.12076  1.0000
  H   H823      1.0  0.39436  0.29541  0.14199  1.0000
  H   H824      1.0  0.54892  0.02362  0.46540  1.0000
  C   C477      1.0  0.45584  0.22869  0.07762  1.0000
  H   H825      1.0  0.51445  0.03081  0.45331  1.0000
  H   H826      1.0  0.61856  0.18904  0.41036  1.0000
  H   H827      1.0  0.45326  0.05458  0.19889  1.0000
  H   H828      1.0  0.51460  0.00991  0.39724  1.0000
  H   H829      1.0  0.46565  0.06215  0.24578  1.0000
  C   C478      1.0  0.48615  0.04142  0.20818  1.0000
  H   H830      1.0  0.44438  0.13508  0.47558  1.0000
  H   H831      1.0  0.51394  0.02051  0.29243  1.0000
  H   H832      1.0  0.48977  0.01949  0.47673  1.0000
  C   C479      1.0  0.40763  0.26522  0.00808  1.0000
  S   S103      1.0  0.31248  0.33014  0.19149  1.0000
  H   H833      1.0  0.31938  0.33292  0.31538  1.0000
  H   H834      1.0  0.50010  0.06464  0.10975  1.0000
  H   H835      1.0  0.45928  0.23461  0.09952  1.0000
  H   H836      1.0  0.45468  0.13353  0.99730  1.0000
  C   C480      1.0  0.43195  0.13655  0.48376  1.0000
  H   H837      1.0  0.38466  0.21964  0.47462  1.0000
  H   H838      1.0  0.31958  0.24583  0.36291  1.0000
  H   H839      1.0  0.47838  0.04481  0.18958  1.0000
  H   H840      1.0  0.39496  0.27284  0.00964  1.0000
  H   H841      1.0  0.40234  0.17142  0.47213  1.0000
  H   H842      1.0  0.37790  0.28706  0.48834  1.0000
  C   C481      1.0  0.32089  0.47517  0.18475  1.0000
  H   H843      1.0  0.55559  0.00375  0.41677  1.0000
  H   H844      1.0  0.61567  0.47522  0.43825  1.0000
  H   H845      1.0  0.31603  0.19170  0.23381  1.0000
  H   H846      1.0  0.49064  0.01932  0.42522  1.0000
  H   H847      1.0  0.53584  0.04971  0.48501  1.0000
  Fe  Fe48      1.0  0.31393  0.29197  0.26494  1.0000
  H   H848      1.0  0.42866  0.08530  0.47846  1.0000
  H   H849      1.0  0.44541  0.01609  0.20896  1.0000
  H   H850      1.0  0.49811  0.99841  0.25008  1.0000
  H   H851      1.0  0.41753  0.23687  0.48644  1.0000
  H   H852      1.0  0.50614  0.14307  0.47632  1.0000
  C   C482      1.0  0.51744  0.00503  0.45491  1.0000
  H   H853      1.0  0.44082  0.00998  0.05172  1.0000
  H   H854      1.0  0.52593  0.00044  0.43754  1.0000
  H   H855      1.0  0.60044  0.18555  0.48679  1.0000
  C   C483      1.0  0.52733  0.00029  0.48189  1.0000
  C   C484      1.0  0.47211  0.99343  0.06022  1.0000
  C   C485      1.0  0.33627  0.46582  0.48730  1.0000
  H   H856      1.0  0.39891  0.29373  0.48151  1.0000
  H   H857      1.0  0.46698  0.99363  0.45646  1.0000
  H   H858      1.0  0.47784  0.99786  0.00205  1.0000
  C   C486      1.0  0.49553  0.99378  0.37094  1.0000
  C   C487      1.0  0.49475  0.99404  0.42432  1.0000
  H   H859      1.0  0.61269  0.15198  0.47989  1.0000
  S   S104      1.0  0.30883  0.26347  0.22603  1.0000
  H   H860      1.0  0.50369  0.99256  0.35254  1.0000
  H   H861      1.0  0.46802  0.99168  0.19600  1.0000
  C   C488      1.0  0.49659  0.13355  0.48934  1.0000
  H   H862      1.0  0.62575  0.20496  0.48839  1.0000
  Fe  Fe49      1.0  0.53981  0.13858  0.85546  1.0000
  S   S105      1.0  0.51927  0.16965  0.86939  1.0000
  S   S106      1.0  0.56535  0.15473  0.84011  1.0000
  Fe  Fe50      1.0  0.51823  0.07738  0.85961  1.0000
  S   S107      1.0  0.49657  0.10552  0.87247  1.0000
  S   S108      1.0  0.51082  0.02493  0.85522  1.0000
  Fe  Fe51      1.0  0.50433  0.14018  0.83886  1.0000
  S   S109      1.0  0.48741  0.16307  0.80688  1.0000
  Fe  Fe52      1.0  0.51302  0.13176  0.90220  1.0000
  S   S110      1.0  0.50830  0.13693  0.95044  1.0000
  S   S111      1.0  0.52480  0.11046  0.82414  1.0000
  S   S112      1.0  0.53467  0.10231  0.89011  1.0000
  H   H863      1.0  0.46571  0.18799  0.76573  1.0000
  H   H864      1.0  0.47572  0.03744  0.84863  1.0000
  H   H865      1.0  0.39271  0.26783  0.50989  1.0000
  S   S113      1.0  0.61597  0.26418  0.79794  1.0000
  C   C489      1.0  0.49322  0.02513  0.68804  1.0000
  Fe  Fe53      1.0  0.44742  0.12034  0.64993  1.0000
  S   S114      1.0  0.42199  0.10443  0.63945  1.0000
  S   S115      1.0  0.46188  0.10707  0.68960  1.0000
  Fe  Fe54      1.0  0.45381  0.13918  0.58821  1.0000
  S   S116      1.0  0.42930  0.12461  0.57374  1.0000
  S   S117      1.0  0.47233  0.16121  0.55905  1.0000
  Fe  Fe55      1.0  0.42053  0.14936  0.61253  1.0000
  S   S118      1.0  0.39994  0.18594  0.61217  1.0000
  Fe  Fe56      1.0  0.43257  0.08119  0.60100  1.0000
  S   S119      1.0  0.42996  0.03225  0.58009  1.0000
  S   S120      1.0  0.44523  0.16655  0.62590  1.0000
  S   S121      1.0  0.45779  0.09451  0.61261  1.0000
  Fe  Fe57      1.0  0.33368  0.28395  0.51016  1.0000
  N   N29       1.0  0.62323  0.18814  0.53119  1.0000
  S   S122      1.0  0.35315  0.24594  0.51914  1.0000
  H   H866      1.0  0.50566  0.03203  0.75691  1.0000
  H   H867      1.0  0.58985  0.25888  0.55525  1.0000
  Fe  Fe58      1.0  0.64007  0.28204  0.77758  1.0000
  C   C490      1.0  0.62708  0.16999  0.58279  1.0000
  H   H868      1.0  0.63318  0.14887  0.62281  1.0000
  H   H869      1.0  0.64120  0.48254  0.70989  1.0000
  H   H870      1.0  0.31226  0.46303  0.55671  1.0000
  H   H871      1.0  0.59909  0.41724  0.68156  1.0000
  H   H872      1.0  0.62535  0.23522  0.54980  1.0000
  C   C491      1.0  0.33696  0.32074  0.60297  1.0000
  S   S123      1.0  0.31334  0.30306  0.53673  1.0000
  C   C492      1.0  0.47917  0.13829  0.53038  1.0000
  C   C493      1.0  0.47177  0.10924  0.52325  1.0000
  N   N30       1.0  0.46425  0.03064  0.80810  1.0000
  H   H873      1.0  0.56825  0.16644  0.74179  1.0000
  H   H874      1.0  0.46217  0.09979  0.53619  1.0000
  H   H875      1.0  0.62016  0.45388  0.70039  1.0000
  H   H876      1.0  0.55274  0.13759  0.73267  1.0000
  C   C494      1.0  0.38668  0.20141  0.58606  1.0000
  C   C495      1.0  0.37542  0.22474  0.59379  1.0000
  C   C496      1.0  0.36477  0.23784  0.57398  1.0000
  C   C497      1.0  0.36537  0.22836  0.54583  1.0000
  C   C498      1.0  0.37646  0.20466  0.53821  1.0000
  C   C499      1.0  0.38700  0.19128  0.55807  1.0000
  H   H877      1.0  0.37482  0.23246  0.61541  1.0000
  H   H878      1.0  0.35604  0.25519  0.58052  1.0000
  H   H879      1.0  0.37673  0.19619  0.51684  1.0000
  H   H880      1.0  0.39524  0.17285  0.55180  1.0000
  C   C500      1.0  0.43732  0.23281  0.57357  1.0000
  S   S124      1.0  0.34110  0.33291  0.49424  1.0000
  H   H881      1.0  0.60425  0.36584  0.94420  1.0000
  H   H882      1.0  0.63921  0.26247  0.84399  1.0000
  H   H883      1.0  0.43699  0.99289  0.66136  1.0000
  C   C501      1.0  0.43086  0.16257  0.50696  1.0000
  C   C502      1.0  0.36670  0.42966  0.55629  1.0000
  H   H884      1.0  0.44159  0.05512  0.81108  1.0000
  H   H885      1.0  0.48912  0.99628  0.60293  1.0000
  H   H886      1.0  0.60864  0.33501  0.80235  1.0000
  H   H887      1.0  0.62507  0.42684  0.65572  1.0000
  C   C503      1.0  0.62675  0.32489  0.84803  1.0000
  H   H888      1.0  0.32431  0.31929  0.59595  1.0000
  H   H889      1.0  0.59411  0.22138  0.51698  1.0000
  C   C504      1.0  0.49136  0.00859  0.78944  1.0000
  H   H890      1.0  0.48378  0.06680  0.98188  1.0000
  C   C505      1.0  0.60233  0.37376  0.92227  1.0000
  C   C506      1.0  0.57933  0.18583  0.82910  1.0000
  C   C507      1.0  0.59443  0.17725  0.81819  1.0000
  C   C508      1.0  0.60567  0.20058  0.80856  1.0000
  C   C509      1.0  0.60215  0.23327  0.80977  1.0000
  C   C510      1.0  0.58709  0.24191  0.82086  1.0000
  C   C511      1.0  0.57583  0.21856  0.83040  1.0000
  H   H891      1.0  0.59750  0.15222  0.81717  1.0000
  H   H892      1.0  0.61712  0.19318  0.80033  1.0000
  H   H893      1.0  0.58412  0.26696  0.82221  1.0000
  H   H894      1.0  0.56454  0.22599  0.83920  1.0000
  H   H895      1.0  0.61416  0.33313  0.90535  1.0000
  H   H896      1.0  0.54548  0.01208  0.85727  1.0000
  C   C512      1.0  0.62242  0.42784  0.70019  1.0000
  C   C513      1.0  0.48087  0.14772  0.77383  1.0000
  C   C514      1.0  0.48617  0.11845  0.76327  1.0000
  C   C515      1.0  0.48021  0.10660  0.73755  1.0000
  C   C516      1.0  0.46911  0.12399  0.72165  1.0000
  C   C517      1.0  0.46408  0.15361  0.73191  1.0000
  C   C518      1.0  0.46988  0.16527  0.75786  1.0000
  H   H897      1.0  0.49477  0.10487  0.77505  1.0000
  H   H898      1.0  0.48435  0.08389  0.72980  1.0000
  H   H899      1.0  0.45557  0.16735  0.72004  1.0000
  H   H900      1.0  0.51591  0.03657  0.93475  1.0000
  H   H901      1.0  0.46010  0.08577  0.84425  1.0000
  H   H902      1.0  0.49394  0.99546  0.80886  1.0000
  H   H903      1.0  0.45371  0.13986  0.82755  1.0000
  H   H904      1.0  0.37750  0.43720  0.54425  1.0000
  H   H905      1.0  0.38688  0.34019  0.50555  1.0000
  C   C519      1.0  0.50744  0.01942  0.77707  1.0000
  S   S125      1.0  0.63684  0.33061  0.75759  1.0000
  C   C520      1.0  0.62114  0.37505  0.82371  1.0000
  C   C521      1.0  0.63701  0.46180  0.76684  1.0000
  H   H906      1.0  0.64101  0.12772  0.59290  1.0000
  H   H907      1.0  0.59020  0.36563  0.91563  1.0000
  H   H908      1.0  0.47231  0.09730  0.81498  1.0000
  H   H909      1.0  0.59928  0.41814  0.71935  1.0000
  H   H910      1.0  0.57899  0.15017  0.50604  1.0000
  H   H911      1.0  0.41940  0.15869  0.51857  1.0000
  H   H912      1.0  0.63640  0.31334  0.89022  1.0000
  H   H913      1.0  0.63701  0.41013  0.76878  1.0000
  H   H914      1.0  0.47938  0.05083  0.77549  1.0000
  C   C522      1.0  0.46553  0.02371  0.83924  1.0000
  C   C523      1.0  0.63446  0.17562  0.55331  1.0000
  H   H915      1.0  0.44124  0.25764  0.56866  1.0000
  H   H916      1.0  0.44290  0.02594  0.75840  1.0000
  H   H917      1.0  0.35651  0.42654  0.54164  1.0000
  H   H918      1.0  0.46426  0.00469  0.50806  1.0000
  C   C524      1.0  0.33236  0.43609  0.49956  1.0000
  H   H919      1.0  0.60029  0.16539  0.53980  1.0000
  H   H920      1.0  0.59048  0.27980  0.52227  1.0000
  H   H921      1.0  0.44796  0.21828  0.57873  1.0000
  H   H922      1.0  0.42936  0.23331  0.59228  1.0000
  C   C525      1.0  0.56826  0.12327  0.76559  1.0000
  H   H923      1.0  0.42406  0.19391  0.55527  1.0000
  N   N31       1.0  0.62554  0.36076  0.85172  1.0000
  H   H924      1.0  0.62856  0.42074  0.71964  1.0000
  C   C526      1.0  0.43022  0.03513  0.68381  1.0000
  H   H925      1.0  0.45941  0.01540  0.69527  1.0000
  C   C527      1.0  0.45891  0.02014  0.67240  1.0000
  C   C528      1.0  0.48690  0.01755  0.65813  1.0000
  H   H926      1.0  0.49648  0.00358  0.64770  1.0000
  C   C529      1.0  0.38984  0.29004  0.49830  1.0000
  H   H927      1.0  0.44866  0.12438  0.79345  1.0000
  C   C530      1.0  0.60630  0.36005  0.80878  1.0000
  C   C531      1.0  0.47663  0.09262  0.49908  1.0000
  H   H928      1.0  0.45376  0.06762  0.78231  1.0000
  C   C532      1.0  0.45423  0.06022  0.80471  1.0000
  H   H929      1.0  0.48416  0.03739  0.70104  1.0000
  C   C533      1.0  0.50800  0.04703  0.68683  1.0000
  H   H930      1.0  0.60296  0.40031  0.92178  1.0000
  C   C534      1.0  0.41439  0.99369  0.61933  1.0000
  H   H931      1.0  0.62474  0.19323  0.59327  1.0000
  H   H932      1.0  0.46196  0.04593  0.66999  1.0000
  H   H933      1.0  0.48617  0.04058  0.64639  1.0000
  H   H934      1.0  0.51251  0.05159  0.70835  1.0000
  C   C535      1.0  0.44905  0.11853  0.81613  1.0000
  H   H935      1.0  0.63145  0.37328  0.80889  1.0000
  H   H936      1.0  0.51993  0.00273  0.50103  1.0000
  H   H937      1.0  0.59156  0.36732  0.77202  1.0000
  H   H938      1.0  0.63214  0.39195  0.67265  1.0000
  H   H939      1.0  0.45062  0.20663  0.52919  1.0000
  H   H940      1.0  0.63131  0.31915  0.82665  1.0000
  H   H941      1.0  0.49664  0.00276  0.69886  1.0000
  H   H942      1.0  0.60764  0.38447  0.70106  1.0000
  H   H943      1.0  0.61871  0.40103  0.82590  1.0000
  H   H944      1.0  0.61569  0.15613  0.58139  1.0000
  H   H945      1.0  0.62542  0.46292  0.75687  1.0000
  H   H946      1.0  0.41776  0.03472  0.67576  1.0000
  C   C536      1.0  0.48057  0.03761  0.79555  1.0000
  C   C537      1.0  0.49449  0.13659  0.97980  1.0000
  H   H947      1.0  0.34005  0.29766  0.61296  1.0000
  H   H948      1.0  0.51385  0.03562  0.79188  1.0000
  H   H949      1.0  0.43407  0.06048  0.68639  1.0000
  H   H950      1.0  0.62342  0.26332  0.87002  1.0000
  H   H951      1.0  0.61102  0.24465  0.50396  1.0000
  N   N32       1.0  0.47097  0.00003  0.65674  1.0000
  H   H952      1.0  0.63888  0.47471  0.65589  1.0000
  N   N33       1.0  0.37753  0.33929  0.56460  1.0000
  C   C538      1.0  0.39384  0.34281  0.57794  1.0000
  C   C539      1.0  0.37310  0.37074  0.55143  1.0000
  C   C540      1.0  0.36567  0.32964  0.58703  1.0000
  C   C541      1.0  0.37758  0.31392  0.54214  1.0000
  C   C542      1.0  0.38991  0.31880  0.51811  1.0000
  C   C543      1.0  0.40173  0.31127  0.58779  1.0000
  C   C544      1.0  0.34788  0.32738  0.57784  1.0000
  C   C545      1.0  0.36972  0.39858  0.57209  1.0000
  H   H953      1.0  0.54799  0.02103  0.50306  1.0000
  H   H954      1.0  0.33799  0.34035  0.61863  1.0000
  C   C546      1.0  0.41776  0.31801  0.60211  1.0000
  H   H955      1.0  0.46913  0.03929  0.96719  1.0000
  H   H956      1.0  0.39315  0.35863  0.59667  1.0000
  H   H957      1.0  0.40238  0.35518  0.56352  1.0000
  H   H958      1.0  0.38284  0.37919  0.53720  1.0000
  H   H959      1.0  0.36243  0.36778  0.53767  1.0000
  H   H960      1.0  0.36651  0.34614  0.60532  1.0000
  H   H961      1.0  0.36860  0.30571  0.59551  1.0000
  H   H962      1.0  0.37941  0.28998  0.55148  1.0000
  H   H963      1.0  0.36569  0.31216  0.53193  1.0000
  H   H964      1.0  0.40225  0.32185  0.52620  1.0000
  C   C547      1.0  0.42745  0.10354  0.49525  1.0000
  H   H965      1.0  0.39400  0.29828  0.60301  1.0000
  H   H966      1.0  0.40412  0.29502  0.56989  1.0000
  H   H967      1.0  0.34611  0.30751  0.56269  1.0000
  H   H968      1.0  0.40972  0.01542  0.62838  1.0000
  H   H969      1.0  0.35891  0.39343  0.58496  1.0000
  H   H970      1.0  0.37998  0.40286  0.58633  1.0000
  H   H971      1.0  0.43550  0.09696  0.51274  1.0000
  H   H972      1.0  0.43673  0.11318  0.82371  1.0000
  H   H973      1.0  0.41763  0.23325  0.54521  1.0000
  S   S126      1.0  0.32055  0.39810  0.54270  1.0000
  C   C548      1.0  0.61518  0.35949  0.90326  1.0000
  C   C549      1.0  0.60452  0.23651  0.52296  1.0000
  H   H974      1.0  0.42623  0.33010  0.58745  1.0000
  H   H975      1.0  0.41606  0.33325  0.62096  1.0000
  H   H976      1.0  0.42312  0.29510  0.60888  1.0000
  H   H977      1.0  0.60102  0.35743  0.86633  1.0000
  C   C550      1.0  0.46002  0.09017  0.82134  1.0000
  C   C551      1.0  0.61577  0.21817  0.54275  1.0000
  N   N34       1.0  0.53617  0.19026  0.75728  1.0000
  C   C552      1.0  0.52529  0.17235  0.73729  1.0000
  C   C553      1.0  0.54767  0.16705  0.77028  1.0000
  C   C554      1.0  0.52579  0.20318  0.78061  1.0000
  C   C555      1.0  0.54512  0.21784  0.74370  1.0000
  C   C556      1.0  0.54975  0.21402  0.71233  1.0000
  C   C557      1.0  0.51082  0.19147  0.72618  1.0000
  C   C558      1.0  0.53474  0.21904  0.80555  1.0000
  C   C559      1.0  0.56134  0.24057  0.70305  1.0000
  C   C560      1.0  0.50350  0.17569  0.70021  1.0000
  C   C561      1.0  0.52343  0.23906  0.82347  1.0000
  H   H978      1.0  0.52025  0.15054  0.74769  1.0000
  H   H979      1.0  0.53199  0.16323  0.71895  1.0000
  H   H980      1.0  0.55562  0.17950  0.78555  1.0000
  H   H981      1.0  0.54090  0.14876  0.78257  1.0000
  H   H982      1.0  0.51814  0.18370  0.78953  1.0000
  H   H983      1.0  0.51739  0.22132  0.77239  1.0000
  H   H984      1.0  0.53802  0.24019  0.74495  1.0000
  H   H985      1.0  0.55630  0.22333  0.75563  1.0000
  H   H986      1.0  0.53895  0.21547  0.69894  1.0000
  H   H987      1.0  0.55547  0.19087  0.70788  1.0000
  H   H988      1.0  0.50133  0.19241  0.74253  1.0000
  H   H989      1.0  0.51427  0.21643  0.72087  1.0000
  H   H990      1.0  0.54467  0.23485  0.79833  1.0000
  H   H991      1.0  0.53976  0.20023  0.81924  1.0000
  H   H992      1.0  0.56416  0.23776  0.68043  1.0000
  H   H993      1.0  0.55592  0.26443  0.70631  1.0000
  H   H994      1.0  0.57271  0.23934  0.71502  1.0000
  H   H995      1.0  0.51201  0.17690  0.68230  1.0000
  H   H996      1.0  0.50037  0.15028  0.70445  1.0000
  H   H997      1.0  0.49238  0.18827  0.69427  1.0000
  H   H998      1.0  0.51928  0.26015  0.81154  1.0000
  H   H999      1.0  0.51283  0.22458  0.83009  1.0000
  H   H1000     1.0  0.52979  0.24761  0.84252  1.0000
  C   C562      1.0  0.59770  0.26604  0.53746  1.0000
  C   C563      1.0  0.60611  0.41083  0.70043  1.0000
  H   H1001     1.0  0.55982  0.10546  0.77490  1.0000
  H   H1002     1.0  0.46149  0.99658  0.89249  1.0000
  H   H1003     1.0  0.61518  0.13849  0.52896  1.0000
  H   H1004     1.0  0.53373  0.01803  0.94793  1.0000
  H   H1005     1.0  0.51508  0.99826  0.77331  1.0000
  H   H1006     1.0  0.41487  0.10315  0.50291  1.0000
  H   H1007     1.0  0.59888  0.40383  0.78789  1.0000
  H   H1008     1.0  0.34379  0.34976  0.56794  1.0000
  H   H1009     1.0  0.57631  0.11072  0.75076  1.0000
  H   H1010     1.0  0.63830  0.14577  0.49664  1.0000
  H   H1011     1.0  0.44387  0.99884  0.80351  1.0000
  C   C564      1.0  0.42824  0.21808  0.54888  1.0000
  Fe  Fe59      1.0  0.31998  0.35141  0.51821  1.0000
  H   H1012     1.0  0.40780  0.20847  0.50858  1.0000
  C   C565      1.0  0.55916  0.14937  0.75019  1.0000
  H   H1013     1.0  0.48758  0.05403  0.80942  1.0000
  C   C566      1.0  0.42407  0.99539  0.59541  1.0000
  C   C567      1.0  0.45570  0.00350  0.79330  1.0000
  H   H1014     1.0  0.36365  0.44894  0.57135  1.0000
  C   C568      1.0  0.32383  0.43487  0.52483  1.0000
  H   H1015     1.0  0.60837  0.21263  0.56155  1.0000
  H   H1016     1.0  0.57571  0.13385  0.78254  1.0000
  H   H1017     1.0  0.50490  0.07041  0.67734  1.0000
  C   C569      1.0  0.31877  0.46368  0.53709  1.0000
  H   H1018     1.0  0.45469  0.03224  0.85057  1.0000
  H   H1019     1.0  0.46458  0.02144  0.61718  1.0000
  H   H1020     1.0  0.61009  0.39524  0.87171  1.0000
  H   H1021     1.0  0.43027  0.02330  0.70456  1.0000
  H   H1022     1.0  0.47281  0.13307  0.95576  1.0000
  C   C570      1.0  0.61251  0.36914  0.87237  1.0000
  C   C571      1.0  0.60202  0.37884  0.78244  1.0000
  H   H1023     1.0  0.47069  0.07038  0.49352  1.0000
  H   H1024     1.0  0.61465  0.31339  0.84922  1.0000
  H   H1025     1.0  0.61215  0.37921  0.76736  1.0000
  H   H1026     1.0  0.44047  0.15661  0.52220  1.0000
  H   H1027     1.0  0.60744  0.28188  0.54547  1.0000
  C   C572      1.0  0.60371  0.16175  0.49467  1.0000
  C   C573      1.0  0.43896  0.21651  0.52223  1.0000
  C   C574      1.0  0.63858  0.15182  0.60166  1.0000
  C   C575      1.0  0.61054  0.16292  0.52499  1.0000
  H   H1028     1.0  0.59558  0.35996  0.82246  1.0000
  H   H1029     1.0  0.44157  0.24158  0.51558  1.0000
  H   H1030     1.0  0.63695  0.40476  0.61814  1.0000
  C   C576      1.0  0.47780  0.13452  0.97661  1.0000
  H   H1031     1.0  0.62693  0.36788  0.91127  1.0000
  C   C577      1.0  0.63818  0.30682  0.86802  1.0000
  H   H1032     1.0  0.46339  0.01674  0.75032  1.0000
  H   H1033     1.0  0.49019  0.03060  0.96518  1.0000
  H   H1034     1.0  0.59148  0.11566  0.49976  1.0000
  H   H1035     1.0  0.43988  0.02968  0.64251  1.0000
  C   C578      1.0  0.63328  0.19665  0.50589  1.0000
  C   C579      1.0  0.63600  0.27059  0.86543  1.0000
  N   N35       1.0  0.43236  0.19713  0.49794  1.0000
  C   C580      1.0  0.44121  0.01788  0.66318  1.0000
  C   C581      1.0  0.49166  0.15027  0.51346  1.0000
  C   C582      1.0  0.45252  0.00820  0.76156  1.0000
  H   H1036     1.0  0.63351  0.42086  0.87744  1.0000
  H   H1037     1.0  0.49741  0.17278  0.51881  1.0000
  H   H1038     1.0  0.52949  0.01764  0.91080  1.0000
  H   H1039     1.0  0.48263  0.99738  0.88403  1.0000
  S   S127      1.0  0.63548  0.29873  0.51098  1.0000
  C   C583      1.0  0.52408  0.01601  0.93205  1.0000
  H   H1040     1.0  0.51769  0.03582  0.67436  1.0000
  C   C584      1.0  0.63220  0.41858  0.67390  1.0000
  C   C585      1.0  0.48070  0.04116  0.97850  1.0000
  C   C586      1.0  0.46643  0.99719  0.62621  1.0000
  C   C587      1.0  0.41623  0.21074  0.49063  1.0000
  H   H1041     1.0  0.46704  0.21436  0.49133  1.0000
  H   H1042     1.0  0.63966  0.15248  0.54653  1.0000
  H   H1043     1.0  0.46255  0.17231  0.49153  1.0000
  H   H1044     1.0  0.64120  0.21757  0.51072  1.0000
  C   C588      1.0  0.58878  0.14035  0.49289  1.0000
  H   H1045     1.0  0.48575  0.99193  0.77415  1.0000
  H   H1046     1.0  0.64080  0.42324  0.84184  1.0000
  H   H1047     1.0  0.46581  0.99194  0.56891  1.0000
  H   H1048     1.0  0.33648  0.41418  0.49002  1.0000
  C   C589      1.0  0.47151  0.93411  0.04815  1.0000
  C   C590      1.0  0.45543  0.76426  0.43135  1.0000
  C   C591      1.0  0.30868  0.52318  0.33366  1.0000
  H   H1049     1.0  0.61857  0.79461  0.35257  1.0000
  Fe  Fe60      1.0  0.54919  0.77081  0.39058  1.0000
  S   S128      1.0  0.52369  0.75508  0.38111  1.0000
  S   S129      1.0  0.57085  0.73698  0.38728  1.0000
  Fe  Fe61      1.0  0.53882  0.83991  0.40257  1.0000
  S   S130      1.0  0.51285  0.82873  0.39526  1.0000
  S   S131      1.0  0.54808  0.88722  0.42053  1.0000
  Fe  Fe62      1.0  0.51710  0.78377  0.41945  1.0000
  S   S132      1.0  0.50094  0.76211  0.45311  1.0000
  Fe  Fe63      1.0  0.52118  0.80125  0.35697  1.0000
  S   S133      1.0  0.50505  0.81225  0.31892  1.0000
  S   S134      1.0  0.54251  0.79675  0.42998  1.0000
  S   S135      1.0  0.54725  0.81517  0.36334  1.0000
  Fe  Fe64      1.0  0.47541  0.79907  0.15734  1.0000
  S   S136      1.0  0.45352  0.82516  0.17124  1.0000
  S   S137      1.0  0.49353  0.77907  0.18884  1.0000
  Fe  Fe65      1.0  0.46527  0.80071  0.09353  1.0000
  S   S138      1.0  0.44244  0.82634  0.10514  1.0000
  S   S139      1.0  0.46839  0.78536  0.04663  1.0000
  Fe  Fe66      1.0  0.45817  0.85662  0.13353  1.0000
  S   S140      1.0  0.46403  0.91023  0.13380  1.0000
  Fe  Fe67      1.0  0.43957  0.79216  0.14217  1.0000
  S   S141      1.0  0.42007  0.75628  0.15929  1.0000
  S   S142      1.0  0.48094  0.83173  0.12091  1.0000
  S   S143      1.0  0.46165  0.76540  0.12901  1.0000
  Fe  Fe68      1.0  0.33335  0.65973  0.20652  1.0000
  S   S144      1.0  0.34414  0.61406  0.22206  1.0000
  S   S145      1.0  0.34851  0.70143  0.18659  1.0000
  Fe  Fe69      1.0  0.32921  0.62193  0.26074  1.0000
  S   S146      1.0  0.34112  0.61474  0.30273  1.0000
  Fe  Fe70      1.0  0.32211  0.58870  0.20555  1.0000
  H   H1050     1.0  0.41606  0.97665  0.14773  1.0000
  S   S147      1.0  0.31899  0.66838  0.24634  1.0000
  H   H1051     1.0  0.39228  0.80764  0.06847  1.0000
  C   C592      1.0  0.50652  0.94959  0.45061  1.0000
  C   C593      1.0  0.58427  0.60060  0.45468  1.0000
  C   C594      1.0  0.61665  0.84856  0.38745  1.0000
  H   H1052     1.0  0.58311  0.84834  0.34220  1.0000
  S   S148      1.0  0.32125  0.54115  0.18203  1.0000
  C   C595      1.0  0.33006  0.62359  0.33313  1.0000
  H   H1053     1.0  0.48384  0.97916  0.42049  1.0000
  H   H1054     1.0  0.58487  0.59199  0.35168  1.0000
  C   C596      1.0  0.42895  0.97628  0.14536  1.0000
  C   C597      1.0  0.32899  0.62842  0.38400  1.0000
  C   C598      1.0  0.33742  0.62089  0.35939  1.0000
  H   H1055     1.0  0.48660  0.97398  0.36933  1.0000
  H   H1056     1.0  0.40763  0.71567  0.10748  1.0000
  H   H1057     1.0  0.33475  0.62647  0.40417  1.0000
  H   H1058     1.0  0.34969  0.61303  0.36069  1.0000
  C   C599      1.0  0.40008  0.74138  0.16681  1.0000
  C   C600      1.0  0.38629  0.75858  0.16024  1.0000
  C   C601      1.0  0.37082  0.74585  0.16626  1.0000
  C   C602      1.0  0.36865  0.71566  0.17901  1.0000
  C   C603      1.0  0.38247  0.69833  0.18542  1.0000
  C   C604      1.0  0.39797  0.71114  0.17952  1.0000
  H   H1059     1.0  0.38751  0.78180  0.15048  1.0000
  H   H1060     1.0  0.36039  0.75958  0.16085  1.0000
  H   H1061     1.0  0.38124  0.67482  0.19461  1.0000
  H   H1062     1.0  0.40841  0.69724  0.18452  1.0000
  H   H1063     1.0  0.58915  0.88021  0.39977  1.0000
  C   C605      1.0  0.46211  0.97512  0.13913  1.0000
  C   C606      1.0  0.45338  0.94616  0.13855  1.0000
  C   C607      1.0  0.43674  0.94682  0.14177  1.0000
  H   H1064     1.0  0.47501  0.97476  0.13692  1.0000
  H   H1065     1.0  0.39463  0.70341  0.07981  1.0000
  H   H1066     1.0  0.42990  0.92470  0.14141  1.0000
  C   C608      1.0  0.50279  0.80341  0.28241  1.0000
  C   C609      1.0  0.49167  0.82098  0.26671  1.0000
  C   C610      1.0  0.48904  0.81450  0.23799  1.0000
  C   C611      1.0  0.49730  0.78991  0.22453  1.0000
  C   C612      1.0  0.50848  0.77243  0.24016  1.0000
  C   C613      1.0  0.51127  0.77918  0.26883  1.0000
  H   H1067     1.0  0.48513  0.83997  0.27683  1.0000
  H   H1068     1.0  0.48065  0.82855  0.22621  1.0000
  H   H1069     1.0  0.51500  0.75339  0.23005  1.0000
  H   H1070     1.0  0.51986  0.76539  0.28048  1.0000
  C   C614      1.0  0.54614  0.92507  0.40425  1.0000
  C   C615      1.0  0.53979  0.92835  0.37733  1.0000
  C   C616      1.0  0.53959  0.95863  0.36439  1.0000
  H   H1071     1.0  0.39833  0.76347  0.10063  1.0000
  C   C617      1.0  0.55160  0.95253  0.41852  1.0000
  H   H1072     1.0  0.53543  0.90747  0.36615  1.0000
  H   H1073     1.0  0.55657  0.95026  0.43931  1.0000
  C   C618      1.0  0.58292  0.74357  0.99281  1.0000
  C   C619      1.0  0.31907  0.50256  0.22923  1.0000
  H   H1074     1.0  0.49682  0.83089  0.45612  1.0000
  C   C620      1.0  0.58437  0.72012  0.41222  1.0000
  C   C621      1.0  0.59722  0.70150  0.40248  1.0000
  C   C622      1.0  0.60828  0.68778  0.42123  1.0000
  C   C623      1.0  0.60662  0.69213  0.45022  1.0000
  C   C624      1.0  0.59385  0.71100  0.45992  1.0000
  C   C625      1.0  0.58278  0.72476  0.44116  1.0000
  H   H1075     1.0  0.59866  0.69770  0.38020  1.0000
  H   H1076     1.0  0.61816  0.67405  0.41318  1.0000
  C   C626      1.0  0.58306  0.81716  0.43673  1.0000
  H   H1077     1.0  0.57296  0.73875  0.44912  1.0000
  H   H1078     1.0  0.49922  0.82059  0.03710  1.0000
  H   H1079     1.0  0.48219  0.93616  0.03433  1.0000
  C   C627      1.0  0.48109  0.79242  0.01630  1.0000
  C   C628      1.0  0.49545  0.81023  0.01738  1.0000
  H   H1080     1.0  0.61763  0.87314  0.39647  1.0000
  N   N36       1.0  0.44776  0.74855  0.24792  1.0000
  C   C629      1.0  0.44661  0.72521  0.22376  1.0000
  C   C630      1.0  0.43375  0.74372  0.26777  1.0000
  C   C631      1.0  0.44676  0.78191  0.23590  1.0000
  C   C632      1.0  0.46349  0.74624  0.26321  1.0000
  C   C633      1.0  0.46749  0.71345  0.27609  1.0000
  C   C634      1.0  0.46006  0.72751  0.20139  1.0000
  C   C635      1.0  0.44521  0.80965  0.25756  1.0000
  C   C636      1.0  0.42719  0.70908  0.27169  1.0000
  C   C637      1.0  0.41542  0.70718  0.29622  1.0000
  C   C638      1.0  0.48468  0.71328  0.28704  1.0000
  C   C639      1.0  0.45788  0.70178  0.17886  1.0000
  C   C640      1.0  0.44312  0.84186  0.24302  1.0000
  H   H1081     1.0  0.43496  0.72822  0.21273  1.0000
  H   H1082     1.0  0.44657  0.70013  0.23115  1.0000
  H   H1083     1.0  0.43675  0.75366  0.28883  1.0000
  H   H1084     1.0  0.42319  0.75739  0.26033  1.0000
  H   H1085     1.0  0.43643  0.78340  0.22117  1.0000
  H   H1086     1.0  0.45763  0.78761  0.22325  1.0000
  H   H1087     1.0  0.47355  0.75351  0.24927  1.0000
  H   H1088     1.0  0.46403  0.76360  0.28086  1.0000
  H   H1089     1.0  0.46635  0.69382  0.26058  1.0000
  H   H1090     1.0  0.45949  0.70861  0.29423  1.0000
  H   H1091     1.0  0.45992  0.75098  0.19072  1.0000
  H   H1092     1.0  0.47202  0.72404  0.21090  1.0000
  H   H1093     1.0  0.45607  0.81165  0.27076  1.0000
  H   H1094     1.0  0.43471  0.80618  0.27153  1.0000
  H   H1095     1.0  0.42066  0.70133  0.25250  1.0000
  H   H1096     1.0  0.43679  0.69168  0.27557  1.0000
  H   H1097     1.0  0.40539  0.72395  0.29304  1.0000
  H   H1098     1.0  0.41043  0.68250  0.29784  1.0000
  H   H1099     1.0  0.42158  0.71312  0.31620  1.0000
  H   H1100     1.0  0.48667  0.73290  0.30246  1.0000
  H   H1101     1.0  0.48708  0.69015  0.29749  1.0000
  H   H1102     1.0  0.49332  0.71625  0.26945  1.0000
  H   H1103     1.0  0.44638  0.70503  0.16765  1.0000
  H   H1104     1.0  0.46783  0.70370  0.16342  1.0000
  H   H1105     1.0  0.45811  0.67753  0.18826  1.0000
  H   H1106     1.0  0.45391  0.84810  0.23045  1.0000
  H   H1107     1.0  0.43247  0.84130  0.22913  1.0000
  H   H1108     1.0  0.44146  0.86090  0.25899  1.0000
  N   N37       1.0  0.35523  0.72486  0.28431  1.0000
  C   C641      1.0  0.34070  0.72601  0.30321  1.0000
  C   C642      1.0  0.35066  0.73611  0.25538  1.0000
  C   C643      1.0  0.36005  0.69021  0.28183  1.0000
  C   C644      1.0  0.36931  0.74400  0.29549  1.0000
  C   C645      1.0  0.36551  0.77474  0.31251  1.0000
  C   C646      1.0  0.34261  0.70971  0.33219  1.0000
  C   C647      1.0  0.37311  0.68267  0.25971  1.0000
  C   C648      1.0  0.34459  0.77077  0.25274  1.0000
  H   H1109     1.0  0.34800  0.77384  0.20750  1.0000
  C   C649      1.0  0.38068  0.79470  0.31763  1.0000
  H   H1110     1.0  0.30822  0.56601  0.30771  1.0000
  C   C650      1.0  0.38015  0.64952  0.26419  1.0000
  H   H1111     1.0  0.33027  0.71410  0.29278  1.0000
  H   H1112     1.0  0.33683  0.75089  0.30695  1.0000
  H   H1113     1.0  0.36102  0.73477  0.24073  1.0000
  H   H1114     1.0  0.34135  0.71984  0.24645  1.0000
  H   H1115     1.0  0.34945  0.67493  0.27661  1.0000
  H   H1116     1.0  0.36446  0.68115  0.30228  1.0000
  H   H1117     1.0  0.37670  0.72909  0.30966  1.0000
  H   H1118     1.0  0.37748  0.75085  0.27794  1.0000
  H   H1119     1.0  0.36041  0.76844  0.33330  1.0000
  H   H1120     1.0  0.35674  0.79012  0.30195  1.0000
  H   H1121     1.0  0.34248  0.68341  0.32957  1.0000
  H   H1122     1.0  0.35408  0.71651  0.34232  1.0000
  H   H1123     1.0  0.38304  0.70049  0.26021  1.0000
  H   H1124     1.0  0.36766  0.68273  0.23855  1.0000
  H   H1125     1.0  0.32822  0.76059  0.21815  1.0000
  H   H1126     1.0  0.35461  0.78792  0.25635  1.0000
  C   C651      1.0  0.41160  0.66810  0.09414  1.0000
  C   C652      1.0  0.63111  0.82949  0.39872  1.0000
  H   H1127     1.0  0.45260  0.93986  0.19977  1.0000
  H   H1128     1.0  0.38972  0.78049  0.32904  1.0000
  H   H1129     1.0  0.38587  0.80308  0.29743  1.0000
  H   H1130     1.0  0.37772  0.81601  0.33051  1.0000
  S   S149      1.0  0.33666  0.62334  0.46953  1.0000
  H   H1131     1.0  0.51232  0.94531  0.02124  1.0000
  H   H1132     1.0  0.56481  0.58037  0.36262  1.0000
  H   H1133     1.0  0.38895  0.64434  0.24733  1.0000
  H   H1134     1.0  0.38630  0.64825  0.28474  1.0000
  H   H1135     1.0  0.37056  0.63089  0.26356  1.0000
  N   N38       1.0  0.41794  0.72005  0.06587  1.0000
  C   C653      1.0  0.41708  0.70262  0.03816  1.0000
  C   C654      1.0  0.40734  0.70302  0.08694  1.0000
  C   C655      1.0  0.41108  0.75294  0.06126  1.0000
  C   C656      1.0  0.43489  0.72349  0.07680  1.0000
  C   C657      1.0  0.44670  0.69623  0.06921  1.0000
  H   H1136     1.0  0.58853  0.82673  0.48064  1.0000
  C   C658      1.0  0.32042  0.50397  0.20005  1.0000
  H   H1137     1.0  0.33107  0.53271  0.42433  1.0000
  H   H1138     1.0  0.43713  0.67947  0.99482  1.0000
  C   C659      1.0  0.46235  0.69916  0.08546  1.0000
  H   H1139     1.0  0.41250  0.83882  0.48147  1.0000
  H   H1140     1.0  0.52751  0.90167  0.47092  1.0000
  H   H1141     1.0  0.44717  0.72195  0.47367  1.0000
  H   H1142     1.0  0.42242  0.67857  0.03952  1.0000
  H   H1143     1.0  0.43740  0.80817  0.48711  1.0000
  C   C660      1.0  0.49045  0.78686  0.47665  1.0000
  H   H1144     1.0  0.39935  0.75107  0.05022  1.0000
  H   H1145     1.0  0.41913  0.76735  0.04739  1.0000
  H   H1146     1.0  0.44067  0.74596  0.06899  1.0000
  H   H1147     1.0  0.43475  0.72633  0.10003  1.0000
  H   H1148     1.0  0.44986  0.69719  0.04663  1.0000
  H   H1149     1.0  0.44158  0.67223  0.07342  1.0000
  H   H1150     1.0  0.50891  0.88480  0.45807  1.0000
  C   C661      1.0  0.60811  0.49239  0.44997  1.0000
  H   H1151     1.0  0.41931  0.77433  0.10077  1.0000
  H   H1152     1.0  0.51840  0.94634  0.44032  1.0000
  S   S150      1.0  0.30835  0.59292  0.24551  1.0000
  H   H1153     1.0  0.42301  0.66767  0.10599  1.0000
  C   C662      1.0  0.50664  0.93114  0.47883  1.0000
  H   H1154     1.0  0.57413  0.90245  0.32932  1.0000
  C   C663      1.0  0.47373  0.97909  0.47180  1.0000
  H   H1155     1.0  0.46845  0.72228  0.08070  1.0000
  H   H1156     1.0  0.46008  0.69727  0.10834  1.0000
  H   H1157     1.0  0.47049  0.67959  0.07920  1.0000
  H   H1158     1.0  0.41129  0.77892  0.47375  1.0000
  H   H1159     1.0  0.30851  0.63628  0.31134  1.0000
  C   C664      1.0  0.55101  0.98290  0.40585  1.0000
  H   H1160     1.0  0.63259  0.83418  0.42152  1.0000
  H   H1161     1.0  0.58530  0.53728  0.45538  1.0000
  Fe  Fe71      1.0  0.31159  0.63257  0.45507  1.0000
  N   N39       1.0  0.60037  0.83427  0.39384  1.0000
  H   H1162     1.0  0.40434  0.69788  0.03237  1.0000
  H   H1163     1.0  0.32079  0.56236  0.35527  1.0000
  H   H1164     1.0  0.57407  0.55957  0.41367  1.0000
  C   C665      1.0  0.59729  0.80284  0.37888  1.0000
  C   C666      1.0  0.60551  0.79795  0.34993  1.0000
  H   H1165     1.0  0.60825  0.81022  0.43143  1.0000
  C   C667      1.0  0.58437  0.80653  0.46726  1.0000
  H   H1166     1.0  0.41259  0.65291  0.07520  1.0000
  C   C668      1.0  0.59890  0.76816  0.33515  1.0000
  H   H1167     1.0  0.35786  0.58012  0.41616  1.0000
  H   H1168     1.0  0.57685  0.91578  0.36498  1.0000
  N   N40       1.0  0.32062  0.52213  0.38378  1.0000
  H   H1169     1.0  0.57554  0.84867  0.39149  1.0000
  H   H1170     1.0  0.60357  0.55222  0.46985  1.0000
  C   C669      1.0  0.60711  0.52374  0.43366  1.0000
  C   C670      1.0  0.32145  0.53585  0.35460  1.0000
  H   H1171     1.0  0.60108  0.78224  0.39198  1.0000
  H   H1172     1.0  0.58417  0.79907  0.37597  1.0000
  C   C671      1.0  0.31425  0.63398  0.33153  1.0000
  H   H1173     1.0  0.60390  0.81849  0.33575  1.0000
  H   H1174     1.0  0.57833  0.79668  0.42434  1.0000
  H   H1175     1.0  0.43277  0.73946  0.43225  1.0000
  H   H1176     1.0  0.45377  0.77124  0.40912  1.0000
  H   H1177     1.0  0.45007  0.76113  0.48634  1.0000
  C   C672      1.0  0.58484  0.57470  0.40904  1.0000
  H   H1178     1.0  0.32250  0.53644  0.29641  1.0000
  S   S151      1.0  0.61988  0.67447  0.47527  1.0000
  H   H1179     1.0  0.58585  0.77049  0.33127  1.0000
  H   H1180     1.0  0.60505  0.76496  0.31469  1.0000
  H   H1181     1.0  0.60091  0.74654  0.34810  1.0000
  H   H1182     1.0  0.53512  0.96080  0.34323  1.0000
  N   N41       1.0  0.50247  0.98476  0.45171  1.0000
  C   C673      1.0  0.40833  0.77346  0.08786  1.0000
  C   C674      1.0  0.46403  0.96502  0.23460  1.0000
  H   H1183     1.0  0.58185  0.65462  0.48928  1.0000
  C   C675      1.0  0.32885  0.71796  0.35199  1.0000
  H   H1184     1.0  0.46381  0.91416  0.04037  1.0000
  C   C676      1.0  0.61024  0.59717  0.43009  1.0000
  H   H1185     1.0  0.32991  0.56589  0.40199  1.0000
  H   H1186     1.0  0.35997  0.54339  0.43572  1.0000
  H   H1187     1.0  0.58352  0.71838  0.00006  1.0000
  H   H1188     1.0  0.45811  0.97020  0.02640  1.0000
  C   C677      1.0  0.44122  0.74551  0.47552  1.0000
  H   H1189     1.0  0.42209  0.69571  0.47411  1.0000
  C   C678      1.0  0.47412  0.98855  0.21646  1.0000
  C   C679      1.0  0.40371  0.80762  0.08029  1.0000
  H   H1190     1.0  0.49795  0.93622  0.43693  1.0000
  H   H1191     1.0  0.61234  0.60483  0.38460  1.0000
  H   H1192     1.0  0.38553  0.69447  0.46034  1.0000
  H   H1193     1.0  0.57721  0.75802  0.00955  1.0000
  H   H1194     1.0  0.61894  0.59114  0.44676  1.0000
  H   H1195     1.0  0.56793  0.61428  0.40556  1.0000
  H   H1196     1.0  0.58788  0.62507  0.39510  1.0000
  H   H1197     1.0  0.45251  0.97560  0.24120  1.0000
  H   H1198     1.0  0.45123  0.96107  0.06129  1.0000
  H   H1199     1.0  0.51480  0.90234  0.02296  1.0000
  C   C680      1.0  0.59704  0.54860  0.44980  1.0000
  C   C681      1.0  0.33833  0.77711  0.22323  1.0000
  H   H1200     1.0  0.60288  0.85095  0.43672  1.0000
  H   H1201     1.0  0.57245  0.79829  0.47489  1.0000
  H   H1202     1.0  0.49420  0.92689  0.48630  1.0000
  H   H1203     1.0  0.53086  0.92887  0.03347  1.0000
  C   C682      1.0  0.42500  0.72050  0.01305  1.0000
  H   H1204     1.0  0.47076  0.95817  0.25363  1.0000
  C   C683      1.0  0.50514  0.81418  0.99303  1.0000
  H   H1205     1.0  0.45335  0.91746  0.23189  1.0000
  C   C684      1.0  0.46207  0.96520  0.04810  1.0000
  H   H1206     1.0  0.61827  0.56575  0.39506  1.0000
  H   H1207     1.0  0.33467  0.77575  0.26749  1.0000
  C   C685      1.0  0.58769  0.85831  0.38657  1.0000
  C   C686      1.0  0.59077  0.60608  0.48471  1.0000
  H   H1208     1.0  0.43233  0.78024  0.44429  1.0000
  H   H1209     1.0  0.33024  0.70481  0.37203  1.0000
  H   H1210     1.0  0.51132  0.96718  0.39718  1.0000
  H   H1211     1.0  0.60895  0.62348  0.43193  1.0000
  H   H1212     1.0  0.41093  0.72656  0.45870  1.0000
  C   C687      1.0  0.57427  0.89461  0.35154  1.0000
  H   H1213     1.0  0.31718  0.71071  0.34264  1.0000
  H   H1214     1.0  0.57426  0.83683  0.43619  1.0000
  C   C688      1.0  0.43915  0.75772  0.44509  1.0000
  S   S152      1.0  0.31201  0.63373  0.18664  1.0000
  H   H1215     1.0  0.47538  0.92818  0.06979  1.0000
  Fe  Fe72      1.0  0.64021  0.63864  0.48501  1.0000
  C   C689      1.0  0.46011  0.93441  0.21828  1.0000
  H   H1216     1.0  0.56222  0.88485  0.35681  1.0000
  H   H1217     1.0  0.59165  0.56061  0.39346  1.0000
  C   C690      1.0  0.61847  0.59123  0.40127  1.0000
  C   C691      1.0  0.52091  0.92551  0.01830  1.0000
  C   C692      1.0  0.36111  0.55448  0.41466  1.0000
  C   C693      1.0  0.59949  0.82870  0.42512  1.0000
  H   H1218     1.0  0.41685  0.73933  0.00535  1.0000
  C   C694      1.0  0.57878  0.60552  0.39452  1.0000
  H   H1219     1.0  0.56947  0.62161  0.35468  1.0000
  H   H1220     1.0  0.61959  0.53272  0.43105  1.0000
  H   H1221     1.0  0.59841  0.87882  0.34798  1.0000
  C   C695      1.0  0.57421  0.59933  0.36400  1.0000
  H   H1222     1.0  0.51625  0.82762  0.99454  1.0000
  H   H1223     1.0  0.57199  0.59008  0.45681  1.0000
  C   C696      1.0  0.39876  0.65291  0.11297  1.0000
  C   C697      1.0  0.58684  0.86884  0.35554  1.0000
  H   H1224     1.0  0.53299  0.97641  0.48150  1.0000
  H   H1225     1.0  0.33327  0.53083  0.34482  1.0000
  S   S153      1.0  0.33700  0.53145  0.48358  1.0000
  N   N42       1.0  0.59440  0.58025  0.43543  1.0000
  H   H1226     1.0  0.59240  0.71476  0.48221  1.0000
  H   H1227     1.0  0.58275  0.62489  0.44559  1.0000
  C   C698      1.0  0.35034  0.53701  0.39363  1.0000
  H   H1228     1.0  0.46176  0.78419  0.44227  1.0000
  H   H1229     1.0  0.46305  0.74267  0.43196  1.0000
  H   H1230     1.0  0.37380  0.55293  0.40783  1.0000
  H   H1231     1.0  0.41323  0.81929  0.06744  1.0000
  C   C699      1.0  0.33246  0.53993  0.40203  1.0000
  H   H1232     1.0  0.31013  0.49717  0.32995  1.0000
  C   C700      1.0  0.41531  0.71773  0.47924  1.0000
  H   H1233     1.0  0.40212  0.82181  0.09979  1.0000
  C   C701      1.0  0.49029  0.82003  0.47330  1.0000
  H   H1234     1.0  0.38703  0.65185  0.10206  1.0000
  H   H1235     1.0  0.35257  0.54800  0.37281  1.0000
  H   H1236     1.0  0.61838  0.85197  0.36461  1.0000
  H   H1237     1.0  0.47124  0.92258  0.21107  1.0000
  H   H1238     1.0  0.40223  0.62815  0.11847  1.0000
  H   H1239     1.0  0.39743  0.66680  0.13268  1.0000
  H   H1240     1.0  0.62932  0.80334  0.39590  1.0000
  H   H1241     1.0  0.59284  0.78637  0.46920  1.0000
  H   H1242     1.0  0.48538  0.97584  0.21129  1.0000
  H   H1243     1.0  0.32881  0.74399  0.35660  1.0000
  H   H1244     1.0  0.47387  0.95404  0.46409  1.0000
  C   C702      1.0  0.51453  0.89856  0.47547  1.0000
  H   H1245     1.0  0.60337  0.61440  0.48393  1.0000
  H   H1246     1.0  0.61370  0.49652  0.47080  1.0000
  H   H1247     1.0  0.43643  0.73242  0.01914  1.0000
  C   C703      1.0  0.63597  0.60219  0.40158  1.0000
  C   C704      1.0  0.54508  0.98608  0.37865  1.0000
  H   H1248     1.0  0.31881  0.52441  0.24131  1.0000
  H   H1249     1.0  0.63706  0.62746  0.40864  1.0000
  C   C705      1.0  0.31316  0.63872  0.38244  1.0000
  H   H1250     1.0  0.33402  0.80207  0.22177  1.0000
  H   H1251     1.0  0.39668  0.66177  0.47538  1.0000
  C   C706      1.0  0.38986  0.68377  0.48016  1.0000
  H   H1252     1.0  0.60193  0.51812  0.41286  1.0000
  H   H1253     1.0  0.35413  0.51172  0.39285  1.0000
  C   C707      1.0  0.31035  0.53996  0.30537  1.0000
  H   H1254     1.0  0.48110  0.86468  0.48884  1.0000
  H   H1255     1.0  0.64115  0.60023  0.38019  1.0000
  H   H1256     1.0  0.47323  0.98882  0.08313  1.0000
  C   C708      1.0  0.47664  0.77916  0.99015  1.0000
  C   C709      1.0  0.50534  0.99068  0.39774  1.0000
  H   H1257     1.0  0.48450  0.99149  0.05206  1.0000
  Fe  Fe73      1.0  0.53639  0.84709  0.84763  1.0000
  S   S154      1.0  0.51062  0.84167  0.85975  1.0000
  S   S155      1.0  0.54969  0.89497  0.84894  1.0000
  Fe  Fe74      1.0  0.54126  0.77453  0.84103  1.0000
  S   S156      1.0  0.51536  0.76468  0.85393  1.0000
  S   S157      1.0  0.55755  0.73143  0.82963  1.0000
  Fe  Fe75      1.0  0.50935  0.80543  0.82444  1.0000
  S   S158      1.0  0.48713  0.80823  0.79583  1.0000
  Fe  Fe76      1.0  0.51835  0.80196  0.88844  1.0000
  S   S159      1.0  0.51376  0.80617  0.93685  1.0000
  S   S160      1.0  0.53488  0.81363  0.81050  1.0000
  S   S161      1.0  0.54451  0.80877  0.87713  1.0000
  H   H1258     1.0  0.59295  0.68018  0.74077  1.0000
  C   C710      1.0  0.48624  0.78341  0.96575  1.0000
  S   S162      1.0  0.63018  0.68650  0.80439  1.0000
  H   H1259     1.0  0.59052  0.78851  0.92837  1.0000
  Fe  Fe77      1.0  0.45270  0.80923  0.63537  1.0000
  S   S163      1.0  0.42603  0.80800  0.64321  1.0000
  S   S164      1.0  0.47469  0.79915  0.66280  1.0000
  Fe  Fe78      1.0  0.44812  0.83132  0.57447  1.0000
  S   S165      1.0  0.42125  0.83265  0.57777  1.0000
  S   S166      1.0  0.46130  0.84993  0.53613  1.0000
  Fe  Fe79      1.0  0.42577  0.85501  0.61996  1.0000
  S   S167      1.0  0.41281  0.89840  0.63662  1.0000
  Fe  Fe80      1.0  0.42326  0.78558  0.60009  1.0000
  S   S168      1.0  0.40780  0.74052  0.59124  1.0000
  S   S169      1.0  0.45229  0.85752  0.61495  1.0000
  S   S170      1.0  0.45012  0.78295  0.59402  1.0000
  Fe  Fe81      1.0  0.33031  0.65104  0.50873  1.0000
  H   H1260     1.0  0.52015  0.70248  0.93978  1.0000
  S   S171      1.0  0.34439  0.69605  0.52410  1.0000
  H   H1261     1.0  0.46564  0.76533  0.98872  1.0000
  H   H1262     1.0  0.52258  0.73396  0.91433  1.0000
  H   H1263     1.0  0.44723  0.66915  0.55844  1.0000
  S   S172      1.0  0.32086  0.60712  0.53159  1.0000
  H   H1264     1.0  0.58982  0.63585  0.89960  1.0000
  H   H1265     1.0  0.50984  0.98395  0.95708  1.0000
  N   N43       1.0  0.37288  0.82215  0.64230  1.0000
  C   C711      1.0  0.41690  0.93548  0.62013  1.0000
  C   C712      1.0  0.41082  0.96381  0.63166  1.0000
  H   H1266     1.0  0.55194  0.92175  0.91353  1.0000
  C   C713      1.0  0.42943  0.96691  0.58313  1.0000
  C   C714      1.0  0.42612  0.93712  0.59566  1.0000
  H   H1267     1.0  0.40348  0.96272  0.65035  1.0000
  H   H1268     1.0  0.43064  0.91545  0.58626  1.0000
  C   C715      1.0  0.39052  0.72865  0.57131  1.0000
  C   C716      1.0  0.38592  0.69610  0.57067  1.0000
  C   C717      1.0  0.37206  0.68556  0.55612  1.0000
  C   C718      1.0  0.36242  0.70750  0.54211  1.0000
  C   C719      1.0  0.36710  0.74005  0.54260  1.0000
  C   C720      1.0  0.38109  0.75052  0.55681  1.0000
  H   H1269     1.0  0.39305  0.67883  0.58176  1.0000
  H   H1270     1.0  0.36872  0.66047  0.55607  1.0000
  H   H1271     1.0  0.35985  0.75730  0.53175  1.0000
  H   H1272     1.0  0.38450  0.77549  0.55663  1.0000
  H   H1273     1.0  0.35857  0.88118  0.65840  1.0000
  C   C721      1.0  0.47260  0.82511  0.51386  1.0000
  C   C722      1.0  0.47291  0.79196  0.51745  1.0000
  H   H1274     1.0  0.35213  0.87527  0.62314  1.0000
  H   H1275     1.0  0.45661  0.95855  0.74939  1.0000
  H   H1276     1.0  0.46613  0.78097  0.53425  1.0000
  H   H1277     1.0  0.48405  0.95623  0.66319  1.0000
  H   H1278     1.0  0.56028  0.96070  0.85480  1.0000
  C   C723      1.0  0.38156  0.84491  0.62285  1.0000
  H   H1279     1.0  0.51662  0.85686  0.57470  1.0000
  H   H1280     1.0  0.50124  0.95986  0.84817  1.0000
  C   C724      1.0  0.48037  0.88416  0.90166  1.0000
  C   C725      1.0  0.38234  0.85380  0.68662  1.0000
  C   C726      1.0  0.54460  0.70930  0.92508  1.0000
  C   C727      1.0  0.50070  0.80077  0.96692  1.0000
  S   S173      1.0  0.63779  0.61787  0.74777  1.0000
  H   H1281     1.0  0.63739  0.56748  0.63762  1.0000
  H   H1282     1.0  0.48251  0.77284  0.94608  1.0000
  H   H1283     1.0  0.35087  0.82029  0.66627  1.0000
  C   C728      1.0  0.57777  0.72012  0.82100  1.0000
  C   C729      1.0  0.58092  0.68795  0.81408  1.0000
  C   C730      1.0  0.59669  0.67731  0.80855  1.0000
  C   C731      1.0  0.60975  0.69865  0.80993  1.0000
  C   C732      1.0  0.60659  0.73087  0.81663  1.0000
  C   C733      1.0  0.59080  0.74158  0.82192  1.0000
  H   H1284     1.0  0.57106  0.67094  0.81333  1.0000
  H   H1285     1.0  0.59877  0.65241  0.80381  1.0000
  H   H1286     1.0  0.61649  0.74776  0.81784  1.0000
  H   H1287     1.0  0.58877  0.76642  0.82700  1.0000
  C   C734      1.0  0.48418  0.80651  0.75862  1.0000
  C   C735      1.0  0.49648  0.79903  0.73976  1.0000
  C   C736      1.0  0.49335  0.79707  0.71064  1.0000
  C   C737      1.0  0.47796  0.80277  0.69981  1.0000
  C   C738      1.0  0.46572  0.81071  0.71861  1.0000
  C   C739      1.0  0.46881  0.81241  0.74774  1.0000
  H   H1288     1.0  0.50834  0.79431  0.74766  1.0000
  H   H1289     1.0  0.50293  0.79079  0.69646  1.0000
  H   H1290     1.0  0.45381  0.81509  0.71080  1.0000
  H   H1291     1.0  0.45918  0.81810  0.76202  1.0000
  C   C740      1.0  0.51411  0.96038  0.84932  1.0000
  C   C741      1.0  0.52242  0.93147  0.84758  1.0000
  C   C742      1.0  0.53907  0.93133  0.84974  1.0000
  C   C743      1.0  0.54736  0.96059  0.85317  1.0000
  H   H1292     1.0  0.50582  0.92388  0.89701  1.0000
  H   H1293     1.0  0.51590  0.90923  0.84467  1.0000
  C   C744      1.0  0.57870  0.75125  0.70057  1.0000
  H   H1294     1.0  0.47368  0.90040  0.66771  1.0000
  H   H1295     1.0  0.48413  0.88866  0.87965  1.0000
  N   N44       1.0  0.61779  0.70064  0.70304  1.0000
  C   C745      1.0  0.42749  0.80375  0.50220  1.0000
  C   C746      1.0  0.61713  0.68382  0.64995  1.0000
  H   H1296     1.0  0.39274  0.72873  0.50114  1.0000
  H   H1297     1.0  0.52707  0.83872  0.53212  1.0000
  H   H1298     1.0  0.49556  0.98562  0.49568  1.0000
  C   C747      1.0  0.42835  0.69788  0.98859  1.0000
  C   C748      1.0  0.53901  0.98972  0.85457  1.0000
  C   C749      1.0  0.57310  0.74576  0.96594  1.0000
  H   H1299     1.0  0.59502  0.74805  0.89378  1.0000
  H   H1300     1.0  0.53885  0.77470  0.50841  1.0000
  C   C750      1.0  0.53483  0.79983  0.50664  1.0000
  H   H1301     1.0  0.52914  0.74008  0.95005  1.0000
  H   H1302     1.0  0.39390  0.87413  0.72336  1.0000
  H   H1303     1.0  0.31825  0.51536  0.53394  1.0000
  C   C751      1.0  0.52814  0.72233  0.93276  1.0000
  N   N45       1.0  0.57346  0.72844  0.91321  1.0000
  C   C752      1.0  0.55583  0.73605  0.91350  1.0000
  H   H1304     1.0  0.51312  0.94429  0.49550  1.0000
  C   C753      1.0  0.57539  0.69718  0.89757  1.0000
  C   C754      1.0  0.58044  0.72493  0.94223  1.0000
  H   H1305     1.0  0.43350  0.71167  0.97077  1.0000
  H   H1306     1.0  0.48191  0.74721  0.50153  1.0000
  C   C755      1.0  0.53066  0.81356  0.53543  1.0000
  C   C756      1.0  0.33350  0.87100  0.65382  1.0000
  H   H1307     1.0  0.55165  0.74103  0.89180  1.0000
  H   H1308     1.0  0.55344  0.75839  0.92526  1.0000
  H   H1309     1.0  0.45296  0.89387  0.67668  1.0000
  H   H1310     1.0  0.57703  0.75579  0.87541  1.0000
  H   H1311     1.0  0.56896  0.69788  0.87718  1.0000
  H   H1312     1.0  0.56966  0.67724  0.90948  1.0000
  H   H1313     1.0  0.57926  0.69975  0.94962  1.0000
  H   H1314     1.0  0.63343  0.75644  0.73011  1.0000
  H   H1315     1.0  0.54280  0.69056  0.90879  1.0000
  C   C757      1.0  0.52998  0.89687  0.92728  1.0000
  H   H1316     1.0  0.31704  0.65385  0.58723  1.0000
  H   H1317     1.0  0.63976  0.68432  0.72191  1.0000
  C   C758      1.0  0.54821  0.90437  0.92998  1.0000
  C   C759      1.0  0.58946  0.81247  0.88885  1.0000
  H   H1318     1.0  0.49424  0.93671  0.92617  1.0000
  H   H1319     1.0  0.58419  0.77541  0.69802  1.0000
  H   H1320     1.0  0.45536  0.97547  0.84488  1.0000
  H   H1321     1.0  0.61955  0.64922  0.70415  1.0000
  H   H1322     1.0  0.35442  0.76664  0.65438  1.0000
  H   H1323     1.0  0.53362  0.94906  0.98513  1.0000
  H   H1324     1.0  0.47016  0.96387  0.51502  1.0000
  H   H1325     1.0  0.37450  0.89560  0.58537  1.0000
  H   H1326     1.0  0.52429  0.80063  0.49252  1.0000
  H   H1327     1.0  0.36294  0.84074  0.58999  1.0000
  H   H1328     1.0  0.49030  0.88103  0.94280  1.0000
  H   H1329     1.0  0.38072  0.86994  0.63029  1.0000
  H   H1330     1.0  0.60287  0.72847  0.73088  1.0000
  C   C760      1.0  0.32217  0.49340  0.52422  1.0000
  C   C761      1.0  0.43858  0.70024  0.52554  1.0000
  C   C762      1.0  0.38145  0.82189  0.67014  1.0000
  C   C763      1.0  0.37415  0.78890  0.62994  1.0000
  C   C764      1.0  0.36686  0.76129  0.64785  1.0000
  C   C765      1.0  0.38091  0.87480  0.57642  1.0000
  H   H1331     1.0  0.57058  0.79632  0.91590  1.0000
  H   H1332     1.0  0.39463  0.83989  0.62287  1.0000
  H   H1333     1.0  0.39390  0.81323  0.66713  1.0000
  H   H1334     1.0  0.38694  0.78305  0.62570  1.0000
  H   H1335     1.0  0.36806  0.78761  0.60926  1.0000
  H   H1336     1.0  0.38192  0.82383  0.58092  1.0000
  H   H1337     1.0  0.37418  0.75715  0.66683  1.0000
  H   H1338     1.0  0.34800  0.81810  0.62960  1.0000
  H   H1339     1.0  0.39000  0.83169  0.72573  1.0000
  H   H1340     1.0  0.39401  0.87936  0.57818  1.0000
  H   H1341     1.0  0.37886  0.72179  0.62722  1.0000
  H   H1342     1.0  0.43135  0.68070  0.51601  1.0000
  H   H1343     1.0  0.57240  0.77127  0.96016  1.0000
  H   H1344     1.0  0.37560  0.80477  0.68482  1.0000
  H   H1345     1.0  0.60230  0.60983  0.73261  1.0000
  H   H1346     1.0  0.63780  0.69509  0.67408  1.0000
  H   H1347     1.0  0.36042  0.71096  0.64438  1.0000
  H   H1348     1.0  0.37780  0.87263  0.55389  1.0000
  H   H1349     1.0  0.61099  0.66221  0.75329  1.0000
  C   C766      1.0  0.35088  0.86607  0.64483  1.0000
  C   C767      1.0  0.49478  0.88584  0.92129  1.0000
  H   H1350     1.0  0.44813  0.95130  0.67799  1.0000
  H   H1351     1.0  0.61964  0.65796  0.65275  1.0000
  H   H1352     1.0  0.47483  0.85988  0.90273  1.0000
  C   C768      1.0  0.58262  0.78811  0.90970  1.0000
  H   H1353     1.0  0.53693  0.95978  0.94101  1.0000
  C   C769      1.0  0.58222  0.75413  0.89680  1.0000
  H   H1354     1.0  0.56763  0.74993  0.68776  1.0000
  H   H1355     1.0  0.61156  0.75069  0.70331  1.0000
  H   H1356     1.0  0.37034  0.85953  0.69523  1.0000
  H   H1357     1.0  0.33171  0.86353  0.67595  1.0000
  H   H1358     1.0  0.32522  0.85708  0.64014  1.0000
  H   H1359     1.0  0.51318  0.88457  0.49510  1.0000
  H   H1360     1.0  0.38668  0.87400  0.67364  1.0000
  H   H1361     1.0  0.58554  0.64744  0.86388  1.0000
  C   C770      1.0  0.47285  0.96779  0.67050  1.0000
  H   H1362     1.0  0.45602  0.93910  0.64434  1.0000
  H   H1363     1.0  0.54462  0.81427  0.49696  1.0000
  H   H1364     1.0  0.40737  0.77230  0.50963  1.0000
  H   H1365     1.0  0.58981  0.83659  0.89862  1.0000
  C   C771      1.0  0.59366  0.62928  0.73680  1.0000
  C   C772      1.0  0.63119  0.70443  0.72407  1.0000
  C   C773      1.0  0.39380  0.85130  0.71142  1.0000
  H   H1366     1.0  0.47126  0.90194  0.90793  1.0000
  H   H1367     1.0  0.58183  0.81360  0.86983  1.0000
  H   H1368     1.0  0.37923  0.67691  0.49298  1.0000
  N   N46       1.0  0.51103  0.80615  0.57753  1.0000
  C   C774      1.0  0.49676  0.78571  0.58593  1.0000
  C   C775      1.0  0.50605  0.84047  0.57303  1.0000
  C   C776      1.0  0.51716  0.79351  0.54981  1.0000
  C   C777      1.0  0.52443  0.80426  0.59856  1.0000
  C   C778      1.0  0.52023  0.81309  0.62924  1.0000
  C   C779      1.0  0.50007  0.74976  0.59104  1.0000
  H   H1369     1.0  0.44781  0.71108  0.56733  1.0000
  C   C780      1.0  0.49263  0.85374  0.59213  1.0000
  C   C781      1.0  0.49073  0.88976  0.58806  1.0000
  H   H1370     1.0  0.60066  0.68998  0.90981  1.0000
  C   C782      1.0  0.48485  0.73197  0.60024  1.0000
  H   H1371     1.0  0.55468  0.85558  0.94127  1.0000
  H   H1372     1.0  0.48729  0.78735  0.56969  1.0000
  H   H1373     1.0  0.49102  0.79471  0.60535  1.0000
  H   H1374     1.0  0.48092  0.89853  0.60168  1.0000
  H   H1375     1.0  0.50134  0.84362  0.55133  1.0000
  H   H1376     1.0  0.50710  0.79129  0.53460  1.0000
  H   H1377     1.0  0.52203  0.76906  0.55218  1.0000
  H   H1378     1.0  0.52969  0.77993  0.59840  1.0000
  H   H1379     1.0  0.53448  0.82052  0.59248  1.0000
  H   H1380     1.0  0.50941  0.80022  0.63692  1.0000
  H   H1381     1.0  0.51837  0.83923  0.63101  1.0000
  H   H1382     1.0  0.50435  0.73785  0.57170  1.0000
  H   H1383     1.0  0.50907  0.74672  0.60783  1.0000
  H   H1384     1.0  0.43896  0.75107  0.53137  1.0000
  H   H1385     1.0  0.44425  0.98042  0.72559  1.0000
  H   H1386     1.0  0.48111  0.84202  0.58642  1.0000
  H   H1387     1.0  0.49471  0.84921  0.61462  1.0000
  H   H1388     1.0  0.53651  0.90622  0.98726  1.0000
  H   H1389     1.0  0.50193  0.90274  0.59379  1.0000
  H   H1390     1.0  0.55675  0.86507  0.90440  1.0000
  H   H1391     1.0  0.50295  0.86639  0.91529  1.0000
  C   C783      1.0  0.41729  0.77385  0.49402  1.0000
  H   H1392     1.0  0.52825  0.89085  0.90467  1.0000
  H   H1393     1.0  0.48761  0.70649  0.60434  1.0000
  H   H1394     1.0  0.47997  0.74254  0.61984  1.0000
  H   H1395     1.0  0.47565  0.73293  0.58354  1.0000
  C   C784      1.0  0.41728  0.83381  0.50268  1.0000
  N   N47       1.0  0.42610  0.74255  0.49269  1.0000
  C   C785      1.0  0.52557  0.95540  0.92963  1.0000
  H   H1396     1.0  0.47188  0.95985  0.88525  1.0000
  H   H1397     1.0  0.43276  0.80094  0.52332  1.0000
  C   C786      1.0  0.46328  0.91072  0.67898  1.0000
  C   C787      1.0  0.50331  0.91898  0.91950  1.0000
  H   H1398     1.0  0.48762  0.89509  0.56594  1.0000
  H   H1399     1.0  0.55136  0.91487  0.95051  1.0000
  H   H1400     1.0  0.58394  0.62816  0.72100  1.0000
  H   H1401     1.0  0.41711  0.68594  0.98151  1.0000
  C   C788      1.0  0.59350  0.65184  0.88213  1.0000
  H   H1402     1.0  0.43640  0.96795  0.56401  1.0000
  N   N48       1.0  0.51852  0.92282  0.93633  1.0000
  C   C789      1.0  0.55823  0.87440  0.92599  1.0000
  H   H1403     1.0  0.59294  0.72948  0.66857  1.0000
  H   H1404     1.0  0.54973  0.69772  0.94385  1.0000
  H   H1405     1.0  0.59359  0.72982  0.94161  1.0000
  H   H1406     1.0  0.59790  0.70127  0.87373  1.0000
  C   C790      1.0  0.62377  0.69375  0.62134  1.0000
  H   H1407     1.0  0.63708  0.52861  0.67852  1.0000
  C   C791      1.0  0.59031  0.72536  0.69107  1.0000
  H   H1408     1.0  0.62584  0.72882  0.66732  1.0000
  H   H1409     1.0  0.60107  0.66262  0.69134  1.0000
  H   H1410     1.0  0.46252  0.95146  0.58156  1.0000
  C   C792      1.0  0.45895  0.94323  0.66671  1.0000
  H   H1411     1.0  0.52895  0.95637  0.90705  1.0000
  C   C793      1.0  0.37610  0.84409  0.59182  1.0000
  H   H1412     1.0  0.52732  0.87421  0.93875  1.0000
  H   H1413     1.0  0.58998  0.58379  0.49723  1.0000
  C   C794      1.0  0.43051  0.73322  0.52216  1.0000
  H   H1414     1.0  0.40619  0.84684  0.70388  1.0000
  H   H1415     1.0  0.60182  0.80601  0.88253  1.0000
  C   C795      1.0  0.60599  0.72704  0.70818  1.0000
  H   H1416     1.0  0.33050  0.89673  0.65210  1.0000
  H   H1417     1.0  0.58404  0.70204  0.69358  1.0000
  H   H1418     1.0  0.57531  0.74773  0.72292  1.0000
  H   H1419     1.0  0.54173  0.81347  0.54820  1.0000
  C   C796      1.0  0.35539  0.83015  0.64603  1.0000
  C   C797      1.0  0.51473  0.98456  0.93548  1.0000
  H   H1420     1.0  0.46615  0.91287  0.70163  1.0000
  H   H1421     1.0  0.45064  0.70051  0.51567  1.0000
  C   C798      1.0  0.36648  0.72974  0.63163  1.0000
  H   H1422     1.0  0.60399  0.68685  0.64944  1.0000
  C   C799      1.0  0.53389  0.80482  0.64907  1.0000
  C   C800      1.0  0.46694  0.98823  0.84833  1.0000
  C   C801      1.0  0.40024  0.70774  0.49639  1.0000
  H   H1423     1.0  0.42894  0.68937  0.56700  1.0000
  H   H1424     1.0  0.41981  0.73382  0.53603  1.0000
  C   C802      1.0  0.60211  0.66192  0.73613  1.0000
  H   H1425     1.0  0.62653  0.70314  0.74586  1.0000
  H   H1426     1.0  0.53069  0.81212  0.67076  1.0000
  C   C803      1.0  0.44077  0.69208  0.55648  1.0000
  H   H1427     1.0  0.48320  0.95788  0.61684  1.0000
  H   H1428     1.0  0.53598  0.77863  0.64903  1.0000
  S   S174      1.0  0.63693  0.52720  0.76276  1.0000
  H   H1429     1.0  0.35987  0.73216  0.61159  1.0000
  C   C804      1.0  0.48181  0.77290  0.49887  1.0000
  H   H1430     1.0  0.54510  0.81760  0.64291  1.0000
  H   H1431     1.0  0.45468  0.98489  0.62366  1.0000
  H   H1432     1.0  0.40360  0.69623  0.51640  1.0000
  H   H1433     1.0  0.62032  0.71866  0.61638  1.0000
  C   C805      1.0  0.62513  0.70333  0.67398  1.0000
  H   H1434     1.0  0.50467  0.98508  0.92034  1.0000
  C   C806      1.0  0.52229  0.98966  0.85273  1.0000
  C   C807      1.0  0.47875  0.98007  0.60711  1.0000
  Fe  Fe82      1.0  0.32571  0.58016  0.49139  1.0000
  H   H1435     1.0  0.57110  0.88042  0.92905  1.0000
  H   H1436     1.0  0.60594  0.64589  0.87582  1.0000
  H   H1437     1.0  0.58829  0.62529  0.75784  1.0000
  H   H1438     1.0  0.43606  0.96733  0.75854  1.0000
  C   C808      1.0  0.59284  0.68686  0.89123  1.0000
  C   C809      1.0  0.61032  0.66792  0.70733  1.0000
  C   C810      1.0  0.51413  0.91933  0.96688  1.0000
  S   S175      1.0  0.63301  0.58949  0.50043  1.0000
  H   H1439     1.0  0.56075  0.73747  0.97100  1.0000
  C   C811      1.0  0.44704  0.97670  0.74803  1.0000
  H   H1440     1.0  0.61888  0.67760  0.60486  1.0000
  H   H1441     1.0  0.47449  0.97072  0.69350  1.0000
  C   C812      1.0  0.48136  0.83906  0.49182  1.0000
  H   H1442     1.0  0.50981  0.89453  0.97119  1.0000
  H   H1443     1.0  0.46240  0.98089  0.79550  1.0000
  H   H1444     1.0  0.48108  0.96208  0.56467  1.0000
  H   H1445     1.0  0.58615  0.63474  0.52170  1.0000
  H   H1446     1.0  0.40715  0.83106  0.51766  1.0000
  H   H1447     1.0  0.45200  0.97161  0.49617  1.0000
  C   C813      1.0  0.46453  0.97994  0.49953  1.0000
  H   H1448     1.0  0.50384  0.93487  0.97223  1.0000
  H   H1449     1.0  0.47620  0.97555  0.83632  1.0000
  H   H1450     1.0  0.56838  0.62371  0.50229  1.0000
  H   H1451     1.0  0.42477  0.85459  0.50941  1.0000
  H   H1452     1.0  0.63703  0.69212  0.62095  1.0000
  C   C814      1.0  0.58112  0.63133  0.50036  1.0000
  C   C815      1.0  0.33114  0.49464  0.49942  1.0000
  C   C816      1.0  0.47154  0.97094  0.57883  1.0000
  S   S176      1.0  0.64081  0.58153  0.57930  1.0000
  C   C817      1.0  0.52760  0.92562  0.98843  1.0000
  H   H1453     1.0  0.59526  0.75301  0.98932  1.0000
  C   C818      1.0  0.47097  0.98546  0.87946  1.0000
  C   C819      1.0  0.64088  0.73635  0.72254  1.0000
  C   C820      1.0  0.88140  0.13117  0.35382  1.0000
  H   H1454     1.0  0.92781  0.19436  0.34632  1.0000
  S   S177      1.0  0.80894  0.30313  0.45249  1.0000
  H   H1455     1.0  0.68066  0.43823  0.44098  1.0000
  H   H1456     1.0  0.90529  0.27109  0.30745  1.0000
  C   C821      1.0  0.97062  0.13877  0.28126  1.0000
  C   C822      1.0  0.69268  0.42747  0.43872  1.0000
  S   S178      1.0  0.84433  0.23784  0.44836  1.0000
  C   C823      1.0  0.96874  0.99830  0.36328  1.0000
  S   S179      1.0  0.70334  0.31887  0.46127  1.0000
  C   C824      1.0  0.92674  0.21999  0.34095  1.0000
  S   S180      1.0  0.84171  0.32598  0.48578  1.0000
  S   S181      1.0  0.65653  0.32586  0.45753  1.0000
  H   H1457     1.0  0.94508  0.01624  0.32562  1.0000
  Fe  Fe83      1.0  0.93069  0.15102  0.40434  1.0000
  S   S182      1.0  0.95594  0.16490  0.39142  1.0000
  S   S183      1.0  0.91655  0.19263  0.42443  1.0000
  Fe  Fe84      1.0  0.93588  0.08199  0.38439  1.0000
  S   S184      1.0  0.96124  0.09138  0.37050  1.0000
  S   S185      1.0  0.92401  0.03439  0.37312  1.0000
  Fe  Fe85      1.0  0.96348  0.11882  0.41105  1.0000
  H   H1458     1.0  0.65334  0.46095  0.43247  1.0000
  Fe  Fe86      1.0  0.95206  0.13649  0.35175  1.0000
  H   H1459     1.0  0.71732  0.47943  0.47439  1.0000
  S   S186      1.0  0.93867  0.10608  0.42655  1.0000
  S   S187      1.0  0.92628  0.12595  0.36306  1.0000
  H   H1460     1.0  0.95256  0.22549  0.34304  1.0000
  C   C825      1.0  0.89444  0.25738  0.26869  1.0000
  H   H1461     1.0  0.71792  0.46970  0.43812  1.0000
  C   C826      1.0  0.65074  0.48899  0.47010  1.0000
  C   C827      1.0  0.69018  0.39118  0.43336  1.0000
  H   H1462     1.0  0.73530  0.33620  0.44443  1.0000
  H   H1463     1.0  0.87474  0.16865  0.32588  1.0000
  H   H1464     1.0  0.89355  0.16595  0.48571  1.0000
  H   H1465     1.0  0.90526  0.24506  0.26069  1.0000
  C   C828      1.0  0.89365  0.22363  0.31269  1.0000
  H   H1466     1.0  0.95417  0.99697  0.03653  1.0000
  H   H1467     1.0  0.65517  0.19803  0.46151  1.0000
  C   C829      1.0  0.71735  0.41509  0.46516  1.0000
  C   C830      1.0  0.86457  0.22560  0.44266  1.0000
  C   C831      1.0  0.86748  0.19414  0.43341  1.0000
  C   C832      1.0  0.88321  0.18348  0.42793  1.0000
  C   C833      1.0  0.89635  0.20420  0.43154  1.0000
  C   C834      1.0  0.89344  0.23563  0.44086  1.0000
  C   C835      1.0  0.87771  0.24632  0.44622  1.0000
  H   H1468     1.0  0.85746  0.17785  0.43042  1.0000
  H   H1469     1.0  0.88516  0.15920  0.42099  1.0000
  H   H1470     1.0  0.90344  0.25202  0.44358  1.0000
  H   H1471     1.0  0.88189  0.21352  0.30604  1.0000
  H   H1472     1.0  0.66593  0.39438  0.41675  1.0000
  H   H1473     1.0  0.94191  0.01875  0.06090  1.0000
  H   H1474     1.0  0.97032  0.02436  0.07311  1.0000
  C   C836      1.0  0.94994  0.99792  0.05861  1.0000
  H   H1475     1.0  0.94186  0.26252  0.34636  1.0000
  H   H1476     1.0  0.88355  0.24496  0.26059  1.0000
  C   C837      1.0  0.81991  0.43180  0.47194  1.0000
  H   H1477     1.0  0.88597  0.12774  0.37543  1.0000
  H   H1478     1.0  0.81213  0.46388  0.43960  1.0000
  C   C838      1.0  0.70983  0.47043  0.45676  1.0000
  H   H1479     1.0  0.72400  0.41463  0.44485  1.0000
  H   H1480     1.0  0.87574  0.27080  0.45249  1.0000
  H   H1481     1.0  0.73658  0.44505  0.48325  1.0000
  H   H1482     1.0  0.74799  0.39129  0.47187  1.0000
  S   S188      1.0  0.81707  0.39720  0.45098  1.0000
  H   H1483     1.0  0.95910  0.00348  0.10011  1.0000
  H   H1484     1.0  0.87047  0.23217  0.34754  1.0000
  N   N49       1.0  0.70328  0.43730  0.46302  1.0000
  C   C839      1.0  0.93654  0.99506  0.41395  1.0000
  C   C840      1.0  0.72966  0.42303  0.48855  1.0000
  H   H1485     1.0  0.88985  0.12008  0.33873  1.0000
  H   H1486     1.0  0.89209  0.27360  0.38568  1.0000
  H   H1487     1.0  0.96744  0.09055  0.29603  1.0000
  C   C841      1.0  0.65113  0.46025  0.45481  1.0000
  C   C842      1.0  0.94175  0.23683  0.35217  1.0000
  H   H1488     1.0  0.92684  0.22246  0.31782  1.0000
  H   H1489     1.0  0.95314  0.99657  0.29524  1.0000
  C   C843      1.0  0.86751  0.28476  0.37767  1.0000
  Fe  Fe87      1.0  0.67854  0.30669  0.47912  1.0000
  H   H1490     1.0  0.87030  0.17599  0.36223  1.0000
  H   H1491     1.0  0.90268  0.20900  0.30142  1.0000
  Fe  Fe88      1.0  0.83109  0.27948  0.47017  1.0000
  H   H1492     1.0  0.86240  0.27032  0.39512  1.0000
  H   H1493     1.0  0.86926  0.30969  0.38523  1.0000
  H   H1494     1.0  0.70155  0.38029  0.42613  1.0000
  H   H1495     1.0  0.96233  0.02048  0.36901  1.0000
  H   H1496     1.0  0.67653  0.35886  0.40681  1.0000
  C   C844      1.0  0.73631  0.31993  0.46190  1.0000
  C   C845      1.0  0.96410  0.00166  0.07864  1.0000
  H   H1497     1.0  0.96398  0.03764  0.41176  1.0000
  H   H1498     1.0  0.76227  0.32130  0.46167  1.0000
  C   C846      1.0  0.87945  0.16673  0.34748  1.0000
  H   H1499     1.0  0.94234  0.23458  0.37535  1.0000
  C   C847      1.0  0.97360  0.03019  0.45268  1.0000
  H   H1500     1.0  0.96435  0.12814  0.47792  1.0000
  H   H1501     1.0  0.96475  0.12784  0.02828  1.0000
  H   H1502     1.0  0.88805  0.28638  0.35067  1.0000
  C   C848      1.0  0.92921  0.99710  0.38776  1.0000
  N   N50       1.0  0.89563  0.22038  0.34396  1.0000
  H   H1503     1.0  0.85882  0.28492  0.36011  1.0000
  H   H1504     1.0  0.68611  0.37855  0.45241  1.0000
  Fe  Fe89      1.0  0.81882  0.34870  0.47179  1.0000
  C   C849      1.0  0.81657  0.46207  0.46079  1.0000
  C   C850      1.0  0.89567  0.18504  0.35066  1.0000
  H   H1505     1.0  0.64893  0.40856  0.45629  1.0000
  H   H1506     1.0  0.89460  0.28226  0.26058  1.0000
  C   C851      1.0  0.91137  0.23444  0.35393  1.0000
  H   H1507     1.0  0.69763  0.43707  0.41865  1.0000
  H   H1508     1.0  0.93848  0.01651  0.42622  1.0000
  C   C852      1.0  0.64904  0.17455  0.46429  1.0000
  Fe  Fe90      1.0  0.64387  0.27932  0.46946  1.0000
  H   H1509     1.0  0.86964  0.11865  0.35205  1.0000
  H   H1510     1.0  0.89979  0.18121  0.37254  1.0000
  H   H1511     1.0  0.87971  0.22300  0.37987  1.0000
  C   C853      1.0  0.67779  0.38503  0.41042  1.0000
  H   H1512     1.0  0.71336  0.38994  0.46837  1.0000
  C   C854      1.0  0.89436  0.25794  0.30072  1.0000
  H   H1513     1.0  0.68257  0.45274  0.48674  1.0000
  H   H1514     1.0  0.91211  0.26054  0.35024  1.0000
  C   C855      1.0  0.64867  0.43055  0.46822  1.0000
  H   H1515     1.0  0.96886  0.05343  0.46014  1.0000
  H   H1516     1.0  0.68162  0.39647  0.39048  1.0000
  S   S189      1.0  0.96048  0.15777  0.30980  1.0000
  H   H1517     1.0  0.90436  0.17237  0.33699  1.0000
  C   C856      1.0  0.88353  0.27122  0.36797  1.0000
  H   H1518     1.0  0.91223  0.23187  0.37709  1.0000
  H   H1519     1.0  0.88358  0.27126  0.30736  1.0000
  C   C857      1.0  0.88180  0.23544  0.35955  1.0000
  C   C858      1.0  0.95241  0.99577  0.31846  1.0000
  C   C859      1.0  0.72232  0.30738  0.47447  1.0000
  C   C860      1.0  0.96921  0.99789  0.33088  1.0000
  H   H1520     1.0  0.96498  0.01102  0.45884  1.0000
  H   H1521     1.0  0.65735  0.15547  0.45759  1.0000
  C   C861      1.0  0.75164  0.31152  0.47163  1.0000
  C   C862      1.0  0.97223  0.10551  0.27948  1.0000
  C   C863      1.0  0.81903  0.49003  0.47684  1.0000
  S   S190      1.0  0.66671  0.25901  0.48731  1.0000
  H   H1522     1.0  0.68934  0.49043  0.43341  1.0000
  H   H1523     1.0  0.97470  0.02047  0.32302  1.0000
  Fe  Fe91      1.0  0.94172  0.07381  0.87132  1.0000
  S   S191      1.0  0.93157  0.02663  0.88822  1.0000
  Fe  Fe92      1.0  0.93569  0.14384  0.85342  1.0000
  S   S192      1.0  0.96257  0.15365  0.85180  1.0000
  S   S193      1.0  0.91960  0.18580  0.83815  1.0000
  Fe  Fe93      1.0  0.96431  0.10659  0.82901  1.0000
  Fe  Fe94      1.0  0.96462  0.12590  0.89274  1.0000
  H   H1524     1.0  0.82188  0.13290  0.87175  1.0000
  S   S194      1.0  0.93759  0.09736  0.82966  1.0000
  S   S195      1.0  0.93777  0.11950  0.89592  1.0000
  Fe  Fe95      1.0  0.82807  0.31586  0.52555  1.0000
  S   S196      1.0  0.84013  0.32666  0.56701  1.0000
  S   S197      1.0  0.80605  0.34208  0.51265  1.0000
  H   H1525     1.0  0.79919  0.38768  0.74183  1.0000
  Fe  Fe96      1.0  0.83366  0.26934  0.77583  1.0000
  S   S198      1.0  0.84179  0.29492  0.73658  1.0000
  S   S199      1.0  0.84923  0.23113  0.79851  1.0000
  Fe  Fe97      1.0  0.79857  0.29651  0.77003  1.0000
  S   S200      1.0  0.80533  0.32270  0.73083  1.0000
  S   S201      1.0  0.77301  0.30842  0.78539  1.0000
  Fe  Fe98      1.0  0.81832  0.27866  0.71820  1.0000
  S   S202      1.0  0.81371  0.25663  0.67556  1.0000
  Fe  Fe99      1.0  0.82792  0.33734  0.75299  1.0000
  S   S203      1.0  0.83601  0.38884  0.74398  1.0000
  S   S204      1.0  0.81048  0.25096  0.75625  1.0000
  S   S205      1.0  0.82092  0.31308  0.79344  1.0000
  S   S206      1.0  0.67213  0.32665  0.52119  1.0000
  Fe  Fe100     1.0  0.65868  0.28073  0.52801  1.0000
  H   H1526     1.0  0.85689  0.30174  0.83360  1.0000
  Fe  Fe101     1.0  0.67665  0.28376  0.76140  1.0000
  S   S207      1.0  0.67486  0.33134  0.74056  1.0000
  S   S208      1.0  0.70128  0.25986  0.75693  1.0000
  C   C864      1.0  0.75315  0.28994  0.49378  1.0000
  C   C865      1.0  0.94798  0.18443  0.72262  1.0000
  H   H1527     1.0  0.86016  0.32126  0.86711  1.0000
  S   S209      1.0  0.66278  0.29872  0.80006  1.0000
  S   S210      1.0  0.65423  0.26333  0.74032  1.0000
  H   H1528     1.0  0.68466  0.16884  0.69224  1.0000
  H   H1529     1.0  0.66861  0.41455  0.85847  1.0000
  H   H1530     1.0  0.75853  0.24730  0.68187  1.0000
  H   H1531     1.0  0.79011  0.42818  0.69087  1.0000
  H   H1532     1.0  0.90989  0.20816  0.90502  1.0000
  C   C866      1.0  0.65629  0.27347  0.59879  1.0000
  C   C867      1.0  0.65067  0.48847  0.69453  1.0000
  H   H1533     1.0  0.69744  0.42708  0.72385  1.0000
  H   H1534     1.0  0.86719  0.23920  0.94674  1.0000
  C   C868      1.0  0.89792  0.19624  0.90512  1.0000
  H   H1535     1.0  0.88003  0.47854  0.78672  1.0000
  C   C869      1.0  0.83266  0.42454  0.76330  1.0000
  C   C870      1.0  0.83300  0.45394  0.74903  1.0000
  S   S211      1.0  0.64599  0.33020  0.67882  1.0000
  C   C871      1.0  0.78778  0.40184  0.82499  1.0000
  C   C872      1.0  0.83008  0.42455  0.79229  1.0000
  H   H1536     1.0  0.83526  0.45431  0.72670  1.0000
  H   H1537     1.0  0.83011  0.40219  0.80363  1.0000
  C   C873      1.0  0.75324  0.29558  0.77534  1.0000
  C   C874      1.0  0.73994  0.31284  0.78519  1.0000
  C   C875      1.0  0.72405  0.30297  0.77902  1.0000
  C   C876      1.0  0.72113  0.27510  0.76341  1.0000
  C   C877      1.0  0.73443  0.25800  0.75329  1.0000
  C   C878      1.0  0.75034  0.26832  0.75889  1.0000
  H   H1538     1.0  0.74193  0.33372  0.79817  1.0000
  H   H1539     1.0  0.71405  0.31635  0.78719  1.0000
  H   H1540     1.0  0.73244  0.23622  0.74150  1.0000
  H   H1541     1.0  0.76034  0.25454  0.75132  1.0000
  H   H1542     1.0  0.77957  0.39017  0.72677  1.0000
  H   H1543     1.0  0.90379  0.14233  0.51135  1.0000
  C   C879      1.0  0.83284  0.30695  0.59708  1.0000
  C   C880      1.0  0.83578  0.32021  0.62362  1.0000
  C   C881      1.0  0.82991  0.30507  0.64791  1.0000
  C   C882      1.0  0.82128  0.27633  0.64571  1.0000
  C   C883      1.0  0.81849  0.26292  0.61918  1.0000
  C   C884      1.0  0.82422  0.27822  0.59491  1.0000
  H   H1544     1.0  0.84256  0.34230  0.62544  1.0000
  H   H1545     1.0  0.83217  0.31547  0.66833  1.0000
  H   H1546     1.0  0.81193  0.24054  0.61746  1.0000
  H   H1547     1.0  0.82207  0.26768  0.57456  1.0000
  H   H1548     1.0  0.67364  0.43136  0.53496  1.0000
  H   H1549     1.0  0.94692  0.22554  0.76666  1.0000
  C   C885      1.0  0.90016  0.19715  0.82527  1.0000
  C   C886      1.0  0.89773  0.22894  0.81644  1.0000
  C   C887      1.0  0.88255  0.23943  0.80701  1.0000
  C   C888      1.0  0.86933  0.21839  0.80651  1.0000
  C   C889      1.0  0.87182  0.18653  0.81512  1.0000
  C   C890      1.0  0.88704  0.17595  0.82418  1.0000
  H   H1550     1.0  0.90765  0.24578  0.81716  1.0000
  H   H1551     1.0  0.88100  0.26405  0.80080  1.0000
  H   H1552     1.0  0.86181  0.16985  0.81498  1.0000
  H   H1553     1.0  0.88853  0.15144  0.83079  1.0000
  C   C891      1.0  0.85925  0.44163  0.60370  1.0000
  C   C892      1.0  0.65687  0.41549  0.64688  1.0000
  S   S212      1.0  0.81854  0.26838  0.51112  1.0000
  C   C893      1.0  0.92321  0.18417  0.75098  1.0000
  H   H1554     1.0  0.79343  0.46403  0.79867  1.0000
  C   C894      1.0  0.65501  0.27587  0.64986  1.0000
  H   H1555     1.0  0.87019  0.19010  0.57062  1.0000
  H   H1556     1.0  0.66218  0.38452  0.59604  1.0000
  C   C895      1.0  0.68320  0.41317  0.53412  1.0000
  H   H1557     1.0  0.67834  0.39068  0.54322  1.0000
  H   H1558     1.0  0.80064  0.40100  0.78669  1.0000
  C   C896      1.0  0.68420  0.42557  0.72560  1.0000
  N   N51       1.0  0.77585  0.33485  0.59626  1.0000
  C   C897      1.0  0.75791  0.33735  0.59286  1.0000
  C   C898      1.0  0.78052  0.33694  0.62691  1.0000
  C   C899      1.0  0.78340  0.36310  0.58123  1.0000
  C   C900      1.0  0.78217  0.30467  0.58315  1.0000
  C   C901      1.0  0.77585  0.27288  0.59577  1.0000
  C   C902      1.0  0.75138  0.33412  0.56252  1.0000
  C   C903      1.0  0.80180  0.36753  0.58475  1.0000
  C   C904      1.0  0.76851  0.32301  0.64877  1.0000
  C   C905      1.0  0.77608  0.32087  0.67778  1.0000
  C   C906      1.0  0.78088  0.24413  0.57815  1.0000
  C   C907      1.0  0.73325  0.33883  0.56178  1.0000
  C   C908      1.0  0.80768  0.39880  0.57146  1.0000
  H   H1559     1.0  0.75379  0.36057  0.60164  1.0000
  H   H1560     1.0  0.75145  0.31869  0.60501  1.0000
  H   H1561     1.0  0.79236  0.32541  0.63026  1.0000
  H   H1562     1.0  0.78230  0.36237  0.63342  1.0000
  H   H1563     1.0  0.77766  0.38572  0.58814  1.0000
  H   H1564     1.0  0.78142  0.36131  0.55825  1.0000
  H   H1565     1.0  0.78013  0.30453  0.56015  1.0000
  H   H1566     1.0  0.79536  0.30382  0.58522  1.0000
  H   H1567     1.0  0.76261  0.27225  0.59711  1.0000
  H   H1568     1.0  0.78101  0.26966  0.61699  1.0000
  H   H1569     1.0  0.75679  0.35199  0.54813  1.0000
  H   H1570     1.0  0.75376  0.30987  0.55418  1.0000
  H   H1571     1.0  0.80810  0.34783  0.57411  1.0000
  H   H1572     1.0  0.80555  0.36784  0.60701  1.0000
  H   H1573     1.0  0.75793  0.33876  0.65050  1.0000
  H   H1574     1.0  0.76423  0.29881  0.64304  1.0000
  H   H1575     1.0  0.78034  0.34477  0.68492  1.0000
  H   H1576     1.0  0.76715  0.31163  0.69316  1.0000
  H   H1577     1.0  0.78633  0.30419  0.67733  1.0000
  H   H1578     1.0  0.79393  0.24482  0.57374  1.0000
  H   H1579     1.0  0.77798  0.22167  0.58956  1.0000
  H   H1580     1.0  0.77431  0.24369  0.55800  1.0000
  H   H1581     1.0  0.73014  0.36314  0.56928  1.0000
  H   H1582     1.0  0.72891  0.33613  0.53992  1.0000
  H   H1583     1.0  0.72702  0.32063  0.57489  1.0000
  H   H1584     1.0  0.80382  0.40046  0.54927  1.0000
  H   H1585     1.0  0.80304  0.41966  0.58322  1.0000
  H   H1586     1.0  0.82098  0.39966  0.57180  1.0000
  N   N52       1.0  0.70857  0.25240  0.66658  1.0000
  C   C909      1.0  0.72643  0.25615  0.67072  1.0000
  C   C910      1.0  0.70051  0.28267  0.67627  1.0000
  C   C911      1.0  0.70288  0.22549  0.68543  1.0000
  C   C912      1.0  0.70396  0.24441  0.63669  1.0000
  C   C913      1.0  0.71494  0.25782  0.61298  1.0000
  C   C914      1.0  0.73618  0.22495  0.66770  1.0000
  C   C915      1.0  0.68450  0.22085  0.68822  1.0000
  C   C916      1.0  0.70476  0.31358  0.66000  1.0000
  C   C917      1.0  0.69701  0.34268  0.67364  1.0000
  H   H1587     1.0  0.66000  0.47441  0.65466  1.0000
  C   C918      1.0  0.75409  0.23194  0.66443  1.0000
  C   C919      1.0  0.94085  0.06232  0.96442  1.0000
  H   H1588     1.0  0.72895  0.26576  0.69212  1.0000
  H   H1589     1.0  0.73166  0.27424  0.65634  1.0000
  H   H1590     1.0  0.68729  0.28040  0.67446  1.0000
  H   H1591     1.0  0.70301  0.28686  0.69896  1.0000
  H   H1592     1.0  0.70774  0.22873  0.70695  1.0000
  H   H1593     1.0  0.70763  0.20222  0.67797  1.0000
  H   H1594     1.0  0.70350  0.21804  0.63330  1.0000
  H   H1595     1.0  0.69151  0.25237  0.63253  1.0000
  H   H1596     1.0  0.72635  0.24451  0.61228  1.0000
  H   H1597     1.0  0.71799  0.28338  0.61594  1.0000
  H   H1598     1.0  0.73462  0.21012  0.68685  1.0000
  H   H1599     1.0  0.73210  0.21057  0.64945  1.0000
  H   H1600     1.0  0.67873  0.21987  0.66733  1.0000
  H   H1601     1.0  0.67930  0.24072  0.70055  1.0000
  H   H1602     1.0  0.71785  0.31817  0.65936  1.0000
  H   H1603     1.0  0.69999  0.31194  0.63836  1.0000
  H   H1604     1.0  0.70154  0.34614  0.69532  1.0000
  H   H1605     1.0  0.69996  0.36443  0.66127  1.0000
  H   H1606     1.0  0.68376  0.33969  0.67426  1.0000
  H   H1607     1.0  0.89124  0.32213  0.53194  1.0000
  H   H1608     1.0  0.91728  0.16946  0.73446  1.0000
  H   H1609     1.0  0.86875  0.45229  0.61701  1.0000
  C   C920      1.0  0.79472  0.37116  0.83699  1.0000
  H   H1610     1.0  0.93947  0.14122  0.78306  1.0000
  H   H1611     1.0  0.96176  0.17817  0.66948  1.0000
  H   H1612     1.0  0.93883  0.18012  0.70606  1.0000
  H   H1613     1.0  0.65382  0.43292  0.71684  1.0000
  N   N53       1.0  0.64922  0.43117  0.67210  1.0000
  H   H1614     1.0  0.68004  0.44635  0.73809  1.0000
  C   C921      1.0  0.85867  0.40564  0.60924  1.0000
  H   H1615     1.0  0.89307  0.20957  0.75535  1.0000
  H   H1616     1.0  0.71533  0.26252  0.56759  1.0000
  H   H1617     1.0  0.83815  0.44810  0.62973  1.0000
  C   C922      1.0  0.78058  0.45862  0.79415  1.0000
  H   H1618     1.0  0.79482  0.37251  0.86022  1.0000
  H   H1619     1.0  0.88352  0.22146  0.57976  1.0000
  H   H1620     1.0  0.93412  0.03926  0.96532  1.0000
  H   H1621     1.0  0.65144  0.41182  0.57412  1.0000
  H   H1622     1.0  0.97359  0.20178  0.76022  1.0000
  Fe  Fe102     1.0  0.64967  0.34357  0.50042  1.0000
  Fe  Fe103     1.0  0.65200  0.31262  0.72222  1.0000
  N   N54       1.0  0.85394  0.22518  0.89129  1.0000
  C   C923      1.0  0.85850  0.25523  0.87549  1.0000
  C   C924      1.0  0.86839  0.20389  0.89461  1.0000
  C   C925      1.0  0.84164  0.20723  0.87397  1.0000
  C   C926      1.0  0.84646  0.23255  0.91932  1.0000
  C   C927      1.0  0.85667  0.25295  0.93977  1.0000
  C   C928      1.0  0.84477  0.27864  0.86881  1.0000
  C   C929      1.0  0.83658  0.17351  0.88469  1.0000
  H   H1623     1.0  0.69598  0.26892  0.58329  1.0000
  H   H1624     1.0  0.77565  0.40481  0.83389  1.0000
  H   H1625     1.0  0.85563  0.40076  0.63152  1.0000
  C   C930      1.0  0.85123  0.30844  0.85388  1.0000
  C   C931      1.0  0.82550  0.15681  0.86366  1.0000
  H   H1626     1.0  0.86413  0.24867  0.85522  1.0000
  H   H1627     1.0  0.86783  0.26928  0.88667  1.0000
  C   C932      1.0  0.96636  0.19629  0.77913  1.0000
  H   H1628     1.0  0.86966  0.18790  0.87602  1.0000
  H   H1629     1.0  0.84613  0.20430  0.85217  1.0000
  H   H1630     1.0  0.83037  0.22094  0.87229  1.0000
  H   H1631     1.0  0.83472  0.24440  0.91646  1.0000
  H   H1632     1.0  0.84359  0.21001  0.93070  1.0000
  H   H1633     1.0  0.86073  0.27574  0.93014  1.0000
  H   H1634     1.0  0.86996  0.32958  0.53019  1.0000
  H   H1635     1.0  0.83583  0.26748  0.85454  1.0000
  H   H1636     1.0  0.83865  0.28653  0.88824  1.0000
  H   H1637     1.0  0.82997  0.17532  0.90482  1.0000
  H   H1638     1.0  0.87054  0.39512  0.60465  1.0000
  H   H1639     1.0  0.88864  0.23117  0.87694  1.0000
  H   H1640     1.0  0.72368  0.42649  0.50907  1.0000
  C   C933      1.0  0.65826  0.43032  0.78724  1.0000
  H   H1641     1.0  0.88756  0.27326  0.50300  1.0000
  C   C934      1.0  0.87154  0.21648  0.57031  1.0000
  H   H1642     1.0  0.67992  0.44902  0.68631  1.0000
  H   H1643     1.0  0.66136  0.41327  0.89428  1.0000
  H   H1644     1.0  0.83022  0.19900  0.49463  1.0000
  H   H1645     1.0  0.84123  0.32493  0.84943  1.0000
  H   H1646     1.0  0.65538  0.16904  0.50756  1.0000
  H   H1647     1.0  0.75651  0.24383  0.64410  1.0000
  H   H1648     1.0  0.69347  0.42137  0.54709  1.0000
  S   S213      1.0  0.66029  0.25184  0.56792  1.0000
  H   H1649     1.0  0.81453  0.17104  0.86026  1.0000
  H   H1650     1.0  0.65810  0.38927  0.65042  1.0000
  C   C935      1.0  0.82770  0.45362  0.80672  1.0000
  H   H1651     1.0  0.84294  0.23942  0.97702  1.0000
  H   H1652     1.0  0.68566  0.19050  0.72519  1.0000
  H   H1653     1.0  0.92517  0.23007  0.72822  1.0000
  C   C936      1.0  0.67671  0.42596  0.69644  1.0000
  H   H1654     1.0  0.95127  0.21022  0.72057  1.0000
  H   H1655     1.0  0.93328  0.08001  0.95351  1.0000
  S   S214      1.0  0.77213  0.27785  0.50664  1.0000
  H   H1656     1.0  0.88156  0.21717  0.50051  1.0000
  C   C937      1.0  0.64808  0.32208  0.62226  1.0000
  C   C938      1.0  0.88509  0.22039  0.89733  1.0000
  N   N55       1.0  0.77927  0.42795  0.77745  1.0000
  C   C939      1.0  0.94316  0.14382  0.76074  1.0000
  H   H1657     1.0  0.82586  0.45341  0.82916  1.0000
  H   H1658     1.0  0.85825  0.18829  0.61861  1.0000
  H   H1659     1.0  0.68217  0.40644  0.68398  1.0000
  Fe  Fe104     1.0  0.79732  0.29551  0.49465  1.0000
  H   H1660     1.0  0.76079  0.20917  0.66478  1.0000
  C   C940      1.0  0.65800  0.25872  0.62500  1.0000
  H   H1661     1.0  0.85988  0.25583  0.59354  1.0000
  H   H1662     1.0  0.78735  0.35008  0.83066  1.0000
  C   C941      1.0  0.68029  0.19005  0.70390  1.0000
  C   C942      1.0  0.86007  0.21461  0.61976  1.0000
  C   C943      1.0  0.84270  0.45698  0.60916  1.0000
  C   C944      1.0  0.87411  0.26511  0.54260  1.0000
  Fe  Fe105     1.0  0.65996  0.34562  0.77740  1.0000
  H   H1663     1.0  0.96029  0.01442  0.97041  1.0000
  C   C945      1.0  0.65829  0.42076  0.69776  1.0000
  C   C946      1.0  0.66652  0.45886  0.79370  1.0000
  C   C947      1.0  0.65905  0.42274  0.87298  1.0000
  C   C948      1.0  0.95652  0.05831  0.94827  1.0000
  H   H1664     1.0  0.89690  0.24686  0.73759  1.0000
  C   C949      1.0  0.84944  0.18874  0.52402  1.0000
  H   H1665     1.0  0.87851  0.16370  0.53058  1.0000
  C   C950      1.0  0.89998  0.16693  0.50603  1.0000
  C   C951      1.0  0.96277  0.16451  0.71358  1.0000
  S   S215      1.0  0.64150  0.39288  0.51463  1.0000
  C   C952      1.0  0.85863  0.22959  0.59072  1.0000
  C   C953      1.0  0.68853  0.40738  0.50387  1.0000
  H   H1666     1.0  0.66237  0.48567  0.70513  1.0000
  C   C954      1.0  0.74170  0.39610  0.49198  1.0000
  C   C955      1.0  0.64536  0.42944  0.49695  1.0000
  H   H1667     1.0  0.82402  0.19739  0.53101  1.0000
  H   H1668     1.0  0.78298  0.37742  0.78539  1.0000
  H   H1669     1.0  0.64200  0.45767  0.53430  1.0000
  H   H1670     1.0  0.95916  0.13937  0.70919  1.0000
  H   H1671     1.0  0.78051  0.45031  0.73647  1.0000
  H   H1672     1.0  0.89585  0.22881  0.52618  1.0000
  C   C956      1.0  0.64799  0.41985  0.61861  1.0000
  C   C957      1.0  0.79074  0.40379  0.73125  1.0000
  C   C958      1.0  0.66027  0.48875  0.78606  1.0000
  C   C959      1.0  0.72382  0.28618  0.49692  1.0000
  C   C960      1.0  0.65134  0.30520  0.59749  1.0000
  H   H1673     1.0  0.88463  0.27040  0.55627  1.0000
  H   H1674     1.0  0.93333  0.12429  0.72107  1.0000
  H   H1675     1.0  0.70058  0.45357  0.50580  1.0000
  H   H1676     1.0  0.67790  0.45789  0.80444  1.0000
  H   H1677     1.0  0.83173  0.15352  0.84325  1.0000
  C   C961      1.0  0.88024  0.31843  0.51925  1.0000
  H   H1678     1.0  0.65623  0.26443  0.67002  1.0000
  H   H1679     1.0  0.94434  0.00657  0.83401  1.0000
  H   H1680     1.0  0.72629  0.40159  0.80696  1.0000
  C   C962      1.0  0.81085  0.48909  0.61498  1.0000
  H   H1681     1.0  0.86373  0.27716  0.55253  1.0000
  H   H1682     1.0  0.65006  0.16534  0.60386  1.0000
  H   H1683     1.0  0.94325  0.07114  0.98600  1.0000
  C   C963      1.0  0.78775  0.40112  0.79243  1.0000
  S   S216      1.0  0.66641  0.39332  0.79754  1.0000
  H   H1684     1.0  0.83653  0.27606  0.96049  1.0000
  H   H1685     1.0  0.85074  0.22462  0.63384  1.0000
  C   C964      1.0  0.97240  0.13053  0.98494  1.0000
  C   C965      1.0  0.75119  0.41248  0.79719  1.0000
  H   H1686     1.0  0.81157  0.46309  0.61925  1.0000
  H   H1687     1.0  0.96895  0.17184  0.78662  1.0000
  H   H1688     1.0  0.91758  0.17660  0.77121  1.0000
  C   C966      1.0  0.76209  0.41869  0.77148  1.0000
  H   H1689     1.0  0.84569  0.23755  0.53833  1.0000
  H   H1690     1.0  0.85042  0.17535  0.54391  1.0000
  H   H1691     1.0  0.86670  0.18756  0.91282  1.0000
  H   H1692     1.0  0.84966  0.39369  0.59553  1.0000
  H   H1693     1.0  0.80979  0.42633  0.70664  1.0000
  H   H1694     1.0  0.97210  0.16388  0.72986  1.0000
  H   H1695     1.0  0.89563  0.18635  0.92635  1.0000
  H   H1696     1.0  0.97070  0.24476  0.79462  1.0000
  H   H1697     1.0  0.83309  0.45568  0.53621  1.0000
  H   H1698     1.0  0.85474  0.27556  0.98061  1.0000
  C   C967      1.0  0.91826  0.21929  0.74579  1.0000
  H   H1699     1.0  0.87199  0.22009  0.62897  1.0000
  C   C968      1.0  0.97051  0.17785  0.68694  1.0000
  H   H1700     1.0  0.72901  0.42888  0.77814  1.0000
  C   C969      1.0  0.70698  0.25425  0.58431  1.0000
  H   H1701     1.0  0.95594  0.13714  0.76053  1.0000
  H   H1702     1.0  0.83472  0.44566  0.59319  1.0000
  H   H1703     1.0  0.96032  0.13022  0.97681  1.0000
  C   C970      1.0  0.65840  0.40976  0.59382  1.0000
  C   C971      1.0  0.87705  0.28277  0.51441  1.0000
  H   H1704     1.0  0.79938  0.44578  0.75311  1.0000
  H   H1705     1.0  0.96218  0.08229  0.94650  1.0000
  H   H1706     1.0  0.89565  0.17849  0.54923  1.0000
  H   H1707     1.0  0.74018  0.26054  0.52340  1.0000
  C   C972      1.0  0.88905  0.17985  0.52909  1.0000
  H   H1708     1.0  0.88525  0.23960  0.91327  1.0000
  H   H1709     1.0  0.86200  0.47814  0.65575  1.0000
  H   H1710     1.0  0.75635  0.43689  0.75801  1.0000
  H   H1711     1.0  0.86276  0.44496  0.58138  1.0000
  H   H1712     1.0  0.73279  0.38659  0.77348  1.0000
  H   H1713     1.0  0.64458  0.44513  0.61535  1.0000
  C   C973      1.0  0.79834  0.41310  0.70321  1.0000
  H   H1714     1.0  0.93298  0.06730  0.73538  1.0000
  H   H1715     1.0  0.92099  0.11739  0.75138  1.0000
  C   C974      1.0  0.77354  0.48890  0.78035  1.0000
  H   H1716     1.0  0.96719  0.12952  0.52971  1.0000
  H   H1717     1.0  0.64982  0.31665  0.57737  1.0000
  H   H1718     1.0  0.94181  0.19753  0.79333  1.0000
  H   H1719     1.0  0.77477  0.45624  0.81497  1.0000
  H   H1720     1.0  0.80721  0.36794  0.82953  1.0000
  C   C975      1.0  0.83033  0.48292  0.76334  1.0000
  C   C976      1.0  0.85511  0.22392  0.52714  1.0000
  H   H1721     1.0  0.70371  0.22886  0.58011  1.0000
  H   H1722     1.0  0.65084  0.31257  0.86254  1.0000
  H   H1723     1.0  0.65611  0.39479  0.70182  1.0000
  N   N56       1.0  0.87118  0.22938  0.54077  1.0000
  H   H1724     1.0  0.66708  0.18787  0.70622  1.0000
  H   H1725     1.0  0.65086  0.36727  0.84462  1.0000
  H   H1726     1.0  0.75499  0.39042  0.80806  1.0000
  C   C977      1.0  0.73915  0.27738  0.50636  1.0000
  H   H1727     1.0  0.89787  0.20975  0.71838  1.0000
  C   C978      1.0  0.82832  0.45761  0.51528  1.0000
  H   H1728     1.0  0.80104  0.39117  0.69099  1.0000
  C   C979      1.0  0.73378  0.40709  0.78826  1.0000
  H   H1729     1.0  0.94096  0.07793  0.76922  1.0000
  C   C980      1.0  0.94054  0.08497  0.74682  1.0000
  H   H1730     1.0  0.84641  0.22398  0.58298  1.0000
  H   H1731     1.0  0.76156  0.39617  0.75908  1.0000
  H   H1732     1.0  0.66927  0.42486  0.64371  1.0000
  N   N57       1.0  0.94102  0.17794  0.75144  1.0000
  C   C981      1.0  0.88445  0.21506  0.52322  1.0000
  H   H1733     1.0  0.84704  0.15784  0.88779  1.0000
  H   H1734     1.0  0.66156  0.23399  0.62601  1.0000
  C   C982      1.0  0.64259  0.41177  0.86252  1.0000
  H   H1735     1.0  0.85512  0.23379  0.50558  1.0000
  C   C983      1.0  0.90044  0.22139  0.73885  1.0000
  H   H1736     1.0  0.79540  0.42204  0.83257  1.0000
  S   S217      1.0  0.96837  0.07964  0.86919  1.0000
  H   H1737     1.0  0.82835  0.16112  0.51215  1.0000
  H   H1738     1.0  0.75140  0.43285  0.81207  1.0000
  H   H1739     1.0  0.95285  0.08431  0.73796  1.0000
  C   C984      1.0  0.93357  0.11836  0.74371  1.0000
  C   C985      1.0  0.64543  0.49034  0.77267  1.0000
  C   C986      1.0  0.97191  0.21969  0.80188  1.0000
  H   H1740     1.0  0.71319  0.27619  0.50670  1.0000
  H   H1741     1.0  0.78488  0.48667  0.61315  1.0000
  H   H1742     1.0  0.86645  0.28048  0.50066  1.0000
  C   C987      1.0  0.94832  0.20018  0.77302  1.0000
  H   H1743     1.0  0.66917  0.42548  0.59216  1.0000
  H   H1744     1.0  0.89818  0.17632  0.88968  1.0000
  H   H1745     1.0  0.68092  0.40320  0.73683  1.0000
  C   C988      1.0  0.78756  0.43375  0.74965  1.0000
  H   H1746     1.0  0.65957  0.44928  0.87384  1.0000
  H   H1747     1.0  0.64574  0.36503  0.88027  1.0000
  H   H1748     1.0  0.92038  0.23382  0.76498  1.0000
  H   H1749     1.0  0.95364  0.04993  0.92691  1.0000
  H   H1750     1.0  0.85663  0.17681  0.50750  1.0000
  H   H1751     1.0  0.86836  0.48344  0.81827  1.0000
  H   H1752     1.0  0.75080  0.40293  0.50790  1.0000
  C   C989      1.0  0.84707  0.26144  0.96603  1.0000
  C   C990      1.0  0.64958  0.46709  0.66792  1.0000
  C   C991      1.0  0.65005  0.30764  0.64848  1.0000
  H   H1753     1.0  0.69816  0.38948  0.50459  1.0000
  C   C992      1.0  0.82778  0.48295  0.79232  1.0000
  H   H1754     1.0  0.64398  0.25842  0.88049  1.0000
  H   H1755     1.0  0.88193  0.33060  0.49877  1.0000
  C   C993      1.0  0.83193  0.18658  0.51492  1.0000
  C   C994      1.0  0.64470  0.45825  0.51212  1.0000
  C   C995      1.0  0.96790  0.03489  0.96329  1.0000
  H   H1756     1.0  0.96478  0.21639  0.82137  1.0000
  H   H1757     1.0  0.79465  0.48223  0.57960  1.0000
  H   H1758     1.0  0.67812  0.39704  0.49250  1.0000
  H   H1759     1.0  0.97225  0.04721  0.98266  1.0000
  H   H1760     1.0  0.64487  0.19228  0.55601  1.0000
  H   H1761     1.0  0.76065  0.48548  0.77560  1.0000
  C   C996      1.0  0.64160  0.37478  0.86004  1.0000
  H   H1762     1.0  0.73553  0.37387  0.49909  1.0000
  H   H1763     1.0  0.97254  0.01972  0.90387  1.0000
  C   C997      1.0  0.82567  0.42967  0.49936  1.0000
  C   C998      1.0  0.64349  0.43191  0.77368  1.0000
  H   H1764     1.0  0.82840  0.40652  0.50807  1.0000
  H   H1765     1.0  0.91087  0.18226  0.50363  1.0000
  C   C999      1.0  0.64757  0.48785  0.49888  1.0000
  H   H1766     1.0  0.64388  0.34635  0.62105  1.0000
  C   C1000     1.0  0.82505  0.48789  0.50409  1.0000
  H   H1767     1.0  0.82368  0.49120  0.57554  1.0000
  C   C1001     1.0  0.64423  0.16956  0.49489  1.0000
  H   H1768     1.0  0.96387  0.99175  0.92702  1.0000
  C   C1002     1.0  0.69382  0.43925  0.48998  1.0000
  H   H1769     1.0  0.65685  0.82612  0.39342  1.0000
  S   S218      1.0  0.81683  0.59123  0.46929  1.0000
  H   H1770     1.0  0.96511  0.70129  0.42286  1.0000
  C   C1003     1.0  0.78701  0.69264  0.43828  1.0000
  H   H1771     1.0  0.96410  0.67108  0.44976  1.0000
  C   C1004     1.0  0.75184  0.61738  0.48066  1.0000
  H   H1772     1.0  0.92850  0.65699  0.47637  1.0000
  S   S219      1.0  0.84938  0.65343  0.44697  1.0000
  H   H1773     1.0  0.96507  0.77942  0.03539  1.0000
  H   H1774     1.0  0.91550  0.71091  0.46682  1.0000
  S   S220      1.0  0.66144  0.62012  0.46028  1.0000
  C   C1005     1.0  0.69713  0.49664  0.45147  1.0000
  C   C1006     1.0  0.64672  0.83944  0.38421  1.0000
  H   H1775     1.0  0.79472  0.51989  0.41384  1.0000
  Fe  Fe106     1.0  0.94310  0.85028  0.40424  1.0000
  S   S221      1.0  0.96433  0.82999  0.38181  1.0000
  S   S222      1.0  0.94538  0.90047  0.42276  1.0000
  Fe  Fe107     1.0  0.92558  0.78391  0.40743  1.0000
  S   S223      1.0  0.94601  0.75938  0.38474  1.0000
  S   S224      1.0  0.90403  0.76311  0.43286  1.0000
  Fe  Fe108     1.0  0.96243  0.78921  0.41220  1.0000
  C   C1007     1.0  0.79266  0.53709  0.39654  1.0000
  Fe  Fe109     1.0  0.94661  0.80242  0.35573  1.0000
  H   H1776     1.0  0.64297  0.58667  0.41575  1.0000
  S   S225      1.0  0.94235  0.81102  0.43626  1.0000
  S   S226      1.0  0.92502  0.82529  0.37672  1.0000
  H   H1777     1.0  0.85341  0.63496  0.38108  1.0000
  H   H1778     1.0  0.97242  0.94836  0.23722  1.0000
  H   H1779     1.0  0.77958  0.53804  0.39254  1.0000
  H   H1780     1.0  0.94481  0.91154  0.31594  1.0000
  H   H1781     1.0  0.73986  0.58501  0.45216  1.0000
  H   H1782     1.0  0.81650  0.51319  0.46799  1.0000
  C   C1008     1.0  0.96737  0.68356  0.05328  1.0000
  C   C1009     1.0  0.93086  0.93889  0.38296  1.0000
  C   C1010     1.0  0.93843  0.93698  0.40897  1.0000
  C   C1011     1.0  0.94102  0.96511  0.42455  1.0000
  C   C1012     1.0  0.96226  0.80342  0.25461  1.0000
  H   H1783     1.0  0.92862  0.91734  0.37092  1.0000
  H   H1784     1.0  0.97448  0.70867  0.45619  1.0000
  C   C1013     1.0  0.86468  0.68393  0.44392  1.0000
  C   C1014     1.0  0.86678  0.70833  0.46380  1.0000
  C   C1015     1.0  0.87870  0.73235  0.45986  1.0000
  C   C1016     1.0  0.88889  0.73235  0.43620  1.0000
  C   C1017     1.0  0.88693  0.70774  0.41652  1.0000
  C   C1018     1.0  0.87491  0.68391  0.42031  1.0000
  H   H1785     1.0  0.95162  0.81599  0.24833  1.0000
  H   H1786     1.0  0.90249  0.65900  0.45193  1.0000
  H   H1787     1.0  0.89463  0.70713  0.39827  1.0000
  H   H1788     1.0  0.87361  0.66522  0.40482  1.0000
  H   H1789     1.0  0.71258  0.52742  0.42589  1.0000
  H   H1790     1.0  0.96067  0.97871  0.37050  1.0000
  C   C1019     1.0  0.90306  0.65136  0.47417  1.0000
  H   H1791     1.0  0.64617  0.83385  0.36146  1.0000
  H   H1792     1.0  0.92009  0.97015  0.35257  1.0000
  C   C1020     1.0  0.94840  0.71171  0.45645  1.0000
  S   S227      1.0  0.94893  0.80570  0.30758  1.0000
  H   H1793     1.0  0.96183  0.93645  0.27937  1.0000
  H   H1794     1.0  0.79890  0.52823  0.37751  1.0000
  C   C1021     1.0  0.92606  0.96883  0.37261  1.0000
  H   H1795     1.0  0.93841  0.69923  0.44558  1.0000
  H   H1796     1.0  0.96803  0.95148  0.08306  1.0000
  C   C1022     1.0  0.73827  0.60266  0.46851  1.0000
  H   H1797     1.0  0.64905  0.86546  0.38708  1.0000
  H   H1798     1.0  0.96166  0.89843  0.22365  1.0000
  N   N58       1.0  0.80320  0.62809  0.38668  1.0000
  C   C1023     1.0  0.80103  0.64762  0.36043  1.0000
  C   C1024     1.0  0.82083  0.62706  0.39331  1.0000
  C   C1025     1.0  0.79634  0.59501  0.38153  1.0000
  C   C1026     1.0  0.79456  0.64265  0.41128  1.0000
  C   C1027     1.0  0.79935  0.67763  0.41868  1.0000
  C   C1028     1.0  0.78360  0.65753  0.35377  1.0000
  C   C1029     1.0  0.79914  0.57005  0.40497  1.0000
  C   C1030     1.0  0.83136  0.60881  0.37189  1.0000
  C   C1031     1.0  0.84895  0.60986  0.38051  1.0000
  H   H1799     1.0  0.68940  0.50007  0.47016  1.0000
  C   C1032     1.0  0.78282  0.67558  0.32601  1.0000
  H   H1800     1.0  0.77545  0.69574  0.42722  1.0000
  H   H1801     1.0  0.80544  0.63419  0.34184  1.0000
  H   H1802     1.0  0.80860  0.66972  0.36099  1.0000
  H   H1803     1.0  0.82590  0.65177  0.39494  1.0000
  H   H1804     1.0  0.82285  0.61664  0.41437  1.0000
  H   H1805     1.0  0.80096  0.58499  0.36149  1.0000
  H   H1806     1.0  0.78313  0.59613  0.37878  1.0000
  H   H1807     1.0  0.78134  0.64088  0.40844  1.0000
  H   H1808     1.0  0.79687  0.62876  0.43059  1.0000
  H   H1809     1.0  0.80034  0.69313  0.39998  1.0000
  H   H1810     1.0  0.81115  0.67801  0.42945  1.0000
  H   H1811     1.0  0.77557  0.63630  0.35214  1.0000
  H   H1812     1.0  0.77882  0.67359  0.37026  1.0000
  H   H1813     1.0  0.79282  0.57704  0.42445  1.0000
  H   H1814     1.0  0.81204  0.56737  0.40964  1.0000
  H   H1815     1.0  0.82771  0.58328  0.37041  1.0000
  H   H1816     1.0  0.83053  0.61965  0.35078  1.0000
  H   H1817     1.0  0.85625  0.59632  0.36516  1.0000
  Fe  Fe110     1.0  0.65484  0.57161  0.47836  1.0000
  H   H1818     1.0  0.85051  0.59898  0.40155  1.0000
  H   H1819     1.0  0.97179  0.80068  0.21235  1.0000
  H   H1820     1.0  0.92870  0.75973  0.47380  1.0000
  H   H1821     1.0  0.91399  0.81089  0.48129  1.0000
  H   H1822     1.0  0.79037  0.69763  0.32688  1.0000
  H   H1823     1.0  0.78695  0.66024  0.30845  1.0000
  H   H1824     1.0  0.77027  0.68260  0.32184  1.0000
  C   C1033     1.0  0.97372  0.79486  0.23413  1.0000
  H   H1825     1.0  0.97245  0.98061  0.41567  1.0000
  C   C1034     1.0  0.96422  0.79520  0.28301  1.0000
  H   H1826     1.0  0.79140  0.71645  0.44546  1.0000
  H   H1827     1.0  0.69577  0.54718  0.44183  1.0000
  H   H1828     1.0  0.96741  0.84799  0.17704  1.0000
  H   H1829     1.0  0.97216  0.93257  0.37399  1.0000
  S   S228      1.0  0.77123  0.60785  0.46762  1.0000
  H   H1830     1.0  0.94843  0.73720  0.45006  1.0000
  C   C1035     1.0  0.97163  0.78884  0.99222  1.0000
  Fe  Fe111     1.0  0.83148  0.63532  0.48086  1.0000
  C   C1036     1.0  0.96398  0.69722  0.44579  1.0000
  H   H1831     1.0  0.95621  0.87540  0.31405  1.0000
  H   H1832     1.0  0.94294  0.97584  0.06343  1.0000
  H   H1833     1.0  0.94658  0.96373  0.44494  1.0000
  S   S229      1.0  0.65415  0.52582  0.45265  1.0000
  C   C1037     1.0  0.72262  0.61090  0.47700  1.0000
  C   C1038     1.0  0.70513  0.52891  0.44515  1.0000
  H   H1834     1.0  0.78487  0.67735  0.45694  1.0000
  H   H1835     1.0  0.94640  0.97305  0.32466  1.0000
  C   C1039     1.0  0.95681  0.90174  0.31111  1.0000
  H   H1836     1.0  0.87991  0.75128  0.47518  1.0000
  H   H1837     1.0  0.96363  0.78379  0.47809  1.0000
  H   H1838     1.0  0.95586  0.88414  0.17354  1.0000
  H   H1839     1.0  0.95197  0.90057  0.26707  1.0000
  C   C1040     1.0  0.96155  0.91002  0.28099  1.0000
  H   H1840     1.0  0.71233  0.59973  0.46717  1.0000
  H   H1841     1.0  0.89200  0.65907  0.48515  1.0000
  H   H1842     1.0  0.95758  0.69977  0.05977  1.0000
  H   H1843     1.0  0.90349  0.62484  0.47471  1.0000
  H   H1844     1.0  0.96755  0.98481  0.17138  1.0000
  H   H1845     1.0  0.85905  0.70901  0.48201  1.0000
  H   H1846     1.0  0.71274  0.53680  0.46299  1.0000
  H   H1847     1.0  0.96555  0.91214  0.32614  1.0000
  C   C1041     1.0  0.96804  0.87392  0.17201  1.0000
  H   H1848     1.0  0.97179  0.67106  0.07220  1.0000
  H   H1849     1.0  0.97237  0.87654  0.15009  1.0000
  H   H1850     1.0  0.96240  0.66574  0.03824  1.0000
  C   C1042     1.0  0.91796  0.66557  0.48824  1.0000
  H   H1851     1.0  0.97205  0.86223  0.22736  1.0000
  C   C1043     1.0  0.97461  0.78712  0.02148  1.0000
  C   C1044     1.0  0.97386  0.88808  0.22274  1.0000
  C   C1045     1.0  0.91735  0.70262  0.48866  1.0000
  C   C1046     1.0  0.94707  0.70877  0.48880  1.0000
  Fe  Fe112     1.0  0.79552  0.61522  0.48926  1.0000
  H   H1852     1.0  0.95872  0.80491  0.66614  1.0000
  S   S230      1.0  0.94195  0.79977  0.82411  1.0000
  Fe  Fe113     1.0  0.96482  0.79663  0.89572  1.0000
  S   S231      1.0  0.93948  0.81493  0.89136  1.0000
  Fe  Fe114     1.0  0.93460  0.77242  0.86240  1.0000
  S   S232      1.0  0.91052  0.74359  0.86496  1.0000
  Fe  Fe115     1.0  0.94855  0.84053  0.85285  1.0000
  S   S233      1.0  0.94290  0.88931  0.83416  1.0000
  S   S234      1.0  0.95945  0.75254  0.86901  1.0000
  Fe  Fe116     1.0  0.81570  0.63688  0.53873  1.0000
  S   S235      1.0  0.81535  0.66307  0.58028  1.0000
  S   S236      1.0  0.80007  0.59368  0.53140  1.0000
  Fe  Fe117     1.0  0.83814  0.63305  0.77802  1.0000
  S   S237      1.0  0.84337  0.58382  0.76067  1.0000
  S   S238      1.0  0.86047  0.66615  0.78540  1.0000
  Fe  Fe118     1.0  0.80110  0.62130  0.77110  1.0000
  S   S239      1.0  0.80437  0.57167  0.75432  1.0000
  S   S240      1.0  0.77655  0.64548  0.76727  1.0000
  Fe  Fe119     1.0  0.82305  0.56605  0.78740  1.0000
  S   S241      1.0  0.82509  0.51914  0.81121  1.0000
  Fe  Fe120     1.0  0.82436  0.59287  0.72876  1.0000
  S   S242      1.0  0.82589  0.57303  0.68489  1.0000
  S   S243      1.0  0.81853  0.61461  0.80707  1.0000
  S   S244      1.0  0.82040  0.64305  0.74332  1.0000
  C   C1047     1.0  0.97180  0.80140  0.66678  1.0000
  H   H1853     1.0  0.89415  0.81595  0.93262  1.0000
  H   H1854     1.0  0.92080  0.59403  0.86806  1.0000
  Fe  Fe121     1.0  0.67983  0.61362  0.78304  1.0000
  S   S245      1.0  0.67342  0.58533  0.74445  1.0000
  S   S246      1.0  0.70475  0.60359  0.80139  1.0000
  Fe  Fe122     1.0  0.66185  0.63039  0.72985  1.0000
  H   H1855     1.0  0.86415  0.54414  0.54194  1.0000
  H   H1856     1.0  0.68387  0.50869  0.59080  1.0000
  S   S247      1.0  0.66951  0.65952  0.76710  1.0000
  S   S248      1.0  0.65667  0.60124  0.80617  1.0000
  H   H1857     1.0  0.91973  0.71596  0.54209  1.0000
  H   H1858     1.0  0.94837  0.85007  0.65343  1.0000
  C   C1048     1.0  0.85374  0.50674  0.58715  1.0000
  H   H1859     1.0  0.95816  0.88309  0.73388  1.0000
  H   H1860     1.0  0.65842  0.53109  0.67149  1.0000
  H   H1861     1.0  0.75669  0.60901  0.59165  1.0000
  H   H1862     1.0  0.97452  0.78744  0.68592  1.0000
  C   C1049     1.0  0.90612  0.60772  0.76743  1.0000
  C   C1050     1.0  0.75667  0.63224  0.77585  1.0000
  C   C1051     1.0  0.74353  0.64931  0.76540  1.0000
  C   C1052     1.0  0.72759  0.64024  0.77208  1.0000
  C   C1053     1.0  0.72454  0.61441  0.79004  1.0000
  C   C1054     1.0  0.73770  0.59744  0.80058  1.0000
  C   C1055     1.0  0.75362  0.60607  0.79337  1.0000
  H   H1863     1.0  0.74567  0.67006  0.75241  1.0000
  H   H1864     1.0  0.71768  0.65390  0.76414  1.0000
  H   H1865     1.0  0.73555  0.57771  0.81477  1.0000
  H   H1866     1.0  0.76354  0.59318  0.80217  1.0000
  H   H1867     1.0  0.68694  0.60514  0.63227  1.0000
  H   H1868     1.0  0.92872  0.96318  0.91098  1.0000
  C   C1056     1.0  0.81846  0.63830  0.60946  1.0000
  C   C1057     1.0  0.81602  0.60527  0.60736  1.0000
  C   C1058     1.0  0.81805  0.58581  0.63090  1.0000
  C   C1059     1.0  0.82298  0.59893  0.65647  1.0000
  C   C1060     1.0  0.82547  0.63196  0.65873  1.0000
  C   C1061     1.0  0.82303  0.65168  0.63529  1.0000
  H   H1869     1.0  0.81240  0.59473  0.58769  1.0000
  H   H1870     1.0  0.81556  0.56055  0.62948  1.0000
  H   H1871     1.0  0.82941  0.64224  0.67839  1.0000
  H   H1872     1.0  0.82497  0.67724  0.63700  1.0000
  H   H1873     1.0  0.93473  0.91092  0.68009  1.0000
  Fe  Fe123     1.0  0.82211  0.57260  0.51203  1.0000
  C   C1062     1.0  0.67841  0.52770  0.57789  1.0000
  H   H1874     1.0  0.89175  0.52210  0.81482  1.0000
  H   H1875     1.0  0.70371  0.56822  0.56587  1.0000
  H   H1876     1.0  0.75612  0.60147  0.55452  1.0000
  C   C1063     1.0  0.89679  0.72243  0.84215  1.0000
  C   C1064     1.0  0.88242  0.70971  0.85343  1.0000
  C   C1065     1.0  0.87116  0.69291  0.83653  1.0000
  C   C1066     1.0  0.87402  0.68836  0.80783  1.0000
  C   C1067     1.0  0.88837  0.70112  0.79653  1.0000
  C   C1068     1.0  0.89965  0.71789  0.81345  1.0000
  H   H1877     1.0  0.87994  0.71296  0.87551  1.0000
  H   H1878     1.0  0.86020  0.68366  0.84574  1.0000
  H   H1879     1.0  0.89088  0.69779  0.77447  1.0000
  H   H1880     1.0  0.91063  0.72711  0.80427  1.0000
  C   C1069     1.0  0.94150  0.92708  0.85092  1.0000
  C   C1070     1.0  0.94449  0.95483  0.83506  1.0000
  H   H1881     1.0  0.94851  0.95263  0.81358  1.0000
  C   C1071     1.0  0.93333  0.96093  0.88988  1.0000
  C   C1072     1.0  0.93611  0.93025  0.87859  1.0000
  H   H1882     1.0  0.93358  0.90911  0.89091  1.0000
  H   H1883     1.0  0.84298  0.55378  0.57727  1.0000
  H   H1884     1.0  0.78791  0.52265  0.80494  1.0000
  H   H1885     1.0  0.71759  0.66272  0.60091  1.0000
  H   H1886     1.0  0.88495  0.79021  0.90671  1.0000
  H   H1887     1.0  0.84588  0.56890  0.85704  1.0000
  H   H1888     1.0  0.94256  0.85493  0.68980  1.0000
  H   H1889     1.0  0.65084  0.53867  0.70616  1.0000
  N   N59       1.0  0.70620  0.59873  0.60237  1.0000
  Fe  Fe124     1.0  0.64938  0.59834  0.53673  1.0000
  H   H1890     1.0  0.86736  0.58063  0.56130  1.0000
  C   C1073     1.0  0.75036  0.59555  0.57493  1.0000
  H   H1891     1.0  0.86837  0.62636  0.84539  1.0000
  S   S249      1.0  0.82899  0.52231  0.52475  1.0000
  C   C1074     1.0  0.72429  0.59900  0.60280  1.0000
  H   H1892     1.0  0.89988  0.56309  0.84297  1.0000
  C   C1075     1.0  0.93619  0.89339  0.66276  1.0000
  C   C1076     1.0  0.88949  0.57642  0.85133  1.0000
  H   H1893     1.0  0.72871  0.57606  0.61144  1.0000
  C   C1077     1.0  0.84324  0.61447  0.87725  1.0000
  H   H1894     1.0  0.97379  0.79330  0.62161  1.0000
  H   H1895     1.0  0.69907  0.54977  0.64287  1.0000
  Fe  Fe125     1.0  0.65008  0.57514  0.76639  1.0000
  H   H1896     1.0  0.86155  0.57954  0.88130  1.0000
  H   H1897     1.0  0.93132  0.72761  0.58988  1.0000
  H   H1898     1.0  0.79078  0.56510  0.67066  1.0000
  H   H1899     1.0  0.68682  0.68413  0.57129  1.0000
  S   S250      1.0  0.97400  0.82457  0.85786  1.0000
  C   C1078     1.0  0.78035  0.56982  0.68447  1.0000
  H   H1900     1.0  0.83568  0.60386  0.89409  1.0000
  C   C1079     1.0  0.70059  0.56805  0.58855  1.0000
  H   H1901     1.0  0.76823  0.51406  0.81939  1.0000
  H   H1902     1.0  0.91844  0.65591  0.50983  1.0000
  H   H1903     1.0  0.69819  0.66489  0.61729  1.0000
  H   H1904     1.0  0.88391  0.62511  0.80680  1.0000
  H   H1905     1.0  0.97158  0.83436  0.55301  1.0000
  H   H1906     1.0  0.75985  0.65220  0.51092  1.0000
  N   N60       1.0  0.89188  0.84754  0.83681  1.0000
  C   C1080     1.0  0.89669  0.88105  0.84555  1.0000
  C   C1081     1.0  0.89620  0.82388  0.85945  1.0000
  C   C1082     1.0  0.90139  0.83947  0.81077  1.0000
  C   C1083     1.0  0.87432  0.84476  0.82955  1.0000
  C   C1084     1.0  0.86222  0.85612  0.85194  1.0000
  C   C1085     1.0  0.89414  0.90760  0.82339  1.0000
  C   C1086     1.0  0.90021  0.80418  0.80054  1.0000
  C   C1087     1.0  0.89464  0.83519  0.89039  1.0000
  C   C1088     1.0  0.89508  0.80706  0.91074  1.0000
  C   C1089     1.0  0.84518  0.85595  0.84026  1.0000
  C   C1090     1.0  0.89637  0.94092  0.83614  1.0000
  C   C1091     1.0  0.90875  0.79982  0.77243  1.0000
  H   H1907     1.0  0.90962  0.88168  0.85132  1.0000
  H   H1908     1.0  0.89038  0.88854  0.86488  1.0000
  H   H1909     1.0  0.88918  0.80121  0.85683  1.0000
  H   H1910     1.0  0.90896  0.81676  0.85730  1.0000
  H   H1911     1.0  0.91435  0.84512  0.81411  1.0000
  H   H1912     1.0  0.89764  0.85460  0.79286  1.0000
  H   H1913     1.0  0.87179  0.85753  0.80965  1.0000
  H   H1914     1.0  0.87097  0.81942  0.82522  1.0000
  H   H1915     1.0  0.86488  0.88078  0.85922  1.0000
  H   H1916     1.0  0.86217  0.83948  0.86998  1.0000
  H   H1917     1.0  0.90302  0.90529  0.80615  1.0000
  H   H1918     1.0  0.88193  0.90638  0.81443  1.0000
  H   H1919     1.0  0.88764  0.79615  0.79761  1.0000
  H   H1920     1.0  0.90587  0.78797  0.81584  1.0000
  H   H1921     1.0  0.90481  0.85158  0.89557  1.0000
  H   H1922     1.0  0.88348  0.84828  0.89447  1.0000
  C   C1092     1.0  0.72036  0.63455  0.49736  1.0000
  H   H1923     1.0  0.94234  0.75741  0.54900  1.0000
  C   C1093     1.0  0.65573  0.73528  0.74107  1.0000
  H   H1924     1.0  0.84166  0.83154  0.83311  1.0000
  H   H1925     1.0  0.83667  0.86347  0.85687  1.0000
  H   H1926     1.0  0.84425  0.87286  0.82244  1.0000
  H   H1927     1.0  0.90854  0.94374  0.84508  1.0000
  H   H1928     1.0  0.89491  0.95936  0.81966  1.0000
  H   H1929     1.0  0.88737  0.94517  0.85288  1.0000
  H   H1930     1.0  0.90278  0.81388  0.75585  1.0000
  H   H1931     1.0  0.92148  0.80750  0.77389  1.0000
  H   H1932     1.0  0.90834  0.77416  0.76634  1.0000
  H   H1933     1.0  0.70363  0.62489  0.56350  1.0000
  C   C1094     1.0  0.65570  0.63148  0.60703  1.0000
  H   H1934     1.0  0.96726  0.82697  0.77195  1.0000
  H   H1935     1.0  0.90402  0.76106  0.50340  1.0000
  H   H1936     1.0  0.70703  0.68521  0.55745  1.0000
  H   H1937     1.0  0.86011  0.54863  0.67374  1.0000
  C   C1095     1.0  0.69620  0.57732  0.68034  1.0000
  H   H1938     1.0  0.83056  0.50530  0.75199  1.0000
  Fe  Fe126     1.0  0.67607  0.62581  0.49984  1.0000
  H   H1939     1.0  0.66784  0.66944  0.62945  1.0000
  H   H1940     1.0  0.88324  0.53722  0.78251  1.0000
  H   H1941     1.0  0.94062  0.90606  0.64375  1.0000
  H   H1942     1.0  0.91483  0.62410  0.89293  1.0000
  H   H1943     1.0  0.90649  0.79394  0.90859  1.0000
  C   C1096     1.0  0.91549  0.77145  0.51093  1.0000
  C   C1097     1.0  0.86378  0.60223  0.83948  1.0000
  H   H1944     1.0  0.72897  0.61766  0.61741  1.0000
  H   H1945     1.0  0.94768  0.83388  0.75725  1.0000
  H   H1946     1.0  0.90464  0.56660  0.79411  1.0000
  H   H1947     1.0  0.87007  0.51214  0.63673  1.0000
  S   S251      1.0  0.83827  0.61443  0.52264  1.0000
  H   H1948     1.0  0.73194  0.62996  0.56802  1.0000
  H   H1949     1.0  0.85770  0.55519  0.60470  1.0000
  C   C1098     1.0  0.69993  0.62659  0.58585  1.0000
  C   C1099     1.0  0.87196  0.49493  0.79821  1.0000
  H   H1950     1.0  0.69910  0.55686  0.69414  1.0000
  C   C1100     1.0  0.66123  0.64713  0.63127  1.0000
  H   H1951     1.0  0.88473  0.56031  0.86797  1.0000
  H   H1952     1.0  0.94568  0.69615  0.58385  1.0000
  C   C1101     1.0  0.70008  0.60120  0.63205  1.0000
  S   S252      1.0  0.66591  0.65355  0.68759  1.0000
  C   C1102     1.0  0.86124  0.52260  0.67785  1.0000
  H   H1953     1.0  0.95666  0.72631  0.54305  1.0000
  H   H1954     1.0  0.90612  0.70891  0.49987  1.0000
  H   H1955     1.0  0.92655  0.81908  0.51140  1.0000
  H   H1956     1.0  0.92427  0.88265  0.65799  1.0000
  H   H1957     1.0  0.90502  0.81851  0.51492  1.0000
  H   H1958     1.0  0.86557  0.53654  0.83917  1.0000
  H   H1959     1.0  0.81039  0.50201  0.63530  1.0000
  C   C1103     1.0  0.91533  0.80717  0.50422  1.0000
  H   H1960     1.0  0.72703  0.59003  0.55709  1.0000
  C   C1104     1.0  0.69970  0.68649  0.57685  1.0000
  H   H1961     1.0  0.85072  0.63394  0.88648  1.0000
  C   C1105     1.0  0.95901  0.84554  0.76417  1.0000
  H   H1962     1.0  0.76915  0.56321  0.67329  1.0000
  H   H1963     1.0  0.78134  0.55455  0.70338  1.0000
  C   C1106     1.0  0.94212  0.98547  0.84658  1.0000
  C   C1107     1.0  0.89569  0.60746  0.86580  1.0000
  H   H1964     1.0  0.70076  0.59963  0.69039  1.0000
  C   C1108     1.0  0.70454  0.66026  0.59724  1.0000
  C   C1109     1.0  0.65831  0.63394  0.65782  1.0000
  H   H1965     1.0  0.73234  0.66775  0.52511  1.0000
  H   H1966     1.0  0.96332  0.90216  0.69144  1.0000
  H   H1967     1.0  0.96969  0.75789  0.64201  1.0000
  N   N61       1.0  0.87721  0.58153  0.82879  1.0000
  C   C1110     1.0  0.85383  0.58871  0.86439  1.0000
  H   H1968     1.0  0.85142  0.49656  0.56590  1.0000
  H   H1969     1.0  0.71694  0.57042  0.65440  1.0000
  H   H1970     1.0  0.70699  0.54717  0.59734  1.0000
  N   N62       1.0  0.77695  0.66225  0.67306  1.0000
  C   C1111     1.0  0.77982  0.62726  0.66732  1.0000
  C   C1112     1.0  0.77846  0.68133  0.64620  1.0000
  C   C1113     1.0  0.78991  0.67381  0.69282  1.0000
  C   C1114     1.0  0.76100  0.66768  0.68718  1.0000
  C   C1115     1.0  0.74591  0.65495  0.67184  1.0000
  C   C1116     1.0  0.78012  0.60499  0.69326  1.0000
  C   C1117     1.0  0.79051  0.71034  0.69887  1.0000
  C   C1118     1.0  0.77265  0.66496  0.61875  1.0000
  C   C1119     1.0  0.77225  0.68862  0.59443  1.0000
  C   C1120     1.0  0.73111  0.65701  0.69070  1.0000
  C   C1121     1.0  0.80426  0.71885  0.71868  1.0000
  H   H1971     1.0  0.79148  0.62450  0.65631  1.0000
  H   H1972     1.0  0.77085  0.61720  0.65261  1.0000
  H   H1973     1.0  0.77222  0.70460  0.64838  1.0000
  H   H1974     1.0  0.79129  0.68755  0.64195  1.0000
  H   H1975     1.0  0.80189  0.66696  0.68468  1.0000
  H   H1976     1.0  0.78868  0.66200  0.71355  1.0000
  H   H1977     1.0  0.76103  0.65772  0.70879  1.0000
  H   H1978     1.0  0.75899  0.69366  0.69023  1.0000
  H   H1979     1.0  0.74702  0.62961  0.66548  1.0000
  H   H1980     1.0  0.74359  0.66989  0.65315  1.0000
  H   H1981     1.0  0.79109  0.60973  0.70575  1.0000
  H   H1982     1.0  0.76951  0.60835  0.70692  1.0000
  H   H1983     1.0  0.77932  0.71836  0.70911  1.0000
  H   H1984     1.0  0.79236  0.72430  0.67936  1.0000
  H   H1985     1.0  0.78103  0.64562  0.61274  1.0000
  H   H1986     1.0  0.76056  0.65434  0.62101  1.0000
  H   H1987     1.0  0.76876  0.67587  0.57488  1.0000
  H   H1988     1.0  0.76344  0.70774  0.59858  1.0000
  H   H1989     1.0  0.78429  0.69964  0.59107  1.0000
  H   H1990     1.0  0.72966  0.68165  0.69902  1.0000
  H   H1991     1.0  0.72021  0.65052  0.67866  1.0000
  H   H1992     1.0  0.73210  0.64012  0.70852  1.0000
  H   H1993     1.0  0.81591  0.71136  0.70964  1.0000
  H   H1994     1.0  0.80471  0.74510  0.72218  1.0000
  H   H1995     1.0  0.80244  0.70698  0.73929  1.0000
  H   H1996     1.0  0.85881  0.55375  0.80756  1.0000
  H   H1997     1.0  0.65241  0.72896  0.76297  1.0000
  C   C1122     1.0  0.86977  0.54988  0.82031  1.0000
  C   C1123     1.0  0.84366  0.50776  0.63654  1.0000
  H   H1998     1.0  0.64723  0.59521  0.68057  1.0000
  H   H1999     1.0  0.90407  0.63393  0.76826  1.0000
  H   H2000     1.0  0.68666  0.62583  0.58521  1.0000
  N   N63       1.0  0.93153  0.71967  0.50168  1.0000
  H   H2001     1.0  0.84083  0.53367  0.63608  1.0000
  H   H2002     1.0  0.70175  0.71032  0.58659  1.0000
  H   H2003     1.0  0.91594  0.76898  0.53403  1.0000
  C   C1124     1.0  0.73393  0.64915  0.50961  1.0000
  C   C1125     1.0  0.85448  0.54380  0.58443  1.0000
  H   H2004     1.0  0.66428  0.71744  0.73276  1.0000
  H   H2005     1.0  0.66521  0.52392  0.57781  1.0000
  C   C1126     1.0  0.92992  0.75504  0.49658  1.0000
  H   H2006     1.0  0.96260  0.86325  0.57600  1.0000
  C   C1127     1.0  0.64962  0.60532  0.66012  1.0000
  C   C1128     1.0  0.70382  0.57262  0.65147  1.0000
  C   C1129     1.0  0.94776  0.86709  0.67122  1.0000
  H   H2007     1.0  0.89870  0.59710  0.75042  1.0000
  C   C1130     1.0  0.77514  0.51789  0.79973  1.0000
  C   C1131     1.0  0.88049  0.52693  0.80341  1.0000
  H   H2008     1.0  0.75168  0.56951  0.57863  1.0000
  H   H2009     1.0  0.77039  0.53929  0.78903  1.0000
  H   H2010     1.0  0.94099  0.76810  0.50288  1.0000
  H   H2011     1.0  0.91893  0.60370  0.76244  1.0000
  H   H2012     1.0  0.70524  0.62270  0.64254  1.0000
  C   C1132     1.0  0.68235  0.56074  0.59004  1.0000
  H   H2013     1.0  0.83526  0.62482  0.86118  1.0000
  H   H2014     1.0  0.67572  0.57860  0.57772  1.0000
  H   H2015     1.0  0.67768  0.56105  0.61179  1.0000
  C   C1133     1.0  0.91100  0.60160  0.88233  1.0000
  S   S253      1.0  0.80967  0.66064  0.49769  1.0000
  H   H2016     1.0  0.68296  0.57871  0.67855  1.0000
  C   C1134     1.0  0.88417  0.59879  0.80357  1.0000
  S   S254      1.0  0.65546  0.64829  0.52336  1.0000
  S   S255      1.0  0.70096  0.64774  0.50746  1.0000
  H   H2017     1.0  0.89815  0.62673  0.85036  1.0000
  H   H2018     1.0  0.94960  0.68365  0.49482  1.0000
  Fe  Fe127     1.0  0.96690  0.78226  0.83120  1.0000
  H   H2019     1.0  0.96043  0.82676  0.71141  1.0000
  C   C1135     1.0  0.94430  0.73129  0.55024  1.0000
  C   C1136     1.0  0.73266  0.60439  0.57401  1.0000
  H   H2020     1.0  0.93435  0.68654  0.53594  1.0000
  C   C1137     1.0  0.96461  0.88116  0.67728  1.0000
  H   H2021     1.0  0.87644  0.59460  0.78489  1.0000
  H   H2022     1.0  0.91007  0.60295  0.81145  1.0000
  C   C1138     1.0  0.93178  0.71228  0.53260  1.0000
  H   H2023     1.0  0.82372  0.52724  0.59481  1.0000
  H   H2024     1.0  0.96733  0.78382  0.52970  1.0000
  C   C1139     1.0  0.64407  0.58970  0.63585  1.0000
  C   C1140     1.0  0.90190  0.59231  0.79556  1.0000
  H   H2025     1.0  0.68281  0.52569  0.55599  1.0000
  H   H2026     1.0  0.85516  0.60705  0.82222  1.0000
  H   H2027     1.0  0.86609  0.49951  0.59239  1.0000
  H   H2028     1.0  0.66683  0.51056  0.79086  1.0000
  H   H2029     1.0  0.88653  0.61638  0.88073  1.0000
  H   H2030     1.0  0.66180  0.75905  0.74122  1.0000
  H   H2031     1.0  0.64497  0.74178  0.70093  1.0000
  S   S256      1.0  0.67073  0.57640  0.51587  1.0000
  H   H2032     1.0  0.65799  0.64177  0.58663  1.0000
  H   H2033     1.0  0.95249  0.73581  0.59315  1.0000
  C   C1141     1.0  0.86711  0.55413  0.56293  1.0000
  H   H2034     1.0  0.87918  0.54603  0.56927  1.0000
  H   H2035     1.0  0.90893  0.58294  0.89851  1.0000
  H   H2036     1.0  0.78007  0.49508  0.76077  1.0000
  C   C1142     1.0  0.74957  0.64038  0.50160  1.0000
  C   C1143     1.0  0.93625  0.98867  0.87390  1.0000
  H   H2037     1.0  0.95993  0.78253  0.98410  1.0000
  H   H2038     1.0  0.79360  0.52118  0.59604  1.0000
  C   C1144     1.0  0.96674  0.86448  0.74023  1.0000
  C   C1145     1.0  0.94331  0.72204  0.58116  1.0000
  C   C1146     1.0  0.86019  0.50365  0.65047  1.0000
  C   C1147     1.0  0.64723  0.60258  0.60927  1.0000
  C   C1148     1.0  0.82524  0.50113  0.59704  1.0000
  C   C1149     1.0  0.64917  0.52381  0.68705  1.0000
  Fe  Fe128     1.0  0.64556  0.64503  0.78618  1.0000
  H   H2039     1.0  0.86113  0.49856  0.78523  1.0000
  C   C1150     1.0  0.97404  0.85557  0.56635  1.0000
  H   H2040     1.0  0.96801  0.95200  0.88588  1.0000
  H   H2041     1.0  0.95627  0.86189  0.78184  1.0000
  H   H2042     1.0  0.64709  0.50980  0.51088  1.0000
  N   N64       1.0  0.84170  0.49316  0.60781  1.0000
  C   C1151     1.0  0.79503  0.49517  0.59997  1.0000
  H   H2043     1.0  0.96891  0.89139  0.65705  1.0000
  H   H2044     1.0  0.85161  0.51498  0.69262  1.0000
  C   C1152     1.0  0.97106  0.84223  0.71534  1.0000
  H   H2045     1.0  0.87299  0.51850  0.68797  1.0000
  H   H2046     1.0  0.83485  0.49718  0.65150  1.0000
  H   H2047     1.0  0.95729  0.72296  0.49731  1.0000
  H   H2048     1.0  0.97259  0.88861  0.53182  1.0000
