data_image0
_chemical_formula_structural       SH3CSH2SCH5CH3C2H2CH6CHFeHCH6FeNCH2FeH2CHCH2CH2CH8SC3H2SH2CFeS2FeS2FeSFeHS2FeS2H2CHS2FeS2FeS2FeSFeS3FeS2H3CS2C6H4FeHCHNH2SCH2C2H5C6H4C6H4C6H4C3HC2HC2H4CHC2HC2H3CHC2H2SHCHCH4CH3FeHCH3C6H13SHNC12H28CH9FeH6NH2CH2CH6CH3C2SHC2H2CNC7S2HC2H9CHCH2NH4C4HFeH4C2HCHC3HCH3C3HCH2FeH3CNH9NHCH3C2NCH2CH3CHCH8C3HCH7CH2CSHCHC2H2FeCHCSHCFeHCHCH5CH8C2H2SCSFeSH4SH2NHCHFeSC2H5CNC9H4CHSHFeSHC6H4CH2CH2SHNC3H2C4SCH7CH12CFeHSHCH2C2H3CH5NC4H2CH3C2HCH6CHCH13CH5SH6C2HCH2CH5C2H3CHC2H3FeSH3CHCHCH4SCH2C2SH2C2SHFeS2H4C2HS2FeHFeHSCFeS2FeS2FeSFeS3HC6H2CHC6H3C7H4C3SCHSH3C6H3CHNH2FeH2C2FeCSCH5NC7H16CH7SHCH6FeH6CHCH3CH8CHNC11H10CH14SH2CSHSFeC3H2C3HCH3Fe2CHFeHCHC2HCH2CFeS2FeS2FeSFeS3FeS2FeCFeCS2HNH2CHC3H2C6H5CHNH2C7H3SCH2FeH2CH5CH5CHCHCH2C2H2CHC2H3C2H3CH2SH2C2HC2H6CHCH3C3H4CHCH4C2H2CH5CH4SH3CHCHC2H6CHCH7CHCH2CH3C2H4CH3CHCH3CFeCSHC2H2CH3NH8CHC2NH3C2HCH3CHCHCH3CSHC2HCSC2H8CHSC2SH2CHCHCHFeS2HSFeSFeSHSFeS2FeS2FeSFeS3FeS2FeSFeSFeS3CH5C7H4C6H4C2HC6H4C6H4C6H4C6H4NC12H32C2SCH8CNH3C5HCH2C2HC2H6CH10CNCH3C5H9CH3NHCHC2H2CFeCH4CHC2H2SH2CHCH2C3FeCHNH2C2HC2H6CH2C2HNHCH2SH2NH2CHSHCH3NCHCHCHSCH2CH3CH2CHSC3H3CH5CH7C2HC2H5CH4C2H8C2H4C2HCH5CH2CH6SH2CH3CHCHCHC3HCH3FeSH2SFeS2HCH3FeSHSFeS2FeS2FeSFeS3C7H4C6H4C6H3C7H6C3H7CH2S2H6CH3FeHCHCHCNC12H27CH2C2SH5C3H3C2HCH9CNH4C4H6SCH2C2H3NCHNHC2HC2HSC2SCH10CH2CHFeH4C2H3CH2CHCHNSCH4CH3SHFeS2FeS2FeSFeS3FeS2FeSFeCS2C6H5C2HC2H3C3H2C6H4CH3CH3C2H5SHSC2HCHC2H5C2H2CH2CH3CHCH2CH2CH7CH6CHCHSHSH2C2H7CHCH2CH2CH3CH6C2HNCH4CH2C3H8CH5C2H7C2H2C2NH3C2HCHFeCHC2H2SHCH2CHC2H2NC9H6CH5CH3SH3NCHFeCH5CFeCH4SC2HFeH4FeS2FeS2FeSFeS3FeS2Fe2SFeSHS2HS2FeS2FeS2Fe2S3H8CSH3C6H4C6H4C6H4C6H4C6H4C6H2CHCH2C2HCH2NC6H2C2HCH6CH3CH3CH2CH3CH3NC10H12CH5CH2CHC2HC2H5CH10CH2C2HNH5NH2C2H2C3FeH4SH2C2H4C3H6C3HCH2CH5SHNH4C2H2CHCHCH4CHC2HSH5CH6C2FeCHCHCH2CH2NCH3C2HCH2CH7CH5CHCH4CH5CH6C2H3NC4H4SH2CH6NHCNCH2CH5C2H4CH6C2HCHC3HC2H5CH2FeS2FeS2FeSFeS3FeS2FeSFeHS2FeS2FeS2FeSFeS3FeS2FeHFeHS2C2H2C3H2C6H4C3H7C8H4C3H2C6H6C4H2C7H3Fe2CHC3H5CH4CH2SH6CH2CHCHCNC2HC2HCHNHC3H8CH3CH5NH2CH7CHC3H10CHNC8H16CHCHC2H4C4H2CHCH2C2H3CH2CH3CH3CH5C2HCHC2H2CH2C2H5CH2CHCHCHCH6CHNCH3C2HCH3C3H4CHCHCH3C2HSNHCH3CH10CH2CH2CH5C2H6C2H2CSHSCH2CH2NHCHCH4CH3CH2CH4SCHCHCHC2H2CSH2CH2CH3C2HS2C3H3C2H3CHNHCHC4SC2H4C3H2CH4C2HC2H10CHC3FeHC2H6CHNH3CH10C2HCHCHCH2C2HCH6C3HCH2CH2NHCHCH4CHCH4SCH7
_chemical_formula_sum              "S224 H1792 C1008 Fe112 N56"
_cell_length_a       51.0404
_cell_length_b       51.0701
_cell_length_c       66.0187
_cell_angle_alpha    88.031
_cell_angle_beta     87.684
_cell_angle_gamma    119.963

_space_group_name_H-M_alt    "P 1"
_space_group_IT_number       1

loop_
  _space_group_symop_operation_xyz
  'x, y, z'

loop_
  _atom_site_type_symbol
  _atom_site_label
  _atom_site_symmetry_multiplicity
  _atom_site_fract_x
  _atom_site_fract_y
  _atom_site_fract_z
  _atom_site_occupancy
  S   S1        1.0  0.43654  0.21758  0.29040  1.0000
  H   H1        1.0  0.10099  0.39157  0.20393  1.0000
  H   H2        1.0  0.13716  0.37271  0.24803  1.0000
  H   H3        1.0  0.25412  0.45598  0.99306  1.0000
  C   C1        1.0  0.09959  0.41331  0.24408  1.0000
  S   S2        1.0  0.43930  0.15997  0.31012  1.0000
  H   H4        1.0  0.10808  0.42388  0.22848  1.0000
  H   H5        1.0  0.10758  0.43176  0.27455  1.0000
  S   S3        1.0  0.20466  0.45618  0.27631  1.0000
  C   C2        1.0  0.08470  0.36202  0.23256  1.0000
  H   H6        1.0  0.10262  0.38807  0.28018  1.0000
  H   H7        1.0  0.46907  0.07539  0.13489  1.0000
  H   H8        1.0  0.08669  0.45842  0.25469  1.0000
  H   H9        1.0  0.07150  0.30695  0.29917  1.0000
  H   H10       1.0  0.06608  0.36777  0.27071  1.0000
  C   C3        1.0  0.15365  0.40958  0.22552  1.0000
  H   H11       1.0  0.42193  0.13967  0.19299  1.0000
  H   H12       1.0  0.21326  0.43674  0.99218  1.0000
  H   H13       1.0  0.47630  0.25073  0.98676  1.0000
  C   C4        1.0  0.08973  0.34243  0.27488  1.0000
  C   C5        1.0  0.45019  0.28750  0.24956  1.0000
  H   H14       1.0  0.06132  0.35617  0.18285  1.0000
  H   H15       1.0  0.14302  0.39521  0.21277  1.0000
  C   C6        1.0  0.18596  0.41499  0.22536  1.0000
  H   H16       1.0  0.43410  0.28098  0.26313  1.0000
  H   H17       1.0  0.18574  0.39319  0.22734  1.0000
  H   H18       1.0  0.45257  0.15929  0.15921  1.0000
  H   H19       1.0  0.46495  0.13156  0.18872  1.0000
  H   H20       1.0  0.19841  0.42964  0.23763  1.0000
  H   H21       1.0  0.07512  0.40648  0.24540  1.0000
  C   C7        1.0  0.11618  0.43922  0.25850  1.0000
  H   H22       1.0  0.08162  0.32591  0.26294  1.0000
  Fe  Fe1       1.0  0.47228  0.24549  0.31156  1.0000
  H   H23       1.0  0.11308  0.34779  0.27804  1.0000
  C   C8        1.0  0.07966  0.37335  0.21170  1.0000
  H   H24       1.0  0.20868  0.47932  0.22187  1.0000
  H   H25       1.0  0.12029  0.47515  0.23737  1.0000
  H   H26       1.0  0.44490  0.10344  0.30753  1.0000
  H   H27       1.0  0.44246  0.26751  0.24026  1.0000
  H   H28       1.0  0.14095  0.44789  0.25727  1.0000
  H   H29       1.0  0.44271  0.14920  0.21562  1.0000
  Fe  Fe2       1.0  0.46482  0.19567  0.28486  1.0000
  N   N1        1.0  0.10282  0.38565  0.24739  1.0000
  C   C9        1.0  0.11118  0.46572  0.25315  1.0000
  H   H30       1.0  0.09499  0.34762  0.22958  1.0000
  H   H31       1.0  0.06397  0.38235  0.21389  1.0000
  Fe  Fe3       1.0  0.17470  0.44318  0.30520  1.0000
  H   H32       1.0  0.45987  0.21775  0.23364  1.0000
  H   H33       1.0  0.06133  0.34598  0.23927  1.0000
  C   C10       1.0  0.08974  0.37207  0.26861  1.0000
  H   H34       1.0  0.47547  0.16686  0.12434  1.0000
  C   C11       1.0  0.13556  0.39355  0.24585  1.0000
  H   H35       1.0  0.19836  0.42650  0.21060  1.0000
  H   H36       1.0  0.15511  0.43185  0.22279  1.0000
  C   C12       1.0  0.06946  0.32683  0.29423  1.0000
  H   H37       1.0  0.28111  0.47803  0.24736  1.0000
  H   H38       1.0  0.46015  0.12067  0.14570  1.0000
  C   C13       1.0  0.06535  0.34758  0.19741  1.0000
  H   H39       1.0  0.14790  0.40771  0.25845  1.0000
  H   H40       1.0  0.08069  0.33849  0.19405  1.0000
  H   H41       1.0  0.04326  0.32902  0.20424  1.0000
  H   H42       1.0  0.04538  0.31892  0.29149  1.0000
  H   H43       1.0  0.35649  0.21646  0.31007  1.0000
  H   H44       1.0  0.12329  0.48400  0.26362  1.0000
  H   H45       1.0  0.44987  0.30614  0.24059  1.0000
  H   H46       1.0  0.07640  0.34259  0.30667  1.0000
  S   S4        1.0  0.16306  0.47977  0.29938  1.0000
  C   C14       1.0  0.44371  0.15584  0.19927  1.0000
  C   C15       1.0  0.47509  0.16890  0.16582  1.0000
  C   C16       1.0  0.47017  0.15537  0.18793  1.0000
  H   H47       1.0  0.44652  0.17885  0.19806  1.0000
  H   H48       1.0  0.47778  0.24682  0.20020  1.0000
  S   S5        1.0  0.13578  0.39610  0.31519  1.0000
  H   H49       1.0  0.21249  0.48628  0.98651  1.0000
  H   H50       1.0  0.26006  0.48565  0.22914  1.0000
  C   C17       1.0  0.23511  0.44707  0.98286  1.0000
  Fe  Fe4       1.0  0.10241  0.28432  0.41304  1.0000
  S   S6        1.0  0.06841  0.23892  0.40226  1.0000
  S   S7        1.0  0.14155  0.32318  0.39377  1.0000
  Fe  Fe5       1.0  0.07787  0.26524  0.45779  1.0000
  S   S8        1.0  0.04245  0.21867  0.45032  1.0000
  S   S9        1.0  0.07853  0.28332  0.48882  1.0000
  Fe  Fe6       1.0  0.07939  0.21962  0.42971  1.0000
  S   S10       1.0  0.08123  0.17597  0.43046  1.0000
  Fe  Fe7       1.0  0.03458  0.24184  0.42380  1.0000
  H   H51       1.0  0.03147  0.22961  0.52387  1.0000
  S   S11       1.0  0.11550  0.26463  0.43935  1.0000
  S   S12       1.0  0.06789  0.28869  0.43241  1.0000
  Fe  Fe8       1.0  0.11445  0.25584  0.59948  1.0000
  S   S13       1.0  0.07891  0.21586  0.61892  1.0000
  S   S14       1.0  0.12158  0.24462  0.56749  1.0000
  H   H52       1.0  0.09220  0.14588  0.35685  1.0000
  H   H53       1.0  0.02601  0.30088  0.56828  1.0000
  C   C18       1.0  0.99389  0.19206  0.37143  1.0000
  H   H54       1.0  0.23829  0.01327  0.50626  1.0000
  S   S15       1.0  0.10127  0.28858  0.61154  1.0000
  S   S16       1.0  0.15083  0.26790  0.62144  1.0000
  Fe  Fe9       1.0  0.20571  0.12680  0.42700  1.0000
  S   S17       1.0  0.24421  0.14206  0.44744  1.0000
  S   S18       1.0  0.19841  0.16415  0.41318  1.0000
  Fe  Fe10      1.0  0.19371  0.06122  0.42990  1.0000
  S   S19       1.0  0.23181  0.07224  0.45022  1.0000
  S   S20       1.0  0.15702  0.01452  0.42207  1.0000
  Fe  Fe11      1.0  0.21475  0.09925  0.46676  1.0000
  S   S21       1.0  0.20090  0.09522  0.50053  1.0000
  Fe  Fe12      1.0  0.25825  0.11428  0.42889  1.0000
  S   S22       1.0  0.30853  0.13728  0.41838  1.0000
  S   S23       1.0  0.17512  0.08598  0.44751  1.0000
  S   S24       1.0  0.22129  0.10117  0.40745  1.0000
  Fe  Fe13      1.0  0.26699  0.11652  0.60768  1.0000
  S   S25       1.0  0.22087  0.10681  0.61872  1.0000
  S   S26       1.0  0.28449  0.12291  0.57471  1.0000
  H   H55       1.0  0.20957  0.27429  0.57840  1.0000
  H   H56       1.0  0.28254  0.10761  0.38124  1.0000
  H   H57       1.0  0.18563  0.10637  0.35885  1.0000
  C   C19       1.0  0.36254  0.21767  0.63557  1.0000
  S   S27       1.0  0.26837  0.08273  0.62963  1.0000
  S   S28       1.0  0.29045  0.15450  0.62805  1.0000
  C   C20       1.0  0.22495  0.10415  0.52076  1.0000
  C   C21       1.0  0.25574  0.11376  0.51757  1.0000
  C   C22       1.0  0.27382  0.11980  0.53427  1.0000
  C   C23       1.0  0.26127  0.11629  0.55419  1.0000
  C   C24       1.0  0.23052  0.10688  0.55735  1.0000
  C   C25       1.0  0.21245  0.10088  0.54068  1.0000
  H   H58       1.0  0.26556  0.11629  0.50229  1.0000
  H   H59       1.0  0.29762  0.12700  0.53173  1.0000
  H   H60       1.0  0.22060  0.10387  0.57262  1.0000
  H   H61       1.0  0.18858  0.09331  0.54322  1.0000
  Fe  Fe14      1.0  0.47447  0.19178  0.32994  1.0000
  H   H62       1.0  0.17645  0.23998  0.57210  1.0000
  C   C26       1.0  0.44260  0.07763  0.40407  1.0000
  H   H63       1.0  0.02316  0.15958  0.60410  1.0000
  N   N2        1.0  0.01113  0.12841  0.38916  1.0000
  H   H64       1.0  0.23653  0.20017  0.50844  1.0000
  H   H65       1.0  0.15701  0.09318  0.60762  1.0000
  S   S29       1.0  0.18035  0.02916  0.64517  1.0000
  C   C27       1.0  0.34831  0.15355  0.35220  1.0000
  H   H66       1.0  0.21210  0.11878  0.33687  1.0000
  H   H67       1.0  0.25589  0.44244  0.36313  1.0000
  C   C28       1.0  0.01341  0.18684  0.51042  1.0000
  C   C29       1.0  0.02097  0.20540  0.52918  1.0000
  H   H68       1.0  0.04670  0.15129  0.36503  1.0000
  H   H69       1.0  0.00539  0.09123  0.40944  1.0000
  H   H70       1.0  0.43171  0.05287  0.40778  1.0000
  H   H71       1.0  0.41539  0.17536  0.38418  1.0000
  H   H72       1.0  0.15021  0.04087  0.60774  1.0000
  C   C30       1.0  0.11336  0.17252  0.42403  1.0000
  C   C31       1.0  0.11232  0.14508  0.42926  1.0000
  C   C32       1.0  0.13804  0.14199  0.42585  1.0000
  C   C33       1.0  0.16492  0.16621  0.41683  1.0000
  C   C34       1.0  0.16555  0.19322  0.41083  1.0000
  C   C35       1.0  0.14003  0.19655  0.41465  1.0000
  H   H73       1.0  0.09176  0.12632  0.43648  1.0000
  H   H74       1.0  0.13718  0.12098  0.43036  1.0000
  H   H75       1.0  0.18612  0.21191  0.40356  1.0000
  H   H76       1.0  0.14104  0.21770  0.41038  1.0000
  C   C36       1.0  0.09084  0.27257  0.51051  1.0000
  C   C37       1.0  0.09250  0.28687  0.52862  1.0000
  C   C38       1.0  0.10149  0.27834  0.54638  1.0000
  C   C39       1.0  0.10878  0.25539  0.54608  1.0000
  C   C40       1.0  0.10665  0.24083  0.52811  1.0000
  C   C41       1.0  0.09782  0.24937  0.51031  1.0000
  H   H77       1.0  0.08699  0.30475  0.52887  1.0000
  H   H78       1.0  0.10324  0.28981  0.56016  1.0000
  H   H79       1.0  0.11160  0.22268  0.52819  1.0000
  H   H80       1.0  0.09609  0.23790  0.49653  1.0000
  C   C42       1.0  0.13742  0.37582  0.33702  1.0000
  C   C43       1.0  0.11045  0.35388  0.34777  1.0000
  C   C44       1.0  0.11119  0.33725  0.36504  1.0000
  C   C45       1.0  0.13898  0.34241  0.37169  1.0000
  C   C46       1.0  0.16588  0.36421  0.36085  1.0000
  C   C47       1.0  0.16512  0.38075  0.34359  1.0000
  H   H81       1.0  0.08886  0.34982  0.34283  1.0000
  H   H82       1.0  0.09030  0.32057  0.37326  1.0000
  H   H83       1.0  0.18748  0.36819  0.36576  1.0000
  H   H84       1.0  0.18598  0.39698  0.33514  1.0000
  C   C48       1.0  0.32269  0.14396  0.39259  1.0000
  C   C49       1.0  0.35249  0.16743  0.38734  1.0000
  C   C50       1.0  0.36511  0.17243  0.36721  1.0000
  H   H85       1.0  0.14267  0.46121  0.40729  1.0000
  C   C51       1.0  0.31826  0.13057  0.35734  1.0000
  C   C52       1.0  0.30548  0.12581  0.37742  1.0000
  H   H86       1.0  0.36588  0.18184  0.39891  1.0000
  C   C53       1.0  0.26605  0.22235  0.33716  1.0000
  C   C54       1.0  0.11394  0.37202  0.41831  1.0000
  H   H87       1.0  0.10648  0.35866  0.40467  1.0000
  H   H88       1.0  0.13055  0.36741  0.42569  1.0000
  H   H89       1.0  0.09384  0.36427  0.42911  1.0000
  H   H90       1.0  0.17379  0.41675  0.40905  1.0000
  C   C55       1.0  0.05898  0.12321  0.38255  1.0000
  H   H91       1.0  0.11050  0.40891  0.40501  1.0000
  C   C56       1.0  0.02573  0.15573  0.58788  1.0000
  C   C57       1.0  0.20730  0.21316  0.63921  1.0000
  H   H92       1.0  0.24652  0.24393  0.31920  1.0000
  C   C58       1.0  0.21002  0.11716  0.35374  1.0000
  C   C59       1.0  0.19579  0.19987  0.58333  1.0000
  H   H93       1.0  0.25962  0.26069  0.34298  1.0000
  H   H94       1.0  0.03156  0.25169  0.59266  1.0000
  H   H95       1.0  0.05809  0.16383  0.38963  1.0000
  C   C60       1.0  0.09164  0.14044  0.37335  1.0000
  H   H96       1.0  0.29361  0.06323  0.59011  1.0000
  C   C61       1.0  0.43041  0.16605  0.38761  1.0000
  C   C62       1.0  0.37623  0.09471  0.34602  1.0000
  H   H97       1.0  0.40296  0.07358  0.39151  1.0000
  H   H98       1.0  0.17137  0.47123  0.35986  1.0000
  S   S30       1.0  0.36382  0.15809  0.32689  1.0000
  H   H99       1.0  0.09131  0.43843  0.34884  1.0000
  C   C63       1.0  0.22631  0.18236  0.52106  1.0000
  H   H100      1.0  0.01638  0.20288  0.59172  1.0000
  C   C64       1.0  0.20863  0.00291  0.54509  1.0000
  H   H101      1.0  0.99725  0.20481  0.35669  1.0000
  H   H102      1.0  0.38539  0.09723  0.33008  1.0000
  H   H103      1.0  0.24774  0.20810  0.36847  1.0000
  H   H104      1.0  0.38787  0.19082  0.36330  1.0000
  C   C65       1.0  0.35275  0.22253  0.32549  1.0000
  H   H105      1.0  0.02946  0.12751  0.41808  1.0000
  H   H106      1.0  0.04657  0.10248  0.37416  1.0000
  H   H107      1.0  0.26700  0.02151  0.55502  1.0000
  Fe  Fe15      1.0  0.13407  0.29674  0.63578  1.0000
  H   H108      1.0  0.26106  0.00932  0.58175  1.0000
  C   C66       1.0  0.40094  0.11764  0.35867  1.0000
  H   H109      1.0  0.36784  0.21934  0.33570  1.0000
  H   H110      1.0  0.41982  0.11278  0.35830  1.0000
  H   H111      1.0  0.30494  0.11604  0.34580  1.0000
  C   C67       1.0  0.98746  0.18477  0.63012  1.0000
  C   C68       1.0  0.39608  0.13302  0.41595  1.0000
  C   C69       1.0  0.11603  0.44680  0.34839  1.0000
  C   C70       1.0  0.98317  0.11214  0.42550  1.0000
  C   C71       1.0  0.36464  0.10476  0.42208  1.0000
  C   C72       1.0  0.35386  0.10581  0.44382  1.0000
  H   H112      1.0  0.36829  0.07123  0.35213  1.0000
  H   H113      1.0  0.37255  0.12531  0.37973  1.0000
  H   H114      1.0  0.37377  0.09226  0.38584  1.0000
  H   H115      1.0  0.41118  0.13655  0.42854  1.0000
  H   H116      1.0  0.39166  0.15234  0.41609  1.0000
  H   H117      1.0  0.11727  0.44892  0.38049  1.0000
  H   H118      1.0  0.20051  0.15924  0.60968  1.0000
  H   H119      1.0  0.34741  0.10408  0.41200  1.0000
  H   H120      1.0  0.36492  0.08336  0.42098  1.0000
  H   H121      1.0  0.33089  0.08595  0.44750  1.0000
  H   H122      1.0  0.36950  0.10521  0.45480  1.0000
  H   H123      1.0  0.35242  0.12666  0.44546  1.0000
  H   H124      1.0  0.44879  0.12750  0.38468  1.0000
  S   S31       1.0  0.44849  0.21463  0.33944  1.0000
  H   H125      1.0  0.20922  0.42124  0.38526  1.0000
  N   N3        1.0  0.15568  0.20549  0.48289  1.0000
  C   C73       1.0  0.16008  0.22648  0.49957  1.0000
  C   C74       1.0  0.12356  0.19202  0.47676  1.0000
  C   C75       1.0  0.16206  0.18126  0.49076  1.0000
  C   C76       1.0  0.17707  0.22212  0.46456  1.0000
  C   C77       1.0  0.17461  0.24878  0.45478  1.0000
  C   C78       1.0  0.19321  0.24764  0.50491  1.0000
  C   C79       1.0  0.15343  0.15441  0.47702  1.0000
  C   C80       1.0  0.09834  0.17152  0.49330  1.0000
  C   C81       1.0  0.06702  0.15793  0.48487  1.0000
  C   C82       1.0  0.20110  0.26789  0.43925  1.0000
  C   C83       1.0  0.19417  0.26591  0.52301  1.0000
  C   C84       1.0  0.16087  0.13144  0.48649  1.0000
  H   H126      1.0  0.14749  0.21309  0.51385  1.0000
  H   H127      1.0  0.15002  0.24094  0.49597  1.0000
  H   H128      1.0  0.11875  0.21021  0.47189  1.0000
  H   H129      1.0  0.12039  0.17884  0.46323  1.0000
  H   H130      1.0  0.15045  0.17170  0.50607  1.0000
  H   H131      1.0  0.18663  0.19127  0.49298  1.0000
  H   H132      1.0  0.20098  0.23037  0.46814  1.0000
  H   H133      1.0  0.17303  0.20648  0.45227  1.0000
  H   H134      1.0  0.17419  0.26405  0.46614  1.0000
  H   H135      1.0  0.15350  0.23962  0.44665  1.0000
  H   H136      1.0  0.20435  0.23445  0.50887  1.0000
  H   H137      1.0  0.20665  0.26408  0.49198  1.0000
  H   H138      1.0  0.16623  0.16236  0.46203  1.0000
  H   H139      1.0  0.12886  0.14212  0.47460  1.0000
  H   H140      1.0  0.10111  0.15249  0.49911  1.0000
  H   H141      1.0  0.09853  0.18476  0.50626  1.0000
  H   H142      1.0  0.04923  0.14451  0.49716  1.0000
  H   H143      1.0  0.06312  0.17610  0.47863  1.0000
  H   H144      1.0  0.06494  0.14273  0.47263  1.0000
  H   H145      1.0  0.20241  0.25368  0.42735  1.0000
  H   H146      1.0  0.19783  0.28580  0.43180  1.0000
  H   H147      1.0  0.22280  0.27894  0.44681  1.0000
  H   H148      1.0  0.21797  0.28055  0.52692  1.0000
  H   H149      1.0  0.18442  0.28058  0.51933  1.0000
  H   H150      1.0  0.18101  0.25058  0.53647  1.0000
  H   H151      1.0  0.18581  0.14118  0.48615  1.0000
  H   H152      1.0  0.15099  0.12430  0.50237  1.0000
  H   H153      1.0  0.15131  0.11098  0.47760  1.0000
  C   C85       1.0  0.45472  0.18801  0.40153  1.0000
  H   H154      1.0  0.00247  0.24372  0.46660  1.0000
  H   H155      1.0  0.16376  0.00555  0.56307  1.0000
  H   H156      1.0  0.17516  0.19151  0.57457  1.0000
  H   H157      1.0  0.21876  0.10248  0.35952  1.0000
  H   H158      1.0  0.00810  0.27222  0.48390  1.0000
  H   H159      1.0  0.26163  0.46582  0.38425  1.0000
  H   H160      1.0  0.20421  0.43347  0.36073  1.0000
  H   H161      1.0  0.18752  0.19681  0.59962  1.0000
  H   H162      1.0  0.19901  0.04496  0.59794  1.0000
  Fe  Fe16      1.0  0.41462  0.18484  0.31800  1.0000
  H   H163      1.0  0.22816  0.04025  0.49662  1.0000
  H   H164      1.0  0.15406  0.12372  0.57825  1.0000
  H   H165      1.0  0.07535  0.34165  0.64439  1.0000
  H   H166      1.0  0.00397  0.25086  0.55141  1.0000
  H   H167      1.0  0.40576  0.08028  0.41834  1.0000
  H   H168      1.0  0.21445  0.15384  0.55664  1.0000
  N   N4        1.0  0.41166  0.13345  0.39577  1.0000
  H   H169      1.0  0.44287  0.16780  0.37299  1.0000
  H   H170      1.0  0.24170  0.04897  0.53211  1.0000
  C   C86       1.0  0.00632  0.17050  0.36931  1.0000
  H   H171      1.0  0.35670  0.09864  0.34598  1.0000
  H   H172      1.0  0.20820  0.00376  0.42348  1.0000
  C   C87       1.0  0.22513  0.19635  0.54093  1.0000
  H   H173      1.0  0.25388  0.20123  0.32914  1.0000
  H   H174      1.0  0.17790  0.47136  0.41699  1.0000
  H   H175      1.0  0.26325  0.16522  0.33878  1.0000
  H   H176      1.0  0.24479  0.05612  0.56507  1.0000
  H   H177      1.0  0.16363  0.05881  0.58252  1.0000
  H   H178      1.0  0.04072  0.30353  0.59299  1.0000
  C   C88       1.0  0.12422  0.43838  0.36865  1.0000
  H   H179      1.0  0.25656  0.47780  0.35927  1.0000
  H   H180      1.0  0.10511  0.16180  0.38098  1.0000
  H   H181      1.0  0.24039  0.17142  0.52231  1.0000
  C   C89       1.0  0.04398  0.14323  0.38126  1.0000
  C   C90       1.0  0.18183  0.99554  0.64300  1.0000
  S   S32       1.0  0.24138  0.18569  0.64267  1.0000
  H   H182      1.0  0.04998  0.16965  0.58237  1.0000
  C   C91       1.0  0.43294  0.12126  0.39842  1.0000
  C   C92       1.0  0.18569  0.02147  0.56947  1.0000
  H   H183      1.0  0.21320  0.20922  0.53845  1.0000
  H   H184      1.0  0.10241  0.12633  0.37540  1.0000
  C   C93       1.0  0.99351  0.24794  0.48099  1.0000
  N   N5        1.0  0.28152  0.19471  0.36378  1.0000
  C   C94       1.0  0.26168  0.16409  0.35560  1.0000
  C   C95       1.0  0.31401  0.20805  0.35535  1.0000
  C   C96       1.0  0.28091  0.18994  0.38660  1.0000
  C   C97       1.0  0.26980  0.21615  0.35965  1.0000
  C   C98       1.0  0.19569  0.24949  0.58206  1.0000
  C   C99       1.0  0.22735  0.14860  0.36198  1.0000
  C   C100      1.0  0.30419  0.21766  0.39778  1.0000
  S   S33       1.0  0.02191  0.24511  0.63836  1.0000
  S   S34       1.0  0.98851  0.23534  0.41716  1.0000
  H   H185      1.0  0.24432  0.32982  0.64189  1.0000
  C   C101      1.0  0.01633  0.19781  0.57548  1.0000
  C   C102      1.0  0.29974  0.21099  0.42077  1.0000
  H   H186      1.0  0.26986  0.14835  0.36020  1.0000
  H   H187      1.0  0.30555  0.20637  0.32243  1.0000
  H   H188      1.0  0.32679  0.23294  0.35708  1.0000
  H   H189      1.0  0.32575  0.19860  0.36436  1.0000
  H   H190      1.0  0.28485  0.17084  0.39053  1.0000
  H   H191      1.0  0.25819  0.18316  0.39382  1.0000
  H   H192      1.0  0.14915  0.14742  0.59579  1.0000
  H   H193      1.0  0.28519  0.23873  0.36527  1.0000
  H   H194      1.0  0.03409  0.19573  0.50000  1.0000
  C   C103      1.0  0.29463  0.05568  0.57466  1.0000
  H   H195      1.0  0.22314  0.14576  0.37867  1.0000
  C   C104      1.0  0.00823  0.11426  0.41029  1.0000
  H   H196      1.0  0.30185  0.23779  0.39460  1.0000
  H   H197      1.0  0.32779  0.22362  0.39320  1.0000
  N   N6        1.0  0.99765  0.20810  0.56406  1.0000
  H   H198      1.0  0.31387  0.17838  0.33207  1.0000
  H   H199      1.0  0.06059  0.29970  0.57117  1.0000
  H   H200      1.0  0.20319  0.16497  0.51743  1.0000
  H   H201      1.0  0.44436  0.18833  0.41655  1.0000
  C   C105      1.0  0.21508  0.23470  0.57900  1.0000
  C   C106      1.0  0.20742  0.18683  0.64594  1.0000
  C   C107      1.0  0.41832  0.08678  0.40326  1.0000
  C   C108      1.0  0.24815  0.23893  0.33546  1.0000
  H   H202      1.0  0.22481  0.22467  0.34259  1.0000
  Fe  Fe17      1.0  0.22335  0.07512  0.64211  1.0000
  H   H203      1.0  0.30297  0.19161  0.42499  1.0000
  H   H204      1.0  0.31665  0.23107  0.42835  1.0000
  H   H205      1.0  0.22763  0.23196  0.63178  1.0000
  H   H206      1.0  0.28868  0.23723  0.32924  1.0000
  C   C109      1.0  0.24387  0.19881  0.58462  1.0000
  C   C110      1.0  0.00294  0.15302  0.38985  1.0000
  H   H207      1.0  0.27668  0.20574  0.42634  1.0000
  C   C111      1.0  0.19538  0.15324  0.59371  1.0000
  H   H208      1.0  0.44659  0.07502  0.32342  1.0000
  C   C112      1.0  0.26254  0.18271  0.58140  1.0000
  C   C113      1.0  0.31951  0.20232  0.33304  1.0000
  C   C114      1.0  0.38842  0.11644  0.38067  1.0000
  H   H209      1.0  0.11068  0.41334  0.37123  1.0000
  C   C115      1.0  0.29559  0.20338  0.58598  1.0000
  H   H210      1.0  0.21531  0.48363  0.37502  1.0000
  H   H211      1.0  0.24520  0.20487  0.60075  1.0000
  H   H212      1.0  0.25648  0.22081  0.57568  1.0000
  C   C116      1.0  0.23804  0.03407  0.57324  1.0000
  C   C117      1.0  0.21513  0.44142  0.37506  1.0000
  C   C118      1.0  0.01922  0.25835  0.58213  1.0000
  H   H213      1.0  0.20407  0.13771  0.59032  1.0000
  C   C119      1.0  0.01478  0.24224  0.56199  1.0000
  H   H214      1.0  0.00785  0.15729  0.55949  1.0000
  H   H215      1.0  0.35899  0.24674  0.32470  1.0000
  Fe  Fe18      1.0  0.06787  0.24911  0.63252  1.0000
  H   H216      1.0  0.25354  0.16206  0.59166  1.0000
  H   H217      1.0  0.26243  0.17637  0.56549  1.0000
  H   H218      1.0  0.05975  0.11633  0.39855  1.0000
  C   C120      1.0  0.03777  0.29273  0.57829  1.0000
  N   N7        1.0  0.20758  0.00980  0.56711  1.0000
  H   H219      1.0  0.99787  0.08607  0.37538  1.0000
  H   H220      1.0  0.98910  0.13517  0.42989  1.0000
  H   H221      1.0  0.16143  0.43308  0.35852  1.0000
  H   H222      1.0  0.23328  0.24468  0.58979  1.0000
  H   H223      1.0  0.30829  0.19110  0.58399  1.0000
  H   H224      1.0  0.30641  0.22396  0.57544  1.0000
  H   H225      1.0  0.29707  0.21014  0.60190  1.0000
  H   H226      1.0  0.34406  0.21736  0.62707  1.0000
  H   H227      1.0  0.40915  0.14042  0.35117  1.0000
  N   N8        1.0  0.17120  0.44956  0.38868  1.0000
  H   H228      1.0  0.18649  0.24558  0.59809  1.0000
  C   C121      1.0  0.15497  0.03722  0.59183  1.0000
  H   H229      1.0  0.45523  0.22840  0.38890  1.0000
  H   H230      1.0  0.00216  0.10388  0.45236  1.0000
  H   H231      1.0  0.19882  0.00193  0.50365  1.0000
  C   C122      1.0  0.20775  0.17138  0.55813  1.0000
  C   C123      1.0  0.22117  0.02058  0.50764  1.0000
  N   N9        1.0  0.21109  0.18142  0.57954  1.0000
  C   C124      1.0  0.15837  0.44871  0.36835  1.0000
  H   H232      1.0  0.12177  0.43632  0.33583  1.0000
  H   H233      1.0  0.24887  0.21224  0.54420  1.0000
  C   C125      1.0  0.12783  0.40578  0.41245  1.0000
  H   H234      1.0  0.15368  0.40134  0.38714  1.0000
  H   H235      1.0  0.13275  0.41780  0.42675  1.0000
  H   H236      1.0  0.22566  0.24089  0.56333  1.0000
  C   C126      1.0  0.15758  0.41799  0.39878  1.0000
  H   H237      1.0  0.44786  0.13222  0.41096  1.0000
  C   C127      1.0  0.17846  0.02700  0.59142  1.0000
  H   H238      1.0  0.00838  0.18426  0.62946  1.0000
  H   H239      1.0  0.01861  0.13146  0.58676  1.0000
  H   H240      1.0  0.21872  0.28963  0.64142  1.0000
  H   H241      1.0  0.03787  0.25059  0.55477  1.0000
  H   H242      1.0  0.03055  0.18443  0.36387  1.0000
  H   H243      1.0  0.23676  0.03822  0.58959  1.0000
  H   H244      1.0  0.18354  0.15977  0.55454  1.0000
  H   H245      1.0  0.15163  0.11704  0.62492  1.0000
  C   C128      1.0  0.21905  0.02991  0.52913  1.0000
  C   C129      1.0  0.99229  0.10451  0.37491  1.0000
  C   C130      1.0  0.16034  0.13388  0.59313  1.0000
  H   H246      1.0  0.31316  0.05027  0.57356  1.0000
  C   C131      1.0  0.14708  0.10799  0.60959  1.0000
  H   H247      1.0  0.03807  0.20229  0.53705  1.0000
  H   H248      1.0  0.12215  0.09411  0.60867  1.0000
  H   H249      1.0  0.04068  0.21097  0.56992  1.0000
  H   H250      1.0  0.01714  0.17004  0.40067  1.0000
  H   H251      1.0  0.20431  0.31560  0.64144  1.0000
  H   H252      1.0  0.20265  0.03815  0.52909  1.0000
  H   H253      1.0  0.46319  0.11316  0.33125  1.0000
  C   C132      1.0  0.20504  0.46239  0.38500  1.0000
  H   H254      1.0  0.19454  0.04351  0.56073  1.0000
  H   H255      1.0  0.21748  0.16211  0.35598  1.0000
  C   C133      1.0  0.22162  0.31090  0.64743  1.0000
  S   S35       1.0  0.16783  0.34371  0.64562  1.0000
  H   H256      1.0  0.00591  0.20862  0.38294  1.0000
  C   C134      1.0  0.24941  0.45801  0.37019  1.0000
  H   H257      1.0  0.98219  0.14937  0.58139  1.0000
  C   C135      1.0  0.98775  0.21141  0.63476  1.0000
  C   C136      1.0  0.26455  0.02772  0.57060  1.0000
  H   H258      1.0  0.30010  0.07455  0.56328  1.0000
  H   H259      1.0  0.99717  0.25279  0.58984  1.0000
  Fe  Fe19      1.0  0.11464  0.22986  0.64154  1.0000
  C   C137      1.0  0.18104  0.21540  0.64206  1.0000
  H   H260      1.0  0.13343  0.01964  0.58602  1.0000
  C   C138      1.0  0.99213  0.19627  0.54312  1.0000
  S   S36       1.0  0.21261  0.47104  0.32470  1.0000
  H   H261      1.0  0.99370  0.15483  0.35754  1.0000
  C   C139      1.0  0.16688  0.47023  0.40255  1.0000
  Fe  Fe20      1.0  0.24419  0.14267  0.64079  1.0000
  H   H262      1.0  0.45850  0.08964  0.41593  1.0000
  C   C140      1.0  0.47140  0.22037  0.39192  1.0000
  H   H263      1.0  0.36463  0.19777  0.63164  1.0000
  C   C141      1.0  0.45917  0.09926  0.31794  1.0000
  H   H264      1.0  0.22374  0.99349  0.54224  1.0000
  H   H265      1.0  0.18127  0.23581  0.63694  1.0000
  H   H266      1.0  0.21639  0.46872  0.39957  1.0000
  H   H267      1.0  0.99504  0.23414  0.49372  1.0000
  H   H268      1.0  0.12839  0.47179  0.34531  1.0000
  C   C142      1.0  0.00599  0.16362  0.57516  1.0000
  H   H269      1.0  0.99811  0.11398  0.35888  1.0000
  H   H270      1.0  0.00538  0.16271  0.51485  1.0000
  H   H271      1.0  0.45563  0.08304  0.38912  1.0000
  H   H272      1.0  0.99570  0.18840  0.50212  1.0000
  H   H273      1.0  0.38423  0.23858  0.63079  1.0000
  H   H274      1.0  0.47211  0.18142  0.40389  1.0000
  H   H275      1.0  0.16912  0.00611  0.60144  1.0000
  H   H276      1.0  0.20327  0.98705  0.59655  1.0000
  C   C143      1.0  0.20694  0.99364  0.64865  1.0000
  C   C144      1.0  0.98027  0.09359  0.44499  1.0000
  H   H277      1.0  0.14868  0.98634  0.47451  1.0000
  H   H278      1.0  0.47204  0.11010  0.74485  1.0000
  S   S37       1.0  0.44129  0.24659  0.78539  1.0000
  C   C145      1.0  0.06197  0.45025  0.68947  1.0000
  S   S38       1.0  0.45562  0.19560  0.76771  1.0000
  Fe  Fe21      1.0  0.43014  0.21877  0.75780  1.0000
  S   S39       1.0  0.38090  0.19307  0.74916  1.0000
  H   H279      1.0  0.05864  0.40810  0.69971  1.0000
  H   H280      1.0  0.43747  0.27226  0.97435  1.0000
  H   H281      1.0  0.22316  0.33070  0.67570  1.0000
  H   H282      1.0  0.05616  0.41253  0.67287  1.0000
  S   S40       1.0  0.23616  0.45382  0.76859  1.0000
  H   H283      1.0  0.09211  0.21502  0.69508  1.0000
  H   H284      1.0  0.47378  0.10313  0.71097  1.0000
  N   N10       1.0  0.11235  0.41289  0.68500  1.0000
  H   H285      1.0  0.16252  0.47189  0.68946  1.0000
  C   C146      1.0  0.22357  0.22417  0.69966  1.0000
  H   H286      1.0  0.07250  0.46200  0.70329  1.0000
  Fe  Fe22      1.0  0.20487  0.43966  0.74290  1.0000
  S   S41       1.0  0.17495  0.39065  0.73470  1.0000
  C   C147      1.0  0.11191  0.42223  0.72375  1.0000
  C   C148      1.0  0.10280  0.43635  0.68233  1.0000
  H   H287      1.0  0.10938  0.44708  0.66657  1.0000
  H   H288      1.0  0.38416  0.10697  0.67995  1.0000
  H   H289      1.0  0.21688  0.21415  0.71552  1.0000
  H   H290      1.0  0.17944  0.21618  0.69359  1.0000
  H   H291      1.0  0.24753  0.24277  0.69864  1.0000
  C   C149      1.0  0.09541  0.22807  0.70881  1.0000
  N   N11       1.0  0.46590  0.14107  0.70902  1.0000
  C   C150      1.0  0.45092  0.12289  0.76796  1.0000
  C   C151      1.0  0.10800  0.40042  0.70679  1.0000
  C   C152      1.0  0.46339  0.14512  0.73142  1.0000
  C   C153      1.0  0.17008  0.35583  0.67068  1.0000
  C   C154      1.0  0.19349  0.38479  0.67478  1.0000
  C   C155      1.0  0.19538  0.39572  0.69431  1.0000
  C   C156      1.0  0.17384  0.37776  0.70997  1.0000
  C   C157      1.0  0.15069  0.34862  0.70595  1.0000
  C   C158      1.0  0.14873  0.33774  0.68640  1.0000
  H   H292      1.0  0.06898  0.37555  0.67759  1.0000
  H   H293      1.0  0.21356  0.41800  0.69725  1.0000
  H   H294      1.0  0.13387  0.33455  0.71796  1.0000
  H   H295      1.0  0.13020  0.31576  0.68334  1.0000
  C   C159      1.0  0.16901  0.45443  0.68743  1.0000
  H   H296      1.0  0.08489  0.38037  0.70990  1.0000
  S   S42       1.0  0.23870  0.47607  0.72055  1.0000
  H   H297      1.0  0.43222  0.12791  0.77019  1.0000
  Fe  Fe23      1.0  0.47017  0.22649  0.79361  1.0000
  S   S43       1.0  0.09992  0.25928  0.65735  1.0000
  H   H298      1.0  0.13440  0.44304  0.72218  1.0000
  C   C160      1.0  0.36814  0.17698  0.72562  1.0000
  C   C161      1.0  0.33686  0.15869  0.72348  1.0000
  C   C162      1.0  0.32590  0.14559  0.70497  1.0000
  C   C163      1.0  0.34616  0.15081  0.68836  1.0000
  C   C164      1.0  0.37745  0.16912  0.69052  1.0000
  C   C165      1.0  0.38836  0.18239  0.70898  1.0000
  H   H299      1.0  0.32103  0.15434  0.73630  1.0000
  H   H300      1.0  0.30184  0.13107  0.70366  1.0000
  H   H301      1.0  0.39329  0.17329  0.67775  1.0000
  H   H302      1.0  0.41234  0.19701  0.71038  1.0000
  C   C166      1.0  0.06834  0.42440  0.68623  1.0000
  H   H303      1.0  0.46511  0.23033  0.68773  1.0000
  H   H304      1.0  0.20803  0.45395  0.67297  1.0000
  C   C167      1.0  0.35561  0.21606  0.65848  1.0000
  H   H305      1.0  0.44890  0.22029  0.86101  1.0000
  H   H306      1.0  0.12346  0.37048  0.66147  1.0000
  S   S44       1.0  0.33370  0.13430  0.66488  1.0000
  H   H307      1.0  0.47259  0.24345  0.89247  1.0000
  N   N12       1.0  0.18422  0.27336  0.70132  1.0000
  C   C168      1.0  0.20519  0.26139  0.70605  1.0000
  C   C169      1.0  0.18954  0.29885  0.71470  1.0000
  C   C170      1.0  0.15211  0.24754  0.70612  1.0000
  H   H308      1.0  0.22707  0.46764  0.83696  1.0000
  H   H309      1.0  0.47102  0.15009  0.83385  1.0000
  C   C171      1.0  0.15992  0.99382  0.69880  1.0000
  C   C172      1.0  0.12698  0.25622  0.70756  1.0000
  C   C173      1.0  0.22263  0.32107  0.71982  1.0000
  C   C174      1.0  0.22515  0.34911  0.72926  1.0000
  S   S45       1.0  0.24307  0.11040  0.66551  1.0000
  C   C175      1.0  0.47602  0.29608  0.82445  1.0000
  H   H310      1.0  0.09213  0.21325  0.72252  1.0000
  H   H311      1.0  0.20118  0.25291  0.72232  1.0000
  H   H312      1.0  0.17164  0.29211  0.67598  1.0000
  H   H313      1.0  0.18000  0.31237  0.70799  1.0000
  H   H314      1.0  0.17710  0.28951  0.72984  1.0000
  H   H315      1.0  0.15028  0.23523  0.72086  1.0000
  H   H316      1.0  0.14557  0.23044  0.69448  1.0000
  C   C176      1.0  0.20281  0.23584  0.69281  1.0000
  H   H317      1.0  0.36974  0.26386  0.65798  1.0000
  H   H318      1.0  0.44615  0.15197  0.73468  1.0000
  H   H319      1.0  0.33462  0.32251  0.68450  1.0000
  H   H320      1.0  0.38892  0.07411  0.68196  1.0000
  H   H321      1.0  0.26058  0.17535  0.71427  1.0000
  H   H322      1.0  0.12880  0.27079  0.69425  1.0000
  H   H323      1.0  0.12863  0.26873  0.72132  1.0000
  H   H324      1.0  0.22994  0.30968  0.73104  1.0000
  H   H325      1.0  0.23887  0.32892  0.70639  1.0000
  H   H326      1.0  0.20900  0.34263  0.74280  1.0000
  H   H327      1.0  0.24849  0.36370  0.73402  1.0000
  H   H328      1.0  0.22030  0.36255  0.71801  1.0000
  C   C177      1.0  0.23815  0.47240  0.96817  1.0000
  Fe  Fe24      1.0  0.28836  0.12039  0.65126  1.0000
  H   H329      1.0  0.45777  0.29603  0.83422  1.0000
  S   S46       1.0  0.46939  0.25529  0.73822  1.0000
  H   H330      1.0  0.22929  0.27949  0.70446  1.0000
  C   C178      1.0  0.46245  0.18868  0.69913  1.0000
  H   H331      1.0  0.12556  0.40025  0.74656  1.0000
  H   H332      1.0  0.20986  0.24456  0.67674  1.0000
  C   C179      1.0  0.07787  0.33472  0.66000  1.0000
  C   C180      1.0  0.43440  0.12042  0.70242  1.0000
  H   H333      1.0  0.43916  0.13981  0.67103  1.0000
  H   H334      1.0  0.47231  0.14223  0.77259  1.0000
  H   H335      1.0  0.30340  0.30700  0.66826  1.0000
  C   C181      1.0  0.14496  0.42653  0.67696  1.0000
  H   H336      1.0  0.09451  0.42915  0.72340  1.0000
  H   H337      1.0  0.17942  0.26353  0.66954  1.0000
  H   H338      1.0  0.12375  0.39164  0.70944  1.0000
  H   H339      1.0  0.21922  0.46198  0.95800  1.0000
  H   H340      1.0  0.44126  0.27282  0.94702  1.0000
  N   N13       1.0  0.34455  0.24419  0.68679  1.0000
  C   C182      1.0  0.32312  0.27846  0.67346  1.0000
  C   C183      1.0  0.33882  0.27019  0.69022  1.0000
  C   C184      1.0  0.37308  0.25075  0.69692  1.0000
  C   C185      1.0  0.31892  0.21489  0.69647  1.0000
  H   H341      1.0  0.08528  0.38650  0.74741  1.0000
  H   H342      1.0  0.05558  0.32398  0.66880  1.0000
  C   C186      1.0  0.37329  0.25614  0.71997  1.0000
  H   H343      1.0  0.23723  0.30444  0.67553  1.0000
  H   H344      1.0  0.21014  0.39897  0.66273  1.0000
  H   H345      1.0  0.27162  0.15552  0.69681  1.0000
  C   C187      1.0  0.10813  0.40693  0.74483  1.0000
  C   C188      1.0  0.40493  0.26768  0.72747  1.0000
  H   H346      1.0  0.10348  0.35380  0.68591  1.0000
  C   C189      1.0  0.28791  0.20270  0.68723  1.0000
  H   H347      1.0  0.32542  0.26603  0.70493  1.0000
  H   H348      1.0  0.36062  0.29160  0.69176  1.0000
  H   H349      1.0  0.39311  0.27082  0.68898  1.0000
  H   H350      1.0  0.37748  0.23160  0.69584  1.0000
  H   H351      1.0  0.32507  0.19691  0.69618  1.0000
  H   H352      1.0  0.31505  0.21718  0.71285  1.0000
  C   C190      1.0  0.43129  0.11754  0.67919  1.0000
  H   H353      1.0  0.11505  0.45537  0.69220  1.0000
  C   C191      1.0  0.26425  0.17254  0.69798  1.0000
  H   H354      1.0  0.43262  0.09730  0.74202  1.0000
  H   H355      1.0  0.35770  0.23456  0.72887  1.0000
  H   H356      1.0  0.36637  0.27296  0.72353  1.0000
  H   H357      1.0  0.47272  0.27285  0.82530  1.0000
  H   H358      1.0  0.14698  0.43275  0.66038  1.0000
  H   H359      1.0  0.22166  0.20631  0.68965  1.0000
  H   H360      1.0  0.17287  0.44707  0.70250  1.0000
  H   H361      1.0  0.33898  0.28899  0.65975  1.0000
  H   H362      1.0  0.15255  0.40966  0.67841  1.0000
  H   H363      1.0  0.18006  0.48337  0.92364  1.0000
  H   H364      1.0  0.11083  0.42293  0.75663  1.0000
  H   H365      1.0  0.16591  0.99100  0.71440  1.0000
  H   H366      1.0  0.24238  0.16393  0.69073  1.0000
  C   C192      1.0  0.35002  0.24209  0.66438  1.0000
  H   H367      1.0  0.41324  0.25192  0.72379  1.0000
  H   H368      1.0  0.42113  0.29056  0.72039  1.0000
  H   H369      1.0  0.40416  0.26904  0.74423  1.0000
  H   H370      1.0  0.44547  0.10261  0.77793  1.0000
  H   H371      1.0  0.15773  0.01439  0.69773  1.0000
  S   S47       1.0  0.18385  0.46701  0.75332  1.0000
  H   H372      1.0  0.07792  0.23495  0.70971  1.0000
  H   H373      1.0  0.27934  0.21857  0.68922  1.0000
  H   H374      1.0  0.42536  0.09705  0.70925  1.0000
  H   H375      1.0  0.27230  0.47363  0.80831  1.0000
  H   H376      1.0  0.47965  0.21409  0.66978  1.0000
  H   H377      1.0  0.37516  0.21703  0.66582  1.0000
  C   C193      1.0  0.39818  0.09717  0.67457  1.0000
  C   C194      1.0  0.18719  0.28331  0.67911  1.0000
  H   H378      1.0  0.23574  0.42916  0.97413  1.0000
  C   C195      1.0  0.45446  0.11680  0.74582  1.0000
  H   H379      1.0  0.33517  0.19378  0.66273  1.0000
  H   H380      1.0  0.28947  0.19896  0.67089  1.0000
  C   C196      1.0  0.21903  0.30850  0.67063  1.0000
  H   H381      1.0  0.41830  0.12754  0.70835  1.0000
  H   H382      1.0  0.46657  0.11862  0.81984  1.0000
  H   H383      1.0  0.03713  0.44105  0.69154  1.0000
  H   H384      1.0  0.22661  0.01348  0.65354  1.0000
  H   H385      1.0  0.46059  0.19424  0.71504  1.0000
  C   C197      1.0  0.31426  0.30132  0.68060  1.0000
  C   C198      1.0  0.09323  0.38716  0.67189  1.0000
  H   H386      1.0  0.17859  0.99735  0.68777  1.0000
  H   H387      1.0  0.39649  0.09522  0.65790  1.0000
  H   H388      1.0  0.43799  0.24120  0.96217  1.0000
  C   C199      1.0  0.19933  0.46983  0.67483  1.0000
  H   H389      1.0  0.30340  0.46773  0.81426  1.0000
  C   C200      1.0  0.44754  0.26613  0.96142  1.0000
  C   C201      1.0  0.47821  0.21843  0.68604  1.0000
  H   H390      1.0  0.29242  0.46573  0.78856  1.0000
  H   H391      1.0  0.33048  0.23889  0.65580  1.0000
  H   H392      1.0  0.44456  0.10757  0.67284  1.0000
  Fe  Fe25      1.0  0.21890  0.48526  0.77660  1.0000
  S   S48       1.0  0.12274  0.19519  0.65834  1.0000
  H   H393      1.0  0.19687  0.47804  0.65963  1.0000
  H   H394      1.0  0.25995  0.48140  0.95907  1.0000
  H   H395      1.0  0.09412  0.39603  0.65604  1.0000
  C   C202      1.0  0.10164  0.36194  0.67054  1.0000
  H   H396      1.0  0.30241  0.25849  0.66878  1.0000
  C   C203      1.0  0.29491  0.47756  0.80277  1.0000
  H   H397      1.0  0.47404  0.30246  0.80858  1.0000
  C   C204      1.0  0.47326  0.23130  0.86162  1.0000
  H   H398      1.0  0.08510  0.31755  0.65881  1.0000
  H   H399      1.0  0.43939  0.17492  0.69387  1.0000
  H   H400      1.0  0.29787  0.29172  0.69409  1.0000
  H   H401      1.0  0.07103  0.46686  0.67612  1.0000
  S   S49       1.0  0.47254  0.20818  0.82482  1.0000
  C   C205      1.0  0.18109  0.16275  0.65562  1.0000
  H   H402      1.0  0.18098  0.14243  0.66098  1.0000
  H   H403      1.0  0.13506  0.14702  0.66707  1.0000
  C   C206      1.0  0.15511  0.16540  0.65905  1.0000
  C   C207      1.0  0.15497  0.19174  0.65233  1.0000
  S   S50       1.0  0.23598  0.52735  0.28977  1.0000
  H   H404      1.0  0.08133  0.53626  0.28143  1.0000
  H   H405      1.0  0.38194  0.60291  0.15202  1.0000
  C   C208      1.0  0.31728  0.70842  0.04798  1.0000
  C   C209      1.0  0.37768  0.62623  0.07830  1.0000
  S   S51       1.0  0.44464  0.66600  0.22124  1.0000
  H   H406      1.0  0.42153  0.71882  0.10708  1.0000
  Fe  Fe26      1.0  0.23054  0.71417  0.26962  1.0000
  S   S52       1.0  0.23312  0.67732  0.28723  1.0000
  S   S53       1.0  0.24648  0.72773  0.23630  1.0000
  H   H407      1.0  0.30214  0.72744  0.28707  1.0000
  H   H408      1.0  0.37756  0.67379  0.09784  1.0000
  H   H409      1.0  0.32728  0.63189  0.27745  1.0000
  H   H410      1.0  0.28692  0.64670  0.30472  1.0000
  C   C210      1.0  0.41864  0.73789  0.10150  1.0000
  C   C211      1.0  0.35358  0.69629  0.06568  1.0000
  H   H411      1.0  0.46421  0.84867  0.29500  1.0000
  S   S54       1.0  0.25180  0.74872  0.29311  1.0000
  S   S55       1.0  0.18320  0.70003  0.28187  1.0000
  Fe  Fe27      1.0  0.41464  0.65738  0.29617  1.0000
  H   H412      1.0  0.32145  0.53040  0.24506  1.0000
  Fe  Fe28      1.0  0.42317  0.71650  0.27893  1.0000
  H   H413      1.0  0.10459  0.53515  0.23790  1.0000
  S   S56       1.0  0.39674  0.66912  0.26893  1.0000
  C   C212      1.0  0.21103  0.52248  0.22133  1.0000
  Fe  Fe29      1.0  0.28861  0.62432  0.10175  1.0000
  S   S57       1.0  0.24862  0.60054  0.12514  1.0000
  S   S58       1.0  0.28273  0.62727  0.06674  1.0000
  Fe  Fe30      1.0  0.33272  0.64817  0.13647  1.0000
  S   S59       1.0  0.29667  0.62692  0.16180  1.0000
  S   S60       1.0  0.38280  0.67521  0.14139  1.0000
  Fe  Fe31      1.0  0.27704  0.58663  0.14277  1.0000
  S   S61       1.0  0.26096  0.54040  0.15854  1.0000
  Fe  Fe32      1.0  0.27089  0.64243  0.14290  1.0000
  S   S62       1.0  0.24222  0.66157  0.15549  1.0000
  S   S63       1.0  0.31528  0.60679  0.11835  1.0000
  S   S64       1.0  0.30877  0.66737  0.11865  1.0000
  H   H414      1.0  0.31697  0.69557  0.03467  1.0000
  C   C213      1.0  0.29046  0.62507  0.03999  1.0000
  C   C214      1.0  0.31028  0.61528  0.03297  1.0000
  C   C215      1.0  0.31608  0.61448  0.01183  1.0000
  C   C216      1.0  0.30223  0.62334  0.99709  1.0000
  C   C217      1.0  0.28235  0.63306  0.00409  1.0000
  C   C218      1.0  0.27652  0.63382  0.02525  1.0000
  H   H415      1.0  0.32102  0.60806  0.04385  1.0000
  H   H416      1.0  0.33148  0.60687  0.00685  1.0000
  C   C219      1.0  0.08302  0.52459  0.26796  1.0000
  H   H417      1.0  0.26113  0.64144  0.03024  1.0000
  C   C220      1.0  0.42612  0.66913  0.19989  1.0000
  C   C221      1.0  0.40087  0.67326  0.20132  1.0000
  C   C222      1.0  0.38643  0.67407  0.18358  1.0000
  C   C223      1.0  0.39772  0.67150  0.16441  1.0000
  C   C224      1.0  0.42319  0.66797  0.16316  1.0000
  C   C225      1.0  0.43689  0.66624  0.18074  1.0000
  H   H418      1.0  0.39245  0.67571  0.21602  1.0000
  H   H419      1.0  0.36716  0.67749  0.18467  1.0000
  H   H420      1.0  0.43233  0.66635  0.14849  1.0000
  C   C226      1.0  0.21671  0.50064  0.21337  1.0000
  C   C227      1.0  0.24231  0.70429  0.21598  1.0000
  C   C228      1.0  0.25944  0.68977  0.21364  1.0000
  C   C229      1.0  0.25966  0.67618  0.19528  1.0000
  C   C230      1.0  0.24242  0.67670  0.17938  1.0000
  C   C231      1.0  0.22457  0.69020  0.18219  1.0000
  C   C232      1.0  0.22492  0.70428  0.20012  1.0000
  H   H421      1.0  0.27380  0.69052  0.22548  1.0000
  H   H422      1.0  0.27382  0.66620  0.19316  1.0000
  H   H423      1.0  0.21129  0.69087  0.17003  1.0000
  H   H424      1.0  0.21231  0.71607  0.20144  1.0000
  C   C233      1.0  0.23202  0.50615  0.19406  1.0000
  C   C234      1.0  0.31705  0.52645  0.29920  1.0000
  C   C235      1.0  0.34806  0.73682  0.28190  1.0000
  S   S65       1.0  0.14952  0.61741  0.30541  1.0000
  C   C236      1.0  0.33532  0.52841  0.31495  1.0000
  H   H425      1.0  0.12573  0.55291  0.30802  1.0000
  S   S66       1.0  0.46638  0.72828  0.26125  1.0000
  H   H426      1.0  0.34868  0.74098  0.26565  1.0000
  H   H427      1.0  0.41181  0.68985  0.03934  1.0000
  H   H428      1.0  0.29963  0.64153  0.26973  1.0000
  C   C237      1.0  0.36838  0.64909  0.07132  1.0000
  C   C238      1.0  0.22128  0.54996  0.21008  1.0000
  C   C239      1.0  0.23630  0.55543  0.19082  1.0000
  C   C240      1.0  0.24174  0.53358  0.18268  1.0000
  C   C241      1.0  0.43156  0.73101  0.02070  1.0000
  C   C242      1.0  0.37571  0.58227  0.22787  1.0000
  H   H429      1.0  0.21734  0.56709  0.21609  1.0000
  H   H430      1.0  0.24331  0.57647  0.18216  1.0000
  H   H431      1.0  0.29858  0.69310  0.05928  1.0000
  C   C243      1.0  0.21388  0.56355  0.00568  1.0000
  H   H432      1.0  0.23093  0.56942  0.01722  1.0000
  N   N14       1.0  0.38461  0.70642  0.07318  1.0000
  H   H433      1.0  0.12276  0.71136  0.29979  1.0000
  H   H434      1.0  0.37527  0.62281  0.09514  1.0000
  Fe  Fe33      1.0  0.24182  0.48720  0.29557  1.0000
  H   H435      1.0  0.25041  0.50249  0.99308  1.0000
  H   H436      1.0  0.36551  0.73673  0.04555  1.0000
  C   C244      1.0  0.37271  0.73374  0.31173  1.0000
  C   C245      1.0  0.34596  0.58133  0.29337  1.0000
  Fe  Fe34      1.0  0.19682  0.49554  0.27239  1.0000
  C   C246      1.0  0.40958  0.72436  0.05689  1.0000
  S   S67       1.0  0.40639  0.74921  0.27553  1.0000
  C   C247      1.0  0.32237  0.55293  0.28834  1.0000
  H   H437      1.0  0.30824  0.55149  0.27620  1.0000
  H   H438      1.0  0.25944  0.55296  0.99389  1.0000
  H   H439      1.0  0.18868  0.56817  0.27183  1.0000
  H   H440      1.0  0.42361  0.83737  0.27172  1.0000
  H   H441      1.0  0.45465  0.73980  0.02611  1.0000
  N   N15       1.0  0.32539  0.57723  0.21550  1.0000
  C   C248      1.0  0.33336  0.56812  0.19567  1.0000
  C   C249      1.0  0.31412  0.59881  0.21030  1.0000
  C   C250      1.0  0.35184  0.59270  0.22875  1.0000
  C   C251      1.0  0.35556  0.59459  0.18048  1.0000
  C   C252      1.0  0.30050  0.60806  0.22822  1.0000
  C   C253      1.0  0.36700  0.58346  0.16291  1.0000
  C   C254      1.0  0.29362  0.63265  0.22107  1.0000
  H   H442      1.0  0.31239  0.55421  0.18759  1.0000
  H   H443      1.0  0.45242  0.77682  0.30811  1.0000
  H   H444      1.0  0.29667  0.58913  0.19893  1.0000
  H   H445      1.0  0.33292  0.62035  0.20293  1.0000
  H   H446      1.0  0.36492  0.61757  0.22488  1.0000
  H   H447      1.0  0.34338  0.59058  0.24488  1.0000
  H   H448      1.0  0.34400  0.60600  0.17370  1.0000
  H   H449      1.0  0.37532  0.61151  0.18818  1.0000
  H   H450      1.0  0.31650  0.61685  0.24044  1.0000
  H   H451      1.0  0.27869  0.58856  0.23458  1.0000
  H   H452      1.0  0.41392  0.58733  0.24420  1.0000
  H   H453      1.0  0.34764  0.56656  0.15473  1.0000
  H   H454      1.0  0.38026  0.57321  0.16857  1.0000
  H   H455      1.0  0.31456  0.65314  0.21458  1.0000
  H   H456      1.0  0.27665  0.62404  0.20938  1.0000
  H   H457      1.0  0.28415  0.63930  0.23400  1.0000
  C   C255      1.0  0.38892  0.72671  0.09040  1.0000
  H   H458      1.0  0.41051  0.68503  0.08174  1.0000
  H   H459      1.0  0.22009  0.58409  0.99575  1.0000
  H   H460      1.0  0.36957  0.71488  0.10206  1.0000
  H   H461      1.0  0.30332  0.56108  0.98367  1.0000
  H   H462      1.0  0.34822  0.68021  0.05356  1.0000
  H   H463      1.0  0.40157  0.63422  0.07301  1.0000
  H   H464      1.0  0.19150  0.55603  0.01373  1.0000
  S   S68       1.0  0.43657  0.70390  0.30794  1.0000
  H   H465      1.0  0.33682  0.63125  0.31455  1.0000
  C   C256      1.0  0.32175  0.72922  0.29402  1.0000
  H   H466      1.0  0.14474  0.54820  0.26048  1.0000
  H   H467      1.0  0.43599  0.80915  0.29632  1.0000
  H   H468      1.0  0.40322  0.61522  0.24938  1.0000
  H   H469      1.0  0.27141  0.64003  0.99320  1.0000
  H   H470      1.0  0.43192  0.72998  0.06255  1.0000
  H   H471      1.0  0.34729  0.73547  0.06991  1.0000
  Fe  Fe35      1.0  0.18754  0.66568  0.30122  1.0000
  H   H472      1.0  0.34999  0.60176  0.28512  1.0000
  H   H473      1.0  0.27935  0.54024  0.21755  1.0000
  H   H474      1.0  0.37140  0.65189  0.05457  1.0000
  H   H475      1.0  0.24873  0.62749  0.26306  1.0000
  H   H476      1.0  0.33314  0.66949  0.28068  1.0000
  H   H477      1.0  0.41139  0.74667  0.05328  1.0000
  C   C257      1.0  0.29951  0.54953  0.22673  1.0000
  H   H478      1.0  0.36288  0.60412  0.07186  1.0000
  C   C258      1.0  0.44215  0.83275  0.26753  1.0000
  H   H479      1.0  0.43001  0.71918  0.00660  1.0000
  H   H480      1.0  0.43259  0.81229  0.25859  1.0000
  H   H481      1.0  0.24423  0.59257  0.27421  1.0000
  C   C259      1.0  0.38645  0.67943  0.08161  1.0000
  H   H482      1.0  0.36555  0.55756  0.22695  1.0000
  H   H483      1.0  0.34383  0.63907  0.07562  1.0000
  H   H484      1.0  0.08516  0.67921  0.30484  1.0000
  H   H485      1.0  0.38029  0.57683  0.26018  1.0000
  H   H486      1.0  0.42790  0.75028  0.01697  1.0000
  H   H487      1.0  0.31427  0.51643  0.21988  1.0000
  H   H488      1.0  0.26510  0.50132  0.25383  1.0000
  H   H489      1.0  0.11561  0.67407  0.29448  1.0000
  C   C260      1.0  0.31596  0.64495  0.28132  1.0000
  H   H490      1.0  0.43866  0.75340  0.09123  1.0000
  N   N16       1.0  0.16032  0.59240  0.24522  1.0000
  C   C261      1.0  0.18954  0.60759  0.25585  1.0000
  C   C262      1.0  0.14792  0.61375  0.24254  1.0000
  C   C263      1.0  0.13752  0.56536  0.25872  1.0000
  C   C264      1.0  0.16404  0.58102  0.22514  1.0000
  C   C265      1.0  0.18876  0.60454  0.20954  1.0000
  C   C266      1.0  0.20386  0.58795  0.26133  1.0000
  C   C267      1.0  0.10492  0.54773  0.25137  1.0000
  C   C268      1.0  0.17110  0.64822  0.24030  1.0000
  C   C269      1.0  0.15603  0.66646  0.23427  1.0000
  C   C270      1.0  0.18757  0.59066  0.18915  1.0000
  C   C271      1.0  0.23296  0.60618  0.27212  1.0000
  H   H491      1.0  0.18581  0.61630  0.27029  1.0000
  H   H492      1.0  0.20732  0.62772  0.24658  1.0000
  H   H493      1.0  0.13358  0.60790  0.22929  1.0000
  H   H494      1.0  0.13269  0.61126  0.25599  1.0000
  H   H495      1.0  0.13606  0.57272  0.27418  1.0000
  H   H496      1.0  0.16864  0.56202  0.22757  1.0000
  H   H497      1.0  0.14246  0.57119  0.21740  1.0000
  H   H498      1.0  0.21167  0.61294  0.21514  1.0000
  H   H499      1.0  0.18525  0.62387  0.20627  1.0000
  H   H500      1.0  0.20963  0.57996  0.24742  1.0000
  C   C272      1.0  0.37338  0.73873  0.29072  1.0000
  H   H501      1.0  0.09603  0.56291  0.24724  1.0000
  H   H502      1.0  0.18139  0.65605  0.25496  1.0000
  H   H503      1.0  0.18972  0.65384  0.22887  1.0000
  H   H504      1.0  0.17308  0.69102  0.23359  1.0000
  H   H505      1.0  0.14701  0.66070  0.21903  1.0000
  H   H506      1.0  0.13740  0.66205  0.24562  1.0000
  H   H507      1.0  0.16848  0.58909  0.18072  1.0000
  H   H508      1.0  0.20895  0.60519  0.17976  1.0000
  H   H509      1.0  0.18462  0.56768  0.19113  1.0000
  H   H510      1.0  0.22773  0.61183  0.28731  1.0000
  H   H511      1.0  0.31326  0.72695  0.04277  1.0000
  H   H512      1.0  0.33593  0.68313  0.07813  1.0000
  H   H513      1.0  0.20511  0.51826  0.00373  1.0000
  H   H514      1.0  0.38518  0.70050  0.03032  1.0000
  S   S69       1.0  0.28743  0.49068  0.29373  1.0000
  H   H515      1.0  0.34311  0.55328  0.19812  1.0000
  H   H516      1.0  0.38890  0.74753  0.08496  1.0000
  C   C273      1.0  0.40750  0.70890  0.03679  1.0000
  S   S70       1.0  0.18785  0.51469  0.24386  1.0000
  H   H517      1.0  0.25399  0.85916  0.30908  1.0000
  S   S71       1.0  0.45710  0.66422  0.27966  1.0000
  Fe  Fe36      1.0  0.44092  0.67993  0.25300  1.0000
  C   C274      1.0  0.39437  0.59101  0.24656  1.0000
  C   C275      1.0  0.27602  0.49544  0.24129  1.0000
  C   C276      1.0  0.30532  0.52344  0.23287  1.0000
  H   H518      1.0  0.29257  0.55549  0.24123  1.0000
  H   H519      1.0  0.39158  0.59333  0.21424  1.0000
  C   C277      1.0  0.34785  0.72170  0.05744  1.0000
  C   C278      1.0  0.14712  0.56364  0.31503  1.0000
  C   C279      1.0  0.32110  0.72447  0.31506  1.0000
  H   H520      1.0  0.28284  0.60978  0.30234  1.0000
  C   C280      1.0  0.29942  0.63434  0.30238  1.0000
  H   H521      1.0  0.41719  0.77559  0.11511  1.0000
  H   H522      1.0  0.46909  0.79811  0.27333  1.0000
  H   H523      1.0  0.45630  0.66305  0.17945  1.0000
  Fe  Fe37      1.0  0.25084  0.71047  0.31153  1.0000
  Fe  Fe38      1.0  0.47821  0.71185  0.28970  1.0000
  C   C281      1.0  0.45514  0.82766  0.28677  1.0000
  H   H524      1.0  0.39938  0.74063  0.13095  1.0000
  Fe  Fe39      1.0  0.20447  0.73094  0.30712  1.0000
  H   H525      1.0  0.23617  0.48912  0.18786  1.0000
  C   C282      1.0  0.10972  0.68703  0.30511  1.0000
  H   H526      1.0  0.06013  0.51140  0.26215  1.0000
  C   C283      1.0  0.36311  0.58324  0.30988  1.0000
  C   C284      1.0  0.21218  0.53826  0.99307  1.0000
  H   H527      1.0  0.09081  0.50864  0.27266  1.0000
  C   C285      1.0  0.41872  0.75536  0.11988  1.0000
  H   H528      1.0  0.45996  0.85236  0.25790  1.0000
  H   H529      1.0  0.44002  0.76289  0.12766  1.0000
  C   C286      1.0  0.47256  0.79464  0.31534  1.0000
  Fe  Fe40      1.0  0.08302  0.79860  0.45442  1.0000
  S   S72       1.0  0.07886  0.83504  0.43737  1.0000
  S   S73       1.0  0.06355  0.78637  0.48710  1.0000
  Fe  Fe41      1.0  0.10642  0.78205  0.41590  1.0000
  S   S74       1.0  0.10296  0.81675  0.39618  1.0000
  S   S75       1.0  0.12358  0.75081  0.40531  1.0000
  Fe  Fe42      1.0  0.12364  0.84763  0.42156  1.0000
  S   S76       1.0  0.16515  0.89459  0.41637  1.0000
  Fe  Fe43      1.0  0.05829  0.80090  0.41385  1.0000
  S   S77       1.0  0.01607  0.79501  0.39961  1.0000
  S   S78       1.0  0.12964  0.81373  0.44055  1.0000
  S   S79       1.0  0.06008  0.76369  0.43160  1.0000
  Fe  Fe44      1.0  0.12522  0.82855  0.59453  1.0000
  S   S80       1.0  0.11124  0.85886  0.60958  1.0000
  S   S81       1.0  0.14471  0.83932  0.56188  1.0000
  Fe  Fe45      1.0  0.07569  0.81599  0.62696  1.0000
  C   C287      1.0  0.19157  0.82386  0.40079  1.0000
  Fe  Fe46      1.0  0.14185  0.86141  0.63373  1.0000
  C   C288      1.0  0.11513  0.89340  0.55801  1.0000
  S   S82       1.0  0.08747  0.78537  0.61009  1.0000
  S   S83       1.0  0.15832  0.83384  0.61768  1.0000
  H   H530      1.0  0.11741  0.97827  0.45926  1.0000
  N   N17       1.0  0.11591  0.89744  0.49862  1.0000
  H   H531      1.0  0.37089  0.55813  0.33339  1.0000
  H   H532      1.0  0.19476  0.80959  0.38980  1.0000
  C   C289      1.0  0.12369  0.97231  0.47392  1.0000
  H   H533      1.0  0.34661  0.72437  0.34024  1.0000
  C   C290      1.0  0.16247  0.92757  0.41893  1.0000
  C   C291      1.0  0.18898  0.95552  0.42074  1.0000
  C   C292      1.0  0.13460  0.92654  0.41883  1.0000
  H   H534      1.0  0.14698  0.52179  0.32098  1.0000
  H   H535      1.0  0.11406  0.90519  0.41736  1.0000
  C   C293      1.0  0.08646  0.79959  0.50788  1.0000
  C   C294      1.0  0.11805  0.81575  0.50512  1.0000
  C   C295      1.0  0.13565  0.82729  0.52191  1.0000
  C   C296      1.0  0.12179  0.82258  0.54154  1.0000
  C   C297      1.0  0.09018  0.80596  0.54435  1.0000
  C   C298      1.0  0.07259  0.79453  0.52754  1.0000
  H   H536      1.0  0.12892  0.81956  0.49005  1.0000
  H   H537      1.0  0.16010  0.84003  0.51968  1.0000
  H   H538      1.0  0.07931  0.80224  0.55942  1.0000
  H   H539      1.0  0.04813  0.78194  0.52976  1.0000
  H   H540      1.0  0.36726  0.68458  0.34196  1.0000
  C   C299      1.0  0.98076  0.76897  0.41222  1.0000
  H   H541      1.0  0.28664  0.63087  0.63156  1.0000
  N   N18       1.0  0.30914  0.63090  0.34049  1.0000
  H   H542      1.0  0.20339  0.51468  0.38910  1.0000
  H   H543      1.0  0.17040  0.96905  0.58269  1.0000
  C   C300      1.0  0.17424  0.52213  0.40926  1.0000
  C   C301      1.0  0.16811  0.75749  0.34183  1.0000
  C   C302      1.0  0.14981  0.77057  0.34489  1.0000
  C   C303      1.0  0.13606  0.76873  0.36424  1.0000
  C   C304      1.0  0.14084  0.75415  0.38078  1.0000
  C   C305      1.0  0.15927  0.74121  0.37776  1.0000
  C   C306      1.0  0.17286  0.74286  0.35838  1.0000
  H   H544      1.0  0.12142  0.77820  0.36629  1.0000
  H   H545      1.0  0.16316  0.72996  0.39049  1.0000
  H   H546      1.0  0.18734  0.73320  0.35629  1.0000
  S   S84       1.0  0.28823  0.71462  0.33036  1.0000
  C   C307      1.0  0.98376  0.74602  0.48604  1.0000
  H   H547      1.0  0.26453  0.96175  0.37134  1.0000
  H   H548      1.0  0.20243  0.77181  0.64829  1.0000
  Fe  Fe47      1.0  0.11972  0.79337  0.63478  1.0000
  H   H549      1.0  0.23421  0.86532  0.39693  1.0000
  H   H550      1.0  0.06252  0.66243  0.35358  1.0000
  C   C308      1.0  0.25822  0.91637  0.37554  1.0000
  H   H551      1.0  0.01673  0.70751  0.37712  1.0000
  H   H552      1.0  0.12596  0.93462  0.46266  1.0000
  H   H553      1.0  0.25576  0.79055  0.64351  1.0000
  H   H554      1.0  0.14596  0.78186  0.33217  1.0000
  H   H555      1.0  0.06346  0.71795  0.61759  1.0000
  C   C309      1.0  0.20046  0.81758  0.42146  1.0000
  H   H556      1.0  0.01503  0.74992  0.62155  1.0000
  H   H557      1.0  0.20307  0.87030  0.40406  1.0000
  H   H558      1.0  0.21288  0.90937  0.37752  1.0000
  H   H559      1.0  0.09681  0.88294  0.46942  1.0000
  H   H560      1.0  0.20348  0.82744  0.35591  1.0000
  C   C310      1.0  0.29849  0.57670  0.33447  1.0000
  H   H561      1.0  0.14003  0.92746  0.53382  1.0000
  C   C311      1.0  0.07381  0.55499  0.35662  1.0000
  H   H562      1.0  0.16600  0.86427  0.37903  1.0000
  C   C312      1.0  0.09404  0.58809  0.34901  1.0000
  H   H563      1.0  0.10334  0.93057  0.50735  1.0000
  H   H564      1.0  0.26070  0.61721  0.37142  1.0000
  C   C313      1.0  0.28682  0.59734  0.34262  1.0000
  C   C314      1.0  0.13916  0.65250  0.35730  1.0000
  H   H565      1.0  0.25602  0.83868  0.33121  1.0000
  H   H566      1.0  0.28590  0.52929  0.33538  1.0000
  C   C315      1.0  0.03788  0.69265  0.64558  1.0000
  H   H567      1.0  0.04958  0.54759  0.35483  1.0000
  C   C316      1.0  0.10634  0.88546  0.52054  1.0000
  C   C317      1.0  0.26565  0.66110  0.37358  1.0000
  H   H568      1.0  0.02289  0.70273  0.61729  1.0000
  H   H569      1.0  0.22426  0.82242  0.42043  1.0000
  H   H570      1.0  0.27354  0.64167  0.33689  1.0000
  C   C318      1.0  0.27605  0.94910  0.36667  1.0000
  C   C319      1.0  0.05897  0.86571  0.49205  1.0000
  H   H571      1.0  0.25472  0.63471  0.63990  1.0000
  H   H572      1.0  0.16641  0.50309  0.38027  1.0000
  H   H573      1.0  0.30785  0.67220  0.34362  1.0000
  C   C320      1.0  0.11931  0.92859  0.49635  1.0000
  H   H574      1.0  0.32601  0.62602  0.36925  1.0000
  H   H575      1.0  0.05096  0.85012  0.50595  1.0000
  S   S85       1.0  0.20539  0.69530  0.32729  1.0000
  H   H576      1.0  0.27158  0.53950  0.35723  1.0000
  H   H577      1.0  0.10423  0.86848  0.56108  1.0000
  C   C321      1.0  0.15578  0.94171  0.63663  1.0000
  C   C322      1.0  0.27923  0.64109  0.36882  1.0000
  H   H578      1.0  0.16352  0.91488  0.50323  1.0000
  C   C323      1.0  0.99437  0.77569  0.63088  1.0000
  C   C324      1.0  0.06591  0.65596  0.36903  1.0000
  H   H579      1.0  0.04812  0.63215  0.37312  1.0000
  H   H580      1.0  0.28360  0.68537  0.37229  1.0000
  H   H581      1.0  0.19787  0.83162  0.43298  1.0000
  H   H582      1.0  0.16201  0.82944  0.37161  1.0000
  H   H583      1.0  0.07719  0.70035  0.37925  1.0000
  H   H584      1.0  0.14813  0.89683  0.53545  1.0000
  C   C325      1.0  0.99393  0.74926  0.62542  1.0000
  H   H585      1.0  0.14231  0.94608  0.50037  1.0000
  C   C326      1.0  0.11778  0.68316  0.32662  1.0000
  H   H586      1.0  0.25486  0.53593  0.33309  1.0000
  H   H587      1.0  0.04147  0.87204  0.63505  1.0000
  H   H588      1.0  0.12811  0.86230  0.35593  1.0000
  C   C327      1.0  0.19032  0.60868  0.32605  1.0000
  C   C328      1.0  0.26584  0.62093  0.64195  1.0000
  C   C329      1.0  0.03742  0.84895  0.47566  1.0000
  H   H589      1.0  0.04421  0.86326  0.46123  1.0000
  H   H590      1.0  0.17086  0.92212  0.59655  1.0000
  H   H591      1.0  0.11181  0.95251  0.41930  1.0000
  H   H592      1.0  0.18069  0.88120  0.46951  1.0000
  C   C330      1.0  0.18155  0.65409  0.37703  1.0000
  H   H593      1.0  0.13597  0.92175  0.63203  1.0000
  C   C331      1.0  0.35715  0.67177  0.35675  1.0000
  H   H594      1.0  0.26573  0.59187  0.33504  1.0000
  H   H595      1.0  0.18543  0.79333  0.42650  1.0000
  H   H596      1.0  0.33135  0.50803  0.32331  1.0000
  H   H597      1.0  0.09058  0.58978  0.33263  1.0000
  C   C332      1.0  0.13339  0.95339  0.41991  1.0000
  C   C333      1.0  0.05383  0.89170  0.64444  1.0000
  H   H598      1.0  0.03773  0.67192  0.38318  1.0000
  H   H599      1.0  0.22759  0.96654  0.56941  1.0000
  C   C334      1.0  0.35776  0.55674  0.32059  1.0000
  H   H600      1.0  0.20958  0.94192  0.60384  1.0000
  H   H601      1.0  0.34560  0.68228  0.36483  1.0000
  H   H602      1.0  0.39879  0.70017  0.37121  1.0000
  H   H603      1.0  0.11784  0.59377  0.35048  1.0000
  H   H604      1.0  0.08603  0.60397  0.37758  1.0000
  C   C335      1.0  0.06120  0.67604  0.38366  1.0000
  H   H605      1.0  0.06482  0.67111  0.39950  1.0000
  H   H606      1.0  0.24993  0.59747  0.63788  1.0000
  H   H607      1.0  0.32043  0.58210  0.34049  1.0000
  H   H608      1.0  0.20428  0.91775  0.47968  1.0000
  S   S86       1.0  0.12478  0.75399  0.64730  1.0000
  H   H609      1.0  0.10039  0.86128  0.52220  1.0000
  H   H610      1.0  0.09913  0.65289  0.38633  1.0000
  H   H611      1.0  0.46401  0.74667  0.35746  1.0000
  C   C336      1.0  0.34678  0.72721  0.32393  1.0000
  H   H612      1.0  0.01403  0.84319  0.48069  1.0000
  C   C337      1.0  0.29280  0.64745  0.34655  1.0000
  H   H613      1.0  0.05707  0.88586  0.49538  1.0000
  C   C338      1.0  0.18018  0.93945  0.64344  1.0000
  C   C339      1.0  0.15639  0.96956  0.63680  1.0000
  H   H614      1.0  0.13269  0.90453  0.56906  1.0000
  H   H615      1.0  0.37478  0.66369  0.38441  1.0000
  H   H616      1.0  0.39661  0.66682  0.36117  1.0000
  H   H617      1.0  0.29663  0.64547  0.37980  1.0000
  H   H618      1.0  0.29914  0.96045  0.37235  1.0000
  H   H619      1.0  0.19858  0.91515  0.45297  1.0000
  C   C340      1.0  0.12980  0.90258  0.53637  1.0000
  H   H620      1.0  0.09782  0.90031  0.56036  1.0000
  C   C341      1.0  0.19498  0.93229  0.59096  1.0000
  H   H621      1.0  0.15313  0.67758  0.35525  1.0000
  H   H622      1.0  0.19842  0.91397  0.58518  1.0000
  H   H623      1.0  0.24802  0.65759  0.36291  1.0000
  H   H624      1.0  0.06220  0.60195  0.35831  1.0000
  H   H625      1.0  0.34894  0.62858  0.34768  1.0000
  H   H626      1.0  0.14342  0.89578  0.46032  1.0000
  H   H627      1.0  0.17284  0.84566  0.33595  1.0000
  C   C342      1.0  0.14575  0.89890  0.49361  1.0000
  H   H628      1.0  0.07713  0.55175  0.37285  1.0000
  C   C343      1.0  0.04084  0.69831  0.62250  1.0000
  H   H629      1.0  0.22231  0.87450  0.32897  1.0000
  H   H630      1.0  0.03725  0.82750  0.47298  1.0000
  C   C344      1.0  0.15966  0.90923  0.47157  1.0000
  H   H631      1.0  0.22231  0.60131  0.34196  1.0000
  H   H632      1.0  0.25505  0.65541  0.38931  1.0000
  H   H633      1.0  0.14738  0.64391  0.34472  1.0000
  C   C345      1.0  0.38337  0.67573  0.36918  1.0000
  C   C346      1.0  0.16315  0.59511  0.31633  1.0000
  H   H634      1.0  0.23169  0.82597  0.63506  1.0000
  H   H635      1.0  0.30118  0.57933  0.31768  1.0000
  H   H636      1.0  0.00621  0.73076  0.36236  1.0000
  H   H637      1.0  0.22578  0.90754  0.35277  1.0000
  C   C347      1.0  0.17551  0.85426  0.36829  1.0000
  H   H638      1.0  0.18691  0.52367  0.42289  1.0000
  H   H639      1.0  0.16739  0.93360  0.46852  1.0000
  H   H640      1.0  0.25853  0.88788  0.33892  1.0000
  C   C348      1.0  0.08618  0.60917  0.36104  1.0000
  H   H641      1.0  0.07986  0.54054  0.34763  1.0000
  C   C349      1.0  0.21034  0.85793  0.39375  1.0000
  H   H642      1.0  0.99176  0.76898  0.49150  1.0000
  H   H643      1.0  0.21063  0.95649  0.42083  1.0000
  H   H644      1.0  0.99786  0.74448  0.42892  1.0000
  C   C350      1.0  0.09223  0.87483  0.48566  1.0000
  Fe  Fe48      1.0  0.20297  0.50836  0.31708  1.0000
  C   C351      1.0  0.10157  0.64924  0.33410  1.0000
  S   S87       1.0  0.17853  0.90417  0.64644  1.0000
  H   H645      1.0  0.03857  0.67811  0.61514  1.0000
  C   C352      1.0  0.18749  0.90557  0.46833  1.0000
  C   C353      1.0  0.45757  0.76043  0.34769  1.0000
  H   H646      1.0  0.18774  0.64357  0.36465  1.0000
  H   H647      1.0  0.11142  0.69653  0.33646  1.0000
  C   C354      1.0  0.20153  0.59082  0.33428  1.0000
  H   H648      1.0  0.12020  0.82475  0.34994  1.0000
  H   H649      1.0  0.14342  0.87638  0.49717  1.0000
  H   H650      1.0  0.13527  0.61866  0.38091  1.0000
  N   N19       1.0  0.10616  0.64265  0.35572  1.0000
  H   H651      1.0  0.18282  0.54539  0.40241  1.0000
  H   H652      1.0  0.99392  0.74873  0.47037  1.0000
  H   H653      1.0  0.07703  0.63884  0.33158  1.0000
  H   H654      1.0  0.45583  0.77717  0.35711  1.0000
  H   H655      1.0  0.27942  0.58991  0.35889  1.0000
  H   H656      1.0  0.09324  0.85352  0.48594  1.0000
  H   H657      1.0  0.16715  0.81668  0.40249  1.0000
  H   H658      1.0  0.11478  0.68443  0.36869  1.0000
  C   C355      1.0  0.27628  0.54337  0.34050  1.0000
  H   H659      1.0  0.11009  0.63838  0.32341  1.0000
  C   C356      1.0  0.15908  0.54598  0.32242  1.0000
  C   C357      1.0  0.14771  0.64354  0.37765  1.0000
  N   N20       1.0  0.20848  0.86593  0.37178  1.0000
  H   H660      1.0  0.19529  0.67914  0.37458  1.0000
  H   H661      1.0  0.19008  0.94558  0.56086  1.0000
  H   H662      1.0  0.14267  0.65419  0.39046  1.0000
  C   C358      1.0  0.16807  0.85943  0.34652  1.0000
  C   C359      1.0  0.20328  0.95684  0.57403  1.0000
  H   H663      1.0  0.18716  0.64736  0.39167  1.0000
  C   C360      1.0  0.33482  0.63777  0.35392  1.0000
  H   H664      1.0  0.25787  0.91699  0.39237  1.0000
  H   H665      1.0  0.43512  0.74507  0.34188  1.0000
  H   H666      1.0  0.27048  0.90449  0.37091  1.0000
  C   C361      1.0  0.22140  0.85112  0.35833  1.0000
  H   H667      1.0  0.23914  0.84858  0.36600  1.0000
  C   C362      1.0  0.09791  0.65981  0.37039  1.0000
  H   H668      1.0  0.20273  0.63294  0.32725  1.0000
  C   C363      1.0  0.11373  0.93863  0.47524  1.0000
  H   H669      1.0  0.08924  0.92587  0.47251  1.0000
  H   H670      1.0  0.99203  0.73393  0.49586  1.0000
  H   H671      1.0  0.14979  0.51216  0.41390  1.0000
  C   C364      1.0  0.13448  0.84934  0.34561  1.0000
  S   S88       1.0  0.20161  0.53780  0.34124  1.0000
  H   H672      1.0  0.08534  0.88567  0.52547  1.0000
  C   C365      1.0  0.22526  0.90003  0.36879  1.0000
  C   C366      1.0  0.18635  0.55959  0.33202  1.0000
  H   H673      1.0  0.13688  0.97090  0.63239  1.0000
  C   C367      1.0  0.00084  0.71638  0.37665  1.0000
  S   S89       1.0  0.02881  0.80998  0.63329  1.0000
  C   C368      1.0  0.19566  0.98124  0.58089  1.0000
  C   C369      1.0  0.17884  0.50309  0.39368  1.0000
  H   H674      1.0  0.11236  0.97777  0.48643  1.0000
  H   H675      1.0  0.39245  0.73573  0.31858  1.0000
  H   H676      1.0  0.14271  0.69308  0.32625  1.0000
  H   H677      1.0  0.06997  0.91147  0.63418  1.0000
  H   H678      1.0  0.46399  0.80705  0.32452  1.0000
  H   H679      1.0  0.00459  0.73064  0.38977  1.0000
  H   H680      1.0  0.18110  0.88361  0.34108  1.0000
  H   H681      1.0  0.18573  0.98482  0.54129  1.0000
  C   C370      1.0  0.18768  0.98231  0.42227  1.0000
  H   H682      1.0  0.02668  0.72772  0.64849  1.0000
  S   S90       1.0  0.38865  0.61825  0.31915  1.0000
  C   C371      1.0  0.23631  0.86731  0.33720  1.0000
  C   C372      1.0  0.15987  0.98139  0.42157  1.0000
  S   S91       1.0  0.18470  0.76020  0.31718  1.0000
  H   H683      1.0  0.27824  0.94979  0.34982  1.0000
  H   H684      1.0  0.12983  0.85346  0.32988  1.0000
  C   C373      1.0  0.32236  0.64108  0.31889  1.0000
  H   H685      1.0  0.33786  0.66598  0.31746  1.0000
  C   C374      1.0  0.24196  0.84667  0.32370  1.0000
  H   H686      1.0  0.22009  0.82672  0.32030  1.0000
  C   C375      1.0  0.20592  0.96558  0.64914  1.0000
  H   H687      1.0  0.22653  0.73614  0.64874  1.0000
  Fe  Fe49      1.0  0.43787  0.68881  0.76755  1.0000
  S   S92       1.0  0.39751  0.67846  0.74997  1.0000
  S   S93       1.0  0.43298  0.66515  0.79826  1.0000
  H   H688      1.0  0.30768  0.56312  0.66140  1.0000
  S   S94       1.0  0.44687  0.72263  0.71206  1.0000
  Fe  Fe50      1.0  0.42352  0.72794  0.73995  1.0000
  S   S95       1.0  0.40312  0.75820  0.74056  1.0000
  Fe  Fe51      1.0  0.42415  0.67389  0.72387  1.0000
  S   S96       1.0  0.40601  0.63574  0.70302  1.0000
  H   H689      1.0  0.07526  0.50718  0.80985  1.0000
  S   S97       1.0  0.46263  0.68024  0.74211  1.0000
  Fe  Fe52      1.0  0.23449  0.69329  0.73450  1.0000
  S   S98       1.0  0.23333  0.73011  0.75111  1.0000
  S   S99       1.0  0.27088  0.70182  0.71058  1.0000
  Fe  Fe53      1.0  0.17597  0.64487  0.75522  1.0000
  S   S100      1.0  0.16891  0.67761  0.77330  1.0000
  S   S101      1.0  0.14637  0.59438  0.75915  1.0000
  Fe  Fe54      1.0  0.18421  0.70730  0.74415  1.0000
  S   S102      1.0  0.16598  0.73833  0.73463  1.0000
  Fe  Fe55      1.0  0.21827  0.69761  0.77869  1.0000
  S   S103      1.0  0.23655  0.71586  0.80891  1.0000
  S   S104      1.0  0.18641  0.67228  0.72569  1.0000
  S   S105      1.0  0.22430  0.66297  0.76255  1.0000
  Fe  Fe56      1.0  0.29187  0.58979  0.89689  1.0000
  S   S106      1.0  0.29807  0.62791  0.87580  1.0000
  S   S107      1.0  0.28185  0.54441  0.88540  1.0000
  Fe  Fe57      1.0  0.30310  0.62617  0.93585  1.0000
  S   S108      1.0  0.30991  0.66734  0.91698  1.0000
  Fe  Fe58      1.0  0.27042  0.63499  0.89966  1.0000
  S   S109      1.0  0.23256  0.64234  0.88972  1.0000
  Fe  Fe59      1.0  0.33714  0.65725  0.89403  1.0000
  S   S110      1.0  0.37805  0.69520  0.87601  1.0000
  S   S111      1.0  0.26106  0.59449  0.92004  1.0000
  S   S112      1.0  0.33352  0.61850  0.91362  1.0000
  C   C376      1.0  0.27138  0.61005  0.74175  1.0000
  H   H690      1.0  0.46503  0.73613  0.85342  1.0000
  H   H691      1.0  0.41451  0.58776  0.76007  1.0000
  H   H692      1.0  0.24909  0.58899  0.74145  1.0000
  H   H693      1.0  0.32491  0.56815  0.78816  1.0000
  H   H694      1.0  0.19090  0.52665  0.86007  1.0000
  C   C377      1.0  0.30166  0.54626  0.97135  1.0000
  C   C378      1.0  0.15565  0.74297  0.71002  1.0000
  C   C379      1.0  0.15197  0.76796  0.70521  1.0000
  C   C380      1.0  0.14289  0.77193  0.68600  1.0000
  C   C381      1.0  0.13716  0.75073  0.67146  1.0000
  C   C382      1.0  0.14064  0.72565  0.67632  1.0000
  C   C383      1.0  0.14996  0.72184  0.69546  1.0000
  H   H695      1.0  0.15618  0.78433  0.71644  1.0000
  H   H696      1.0  0.14027  0.79130  0.68247  1.0000
  H   H697      1.0  0.12409  0.97139  0.67898  1.0000
  H   H698      1.0  0.15217  0.70227  0.69914  1.0000
  C   C384      1.0  0.23745  0.66380  0.86681  1.0000
  C   C385      1.0  0.23296  0.68861  0.86759  1.0000
  C   C386      1.0  0.23308  0.70425  0.84970  1.0000
  C   C387      1.0  0.23609  0.69442  0.83068  1.0000
  C   C388      1.0  0.24041  0.66939  0.82968  1.0000
  C   C389      1.0  0.24183  0.65454  0.84776  1.0000
  H   H699      1.0  0.22925  0.69573  0.88215  1.0000
  H   H700      1.0  0.23000  0.72367  0.85065  1.0000
  H   H701      1.0  0.24311  0.66183  0.81506  1.0000
  H   H702      1.0  0.24523  0.63533  0.84701  1.0000
  C   C390      1.0  0.30260  0.52688  0.68145  1.0000
  C   C391      1.0  0.26029  0.55187  0.84895  1.0000
  H   H703      1.0  0.26893  0.57518  0.85235  1.0000
  C   C392      1.0  0.19105  0.54946  0.72435  1.0000
  C   C393      1.0  0.17011  0.53375  0.74083  1.0000
  C   C394      1.0  0.15564  0.54722  0.75105  1.0000
  C   C395      1.0  0.16311  0.57696  0.74545  1.0000
  C   C396      1.0  0.18426  0.59278  0.72910  1.0000
  C   C397      1.0  0.19761  0.57878  0.71826  1.0000
  H   H704      1.0  0.16461  0.51102  0.74551  1.0000
  H   H705      1.0  0.13908  0.53480  0.76354  1.0000
  H   H706      1.0  0.19006  0.61568  0.72461  1.0000
  H   H707      1.0  0.21347  0.59101  0.70543  1.0000
  C   C398      1.0  0.41585  0.67279  0.81924  1.0000
  C   C399      1.0  0.40993  0.69674  0.81833  1.0000
  C   C400      1.0  0.39812  0.70334  0.83583  1.0000
  C   C401      1.0  0.39088  0.68528  0.85395  1.0000
  C   C402      1.0  0.39623  0.66099  0.85468  1.0000
  C   C403      1.0  0.40931  0.65522  0.83750  1.0000
  H   H708      1.0  0.41526  0.71064  0.80437  1.0000
  H   H709      1.0  0.39473  0.72257  0.83553  1.0000
  H   H710      1.0  0.39144  0.64757  0.86879  1.0000
  H   H711      1.0  0.41459  0.63719  0.83842  1.0000
  C   C404      1.0  0.36615  0.74217  0.73252  1.0000
  C   C405      1.0  0.35240  0.75997  0.73103  1.0000
  C   C406      1.0  0.32270  0.74744  0.72486  1.0000
  C   C407      1.0  0.30678  0.71708  0.72016  1.0000
  C   C408      1.0  0.32037  0.69926  0.72190  1.0000
  C   C409      1.0  0.35004  0.71175  0.72801  1.0000
  H   H712      1.0  0.36482  0.78352  0.73453  1.0000
  H   H713      1.0  0.31231  0.76134  0.72340  1.0000
  H   H714      1.0  0.30784  0.67576  0.71857  1.0000
  H   H715      1.0  0.36039  0.69785  0.72926  1.0000
  C   C410      1.0  0.38220  0.59996  0.71535  1.0000
  C   C411      1.0  0.38333  0.57497  0.70842  1.0000
  C   C412      1.0  0.36380  0.54596  0.71744  1.0000
  C   C413      1.0  0.34199  0.54155  0.73275  1.0000
  C   C414      1.0  0.34043  0.56646  0.73953  1.0000
  C   C415      1.0  0.36108  0.59580  0.73118  1.0000
  H   H716      1.0  0.39955  0.57809  0.69617  1.0000
  H   H717      1.0  0.36508  0.52676  0.71219  1.0000
  H   H718      1.0  0.32362  0.56312  0.75137  1.0000
  H   H719      1.0  0.36000  0.61503  0.73646  1.0000
  N   N21       1.0  0.32964  0.75113  0.79916  1.0000
  C   C416      1.0  0.31459  0.71721  0.79821  1.0000
  C   C417      1.0  0.32291  0.75893  0.81997  1.0000
  C   C418      1.0  0.31591  0.76229  0.78360  1.0000
  C   C419      1.0  0.36329  0.76673  0.79374  1.0000
  C   C420      1.0  0.38171  0.75699  0.80685  1.0000
  C   C421      1.0  0.31937  0.70549  0.77789  1.0000
  C   C422      1.0  0.32455  0.79605  0.78399  1.0000
  C   C423      1.0  0.32033  0.73805  0.83860  1.0000
  C   C424      1.0  0.31768  0.75105  0.85858  1.0000
  C   C425      1.0  0.41447  0.77120  0.79808  1.0000
  C   C426      1.0  0.30197  0.67096  0.77886  1.0000
  C   C427      1.0  0.30792  0.80373  0.76820  1.0000
  H   H720      1.0  0.28974  0.70691  0.80161  1.0000
  H   H721      1.0  0.32226  0.70709  0.81003  1.0000
  H   H722      1.0  0.34004  0.78265  0.82288  1.0000
  H   H723      1.0  0.30059  0.75806  0.82057  1.0000
  H   H724      1.0  0.29074  0.74841  0.78517  1.0000
  H   H725      1.0  0.32250  0.75946  0.76797  1.0000
  H   H726      1.0  0.36777  0.76395  0.77752  1.0000
  H   H727      1.0  0.37377  0.79156  0.79496  1.0000
  H   H728      1.0  0.37189  0.73211  0.80767  1.0000
  H   H729      1.0  0.38261  0.76500  0.82234  1.0000
  H   H730      1.0  0.31094  0.71311  0.76510  1.0000
  H   H731      1.0  0.34374  0.71321  0.77456  1.0000
  H   H732      1.0  0.34920  0.81123  0.78036  1.0000
  H   H733      1.0  0.31842  0.80130  0.79902  1.0000
  H   H734      1.0  0.29958  0.71556  0.83818  1.0000
  H   H735      1.0  0.33981  0.73426  0.83906  1.0000
  H   H736      1.0  0.31471  0.73502  0.87148  1.0000
  H   H737      1.0  0.33850  0.77304  0.86043  1.0000
  H   H738      1.0  0.29767  0.75423  0.85910  1.0000
  H   H739      1.0  0.42516  0.79620  0.79590  1.0000
  H   H740      1.0  0.42784  0.76594  0.80864  1.0000
  H   H741      1.0  0.41529  0.76182  0.78331  1.0000
  H   H742      1.0  0.30847  0.66321  0.76504  1.0000
  H   H743      1.0  0.30729  0.66163  0.79249  1.0000
  H   H744      1.0  0.27718  0.66222  0.77952  1.0000
  H   H745      1.0  0.31365  0.79939  0.75272  1.0000
  H   H746      1.0  0.28299  0.78992  0.77164  1.0000
  H   H747      1.0  0.31468  0.82803  0.76848  1.0000
  H   H748      1.0  0.14992  0.85003  0.71118  1.0000
  H   H749      1.0  0.20100  0.73368  0.66884  1.0000
  H   H750      1.0  0.04816  0.71636  0.72020  1.0000
  H   H751      1.0  0.02314  0.67677  0.71606  1.0000
  C   C428      1.0  0.16282  0.55557  0.84125  1.0000
  C   C429      1.0  0.20079  0.50401  0.91714  1.0000
  S   S113      1.0  0.10534  0.82118  0.65273  1.0000
  C   C430      1.0  0.19234  0.54622  0.86789  1.0000
  H   H752      1.0  0.06436  0.68308  0.73670  1.0000
  H   H753      1.0  0.15916  0.53405  0.83507  1.0000
  H   H754      1.0  0.07530  0.71919  0.68486  1.0000
  H   H755      1.0  0.14262  0.59362  0.84712  1.0000
  H   H756      1.0  0.09229  0.70922  0.71771  1.0000
  H   H757      1.0  0.10045  0.56794  0.82984  1.0000
  H   H758      1.0  0.33837  0.57316  0.67762  1.0000
  H   H759      1.0  0.35043  0.56505  0.96948  1.0000
  C   C431      1.0  0.19255  0.56944  0.85254  1.0000
  N   N22       1.0  0.16103  0.57586  0.82484  1.0000
  H   H760      1.0  0.04160  0.77385  0.66098  1.0000
  H   H761      1.0  0.35523  0.81603  0.67548  1.0000
  H   H762      1.0  0.33769  0.58432  0.95273  1.0000
  C   C432      1.0  0.24117  0.76807  0.69507  1.0000
  C   C433      1.0  0.25192  0.80019  0.70273  1.0000
  C   C434      1.0  0.27381  0.62103  0.66403  1.0000
  C   C435      1.0  0.22267  0.70775  0.67498  1.0000
  C   C436      1.0  0.25262  0.50210  0.85761  1.0000
  H   H763      1.0  0.12811  0.89092  0.67277  1.0000
  C   C437      1.0  0.25231  0.80019  0.72584  1.0000
  H   H764      1.0  0.05875  0.84989  0.70877  1.0000
  H   H765      1.0  0.34808  0.62079  0.67599  1.0000
  C   C438      1.0  0.13101  0.87878  0.70397  1.0000
  C   C439      1.0  0.04089  0.72040  0.65646  1.0000
  H   H766      1.0  0.27811  0.74892  0.67845  1.0000
  C   C440      1.0  0.22386  0.73656  0.66556  1.0000
  C   C441      1.0  0.04133  0.74602  0.68697  1.0000
  H   H767      1.0  0.08620  0.87843  0.65181  1.0000
  H   H768      1.0  0.21636  0.75469  0.69919  1.0000
  H   H769      1.0  0.25078  0.75683  0.70457  1.0000
  H   H770      1.0  0.23634  0.80827  0.69818  1.0000
  H   H771      1.0  0.27493  0.81721  0.69651  1.0000
  H   H772      1.0  0.99441  0.66961  0.68257  1.0000
  C   C442      1.0  0.24807  0.79116  0.65945  1.0000
  H   H773      1.0  0.22370  0.70868  0.69164  1.0000
  H   H774      1.0  0.39119  0.67663  0.67503  1.0000
  H   H775      1.0  0.00449  0.74963  0.67270  1.0000
  H   H776      1.0  0.18495  0.60134  0.79678  1.0000
  H   H777      1.0  0.18200  0.61571  0.84213  1.0000
  H   H778      1.0  0.13600  0.70901  0.66522  1.0000
  H   H779      1.0  0.05141  0.86067  0.74425  1.0000
  H   H780      1.0  0.25918  0.82319  0.73075  1.0000
  H   H781      1.0  0.22945  0.78423  0.73303  1.0000
  H   H782      1.0  0.26878  0.79371  0.73113  1.0000
  C   C443      1.0  0.28852  0.60112  0.66774  1.0000
  N   N23       1.0  0.03229  0.71548  0.67903  1.0000
  C   C444      1.0  0.02865  0.76414  0.67581  1.0000
  H   H783      1.0  0.31492  0.51978  0.67077  1.0000
  H   H784      1.0  0.28882  0.64485  0.66755  1.0000
  H   H785      1.0  0.06655  0.76060  0.68584  1.0000
  C   C445      1.0  0.34464  0.57359  0.83738  1.0000
  C   C446      1.0  0.34128  0.61000  0.80350  1.0000
  C   C447      1.0  0.35555  0.55909  0.85361  1.0000
  C   C448      1.0  0.33182  0.62203  0.78546  1.0000
  C   C449      1.0  0.36608  0.57799  0.87215  1.0000
  H   H786      1.0  0.32230  0.56998  0.84337  1.0000
  H   H787      1.0  0.36010  0.59846  0.83696  1.0000
  H   H788      1.0  0.39112  0.59376  0.81356  1.0000
  H   H789      1.0  0.33416  0.61667  0.81764  1.0000
  H   H790      1.0  0.36632  0.62137  0.80255  1.0000
  H   H791      1.0  0.37458  0.55651  0.84736  1.0000
  H   H792      1.0  0.33645  0.53637  0.85900  1.0000
  H   H793      1.0  0.21366  0.55691  0.87592  1.0000
  H   H794      1.0  0.34383  0.64713  0.78518  1.0000
  C   C450      1.0  0.29867  0.57177  0.69307  1.0000
  H   H795      1.0  0.38790  0.59913  0.86825  1.0000
  H   H796      1.0  0.34892  0.58378  0.87781  1.0000
  H   H797      1.0  0.36955  0.56498  0.88453  1.0000
  N   N24       1.0  0.10445  0.90773  0.69103  1.0000
  H   H798      1.0  0.14309  0.93620  0.70820  1.0000
  C   C451      1.0  0.22101  0.52006  0.95196  1.0000
  H   H799      1.0  0.19214  0.67710  0.65361  1.0000
  C   C452      1.0  0.08412  0.89968  0.71018  1.0000
  C   C453      1.0  0.05440  0.86873  0.71132  1.0000
  H   H800      1.0  0.04562  0.68141  0.68262  1.0000
  H   H801      1.0  0.24201  0.70566  0.66867  1.0000
  C   C454      1.0  0.30641  0.79655  0.67576  1.0000
  Fe  Fe60      1.0  0.21961  0.50417  0.73245  1.0000
  C   C455      1.0  0.03750  0.86206  0.73220  1.0000
  H   H802      1.0  0.19391  0.65889  0.67702  1.0000
  H   H803      1.0  0.25239  0.61190  0.67373  1.0000
  H   H804      1.0  0.33422  0.77531  0.67853  1.0000
  H   H805      1.0  0.23305  0.83762  0.66085  1.0000
  C   C456      1.0  0.23292  0.51077  0.82663  1.0000
  H   H806      1.0  0.07707  0.91682  0.71234  1.0000
  C   C457      1.0  0.04587  0.69678  0.71209  1.0000
  C   C458      1.0  0.10220  0.54786  0.82604  1.0000
  H   H807      1.0  0.09668  0.90066  0.72379  1.0000
  H   H808      1.0  0.30707  0.52260  0.69719  1.0000
  S   S114      1.0  0.46217  0.73884  0.75963  1.0000
  H   H809      1.0  0.03905  0.86897  0.70000  1.0000
  H   H810      1.0  0.30503  0.79805  0.69247  1.0000
  C   C459      1.0  0.08935  0.91212  0.67295  1.0000
  H   H811      1.0  0.05380  0.52196  0.82240  1.0000
  C   C460      1.0  0.16068  0.60197  0.83458  1.0000
  H   H812      1.0  0.19624  0.52310  0.91563  1.0000
  H   H813      1.0  0.30895  0.81733  0.66796  1.0000
  C   C461      1.0  0.22728  0.51210  0.93047  1.0000
  C   C462      1.0  0.33239  0.56173  0.95927  1.0000
  C   C463      1.0  0.31705  0.51141  0.79846  1.0000
  Fe  Fe61      1.0  0.26849  0.49235  0.74672  1.0000
  C   C464      1.0  0.24334  0.54808  0.98182  1.0000
  H   H814      1.0  0.15073  0.94176  0.68142  1.0000
  N   N25       1.0  0.24415  0.52594  0.96751  1.0000
  H   H815      1.0  0.03469  0.74405  0.70338  1.0000
  H   H816      1.0  0.03187  0.87995  0.73550  1.0000
  C   C465      1.0  0.13702  0.85313  0.69908  1.0000
  C   C466      1.0  0.23618  0.49721  0.97980  1.0000
  H   H817      1.0  0.27006  0.57759  0.66547  1.0000
  C   C467      1.0  0.29431  0.60935  0.72651  1.0000
  C   C468      1.0  0.31330  0.56044  0.67708  1.0000
  H   H818      1.0  0.30942  0.57171  0.70728  1.0000
  H   H819      1.0  0.34441  0.62575  0.70198  1.0000
  H   H820      1.0  0.29625  0.58950  0.73138  1.0000
  H   H821      1.0  0.31654  0.63020  0.72773  1.0000
  H   H822      1.0  0.29812  0.52455  0.97828  1.0000
  H   H823      1.0  0.33249  0.54773  0.94679  1.0000
  C   C469      1.0  0.26371  0.53222  0.86246  1.0000
  H   H824      1.0  0.27917  0.61122  0.75728  1.0000
  H   H825      1.0  0.17340  0.67908  0.67691  1.0000
  C   C470      1.0  0.07533  0.52827  0.81357  1.0000
  C   C471      1.0  0.28381  0.60763  0.70461  1.0000
  H   H826      1.0  0.14411  0.54851  0.85316  1.0000
  N   N26       1.0  0.34246  0.56231  0.81628  1.0000
  H   H827      1.0  0.30696  0.61293  0.78681  1.0000
  C   C472      1.0  0.33484  0.62604  0.68724  1.0000
  H   H828      1.0  0.27423  0.55421  0.69586  1.0000
  H   H829      1.0  0.32870  0.66555  0.69049  1.0000
  S   S115      1.0  0.20937  0.53292  0.71135  1.0000
  H   H830      1.0  0.24212  0.55648  0.82105  1.0000
  H   H831      1.0  0.27748  0.52724  0.94513  1.0000
  N   N27       1.0  0.24800  0.76644  0.67274  1.0000
  H   H832      1.0  0.26851  0.62989  0.73832  1.0000
  H   H833      1.0  0.27793  0.51287  0.67950  1.0000
  C   C473      1.0  0.37409  0.57211  0.80739  1.0000
  H   H834      1.0  0.20457  0.78335  0.67377  1.0000
  S   S116      1.0  0.31734  0.50474  0.74327  1.0000
  H   H835      1.0  0.09986  0.53458  0.84032  1.0000
  C   C474      1.0  0.32665  0.57504  0.80400  1.0000
  H   H836      1.0  0.30267  0.56522  0.81003  1.0000
  H   H837      1.0  0.38083  0.55532  0.81222  1.0000
  H   H838      1.0  0.41373  0.56374  0.78103  1.0000
  N   N28       1.0  0.30172  0.60236  0.68809  1.0000
  C   C475      1.0  0.34272  0.65886  0.68135  1.0000
  H   H839      1.0  0.13143  0.53618  0.80909  1.0000
  C   C476      1.0  0.24508  0.54121  0.83110  1.0000
  H   H840      1.0  0.13844  0.61310  0.81016  1.0000
  C   C477      1.0  0.05068  0.70332  0.68876  1.0000
  H   H841      1.0  0.25974  0.58946  0.70489  1.0000
  S   S117      1.0  0.25323  0.52453  0.75619  1.0000
  C   C478      1.0  0.11357  0.88430  0.68716  1.0000
  H   H842      1.0  0.21806  0.59274  0.77226  1.0000
  H   H843      1.0  0.28351  0.62891  0.70144  1.0000
  C   C479      1.0  0.15256  0.64707  0.83189  1.0000
  H   H844      1.0  0.30057  0.52175  0.82607  1.0000
  H   H845      1.0  0.33813  0.61558  0.77096  1.0000
  H   H846      1.0  0.36297  0.55807  0.77595  1.0000
  C   C480      1.0  0.15761  0.62465  0.81999  1.0000
  H   H847      1.0  0.15261  0.66437  0.82120  1.0000
  H   H848      1.0  0.21872  0.54048  0.94916  1.0000
  C   C481      1.0  0.06916  0.68924  0.72013  1.0000
  H   H849      1.0  0.06846  0.66993  0.71241  1.0000
  S   S118      1.0  0.31018  0.62121  0.97039  1.0000
  C   C482      1.0  0.32296  0.52824  0.81827  1.0000
  C   C483      1.0  0.37971  0.57756  0.78389  1.0000
  C   C484      1.0  0.41122  0.58359  0.77687  1.0000
  H   H850      1.0  0.37834  0.59764  0.77854  1.0000
  H   H851      1.0  0.42897  0.60397  0.78377  1.0000
  H   H852      1.0  0.19724  0.55054  0.81108  1.0000
  C   C485      1.0  0.22141  0.57956  0.78462  1.0000
  H   H853      1.0  0.17872  0.63797  0.81005  1.0000
  H   H854      1.0  0.22487  0.56188  0.77773  1.0000
  H   H855      1.0  0.13041  0.63516  0.84087  1.0000
  H   H856      1.0  0.11795  0.87247  0.71888  1.0000
  H   H857      1.0  0.01803  0.78172  0.70266  1.0000
  C   C486      1.0  0.19358  0.56443  0.79958  1.0000
  H   H858      1.0  0.17405  0.54891  0.79106  1.0000
  H   H859      1.0  0.33332  0.51815  0.82799  1.0000
  H   H860      1.0  0.13309  0.56962  0.79952  1.0000
  H   H861      1.0  0.24198  0.59484  0.79247  1.0000
  H   H862      1.0  0.07464  0.92152  0.67768  1.0000
  H   H863      1.0  0.17296  0.53806  0.87938  1.0000
  H   H864      1.0  0.33841  0.51358  0.79183  1.0000
  C   C487      1.0  0.27583  0.54075  0.95739  1.0000
  C   C488      1.0  0.13261  0.55740  0.81391  1.0000
  H   H865      1.0  0.11250  0.96355  0.70560  1.0000
  C   C489      1.0  0.21686  0.78946  0.65859  1.0000
  C   C490      1.0  0.18784  0.58832  0.80953  1.0000
  H   H866      1.0  0.20891  0.60499  0.81637  1.0000
  H   H867      1.0  0.10660  0.92940  0.66171  1.0000
  H   H868      1.0  0.01600  0.84001  0.73249  1.0000
  H   H869      1.0  0.21276  0.57733  0.84189  1.0000
  H   H870      1.0  0.19525  0.58884  0.86113  1.0000
  C   C491      1.0  0.13314  0.93737  0.69374  1.0000
  H   H871      1.0  0.17091  0.65888  0.84233  1.0000
  H   H872      1.0  0.07642  0.54094  0.79921  1.0000
  H   H873      1.0  0.06461  0.73928  0.65333  1.0000
  H   H874      1.0  0.15075  0.85863  0.68443  1.0000
  C   C492      1.0  0.27811  0.76775  0.66946  1.0000
  C   C493      1.0  0.37584  0.68145  0.68458  1.0000
  H   H875      1.0  0.05401  0.86408  0.66965  1.0000
  H   H876      1.0  0.24736  0.53201  0.92275  1.0000
  H   H877      1.0  0.38048  0.68028  0.70078  1.0000
  H   H878      1.0  0.26482  0.81396  0.66397  1.0000
  H   H879      1.0  0.09370  0.86202  0.68456  1.0000
  H   H880      1.0  0.15343  0.89929  0.70531  1.0000
  H   H881      1.0  0.30716  0.51987  0.78713  1.0000
  H   H882      1.0  0.38084  0.70483  0.68042  1.0000
  C   C494      1.0  0.07077  0.88439  0.66021  1.0000
  C   C495      1.0  0.13006  0.96616  0.69399  1.0000
  H   H883      1.0  0.28164  0.56291  0.94964  1.0000
  H   H884      1.0  0.05592  0.80569  0.69087  1.0000
  H   H885      1.0  0.02358  0.80349  0.67921  1.0000
  H   H886      1.0  0.11539  0.83150  0.69825  1.0000
  C   C496      1.0  0.19370  0.67902  0.67027  1.0000
  C   C497      1.0  0.03179  0.79036  0.68798  1.0000
  H   H887      1.0  0.46431  0.75750  0.83143  1.0000
  C   C498      1.0  0.33526  0.79538  0.67054  1.0000
  H   H888      1.0  0.33925  0.66106  0.66503  1.0000
  H   H889      1.0  0.25088  0.57023  0.97336  1.0000
  H   H890      1.0  0.23180  0.49307  0.93095  1.0000
  H   H891      1.0  0.21621  0.48970  0.68259  1.0000
  H   H892      1.0  0.33843  0.79432  0.65390  1.0000
  C   C499      1.0  0.98183  0.69609  0.70151  1.0000
  H   H893      1.0  0.19809  0.50179  0.95790  1.0000
  H   H894      1.0  0.05631  0.68822  0.64960  1.0000
  C   C500      1.0  0.99864  0.69323  0.68229  1.0000
  H   H895      1.0  0.03704  0.89658  0.65201  1.0000
  H   H896      1.0  0.28200  0.76455  0.65321  1.0000
  H   H897      1.0  0.99270  0.69581  0.71560  1.0000
  H   H898      1.0  0.47524  0.71645  0.82289  1.0000
  H   H899      1.0  0.98637  0.69510  0.66920  1.0000
  H   H900      1.0  0.20662  0.49961  0.90170  1.0000
  S   S119      1.0  0.20672  0.49573  0.80760  1.0000
  H   H901      1.0  0.19722  0.81681  0.64963  1.0000
  H   H902      1.0  0.22495  0.96400  0.65435  1.0000
  C   C501      1.0  0.23703  0.49134  0.83991  1.0000
  H   H903      1.0  0.30612  0.60685  0.65517  1.0000
  H   H904      1.0  0.98132  0.71754  0.70045  1.0000
  H   H905      1.0  0.25520  0.48672  0.86792  1.0000
  C   C502      1.0  0.22010  0.81939  0.65052  1.0000
  H   H906      1.0  0.01567  0.67209  0.64981  1.0000
  C   C503      1.0  0.47920  0.75236  0.84055  1.0000
  H   H907      1.0  0.19428  0.53268  0.98228  1.0000
  C   C504      1.0  0.54980  0.34582  0.25476  1.0000
  H   H908      1.0  0.70613  0.36038  0.99899  1.0000
  C   C505      1.0  0.54635  0.34666  0.31406  1.0000
  C   C506      1.0  0.61778  0.48215  0.26661  1.0000
  C   C507      1.0  0.78728  0.39916  0.29397  1.0000
  H   H909      1.0  0.74682  0.29164  0.99249  1.0000
  C   C508      1.0  0.48919  0.10670  0.30684  1.0000
  H   H910      1.0  0.57792  0.32827  0.18294  1.0000
  H   H911      1.0  0.75732  0.35695  0.98754  1.0000
  H   H912      1.0  0.55764  0.14608  0.31192  1.0000
  Fe  Fe62      1.0  0.71736  0.43419  0.29858  1.0000
  S   S120      1.0  0.76124  0.43439  0.29334  1.0000
  H   H913      1.0  0.54776  0.25836  0.03746  1.0000
  H   H914      1.0  0.48761  0.28746  0.99403  1.0000
  S   S121      1.0  0.67214  0.39652  0.29080  1.0000
  Fe  Fe63      1.0  0.66217  0.21550  0.28564  1.0000
  S   S122      1.0  0.67232  0.25875  0.29930  1.0000
  S   S123      1.0  0.62966  0.20252  0.26052  1.0000
  H   H915      1.0  0.50704  0.13882  0.26027  1.0000
  C   C509      1.0  0.52540  0.13513  0.26581  1.0000
  H   H916      1.0  0.66354  0.45782  0.20757  1.0000
  H   H917      1.0  0.56614  0.38339  0.23177  1.0000
  H   H918      1.0  0.56047  0.10988  0.27607  1.0000
  Fe  Fe64      1.0  0.71894  0.26609  0.30188  1.0000
  S   S124      1.0  0.76156  0.31068  0.29409  1.0000
  H   H919      1.0  0.76873  0.32254  0.00820  1.0000
  S   S125      1.0  0.70997  0.22451  0.28595  1.0000
  Fe  Fe65      1.0  0.57502  0.27802  0.15709  1.0000
  S   S126      1.0  0.59449  0.31888  0.13497  1.0000
  S   S127      1.0  0.52815  0.26116  0.17233  1.0000
  Fe  Fe66      1.0  0.63273  0.27547  0.15508  1.0000
  S   S128      1.0  0.65654  0.31585  0.13260  1.0000
  S   S129      1.0  0.65919  0.25543  0.16893  1.0000
  Fe  Fe67      1.0  0.63568  0.33577  0.15313  1.0000
  S   S130      1.0  0.66312  0.38343  0.16339  1.0000
  Fe  Fe68      1.0  0.61348  0.29534  0.11579  1.0000
  S   S131      1.0  0.61398  0.29909  0.08010  1.0000
  S   S132      1.0  0.61483  0.29690  0.17628  1.0000
  S   S133      1.0  0.59104  0.25294  0.13714  1.0000
  C   C510      1.0  0.54059  0.12405  0.23133  1.0000
  C   C511      1.0  0.61272  0.28263  0.01044  1.0000
  C   C512      1.0  0.60716  0.25949  0.02521  1.0000
  C   C513      1.0  0.60732  0.26411  0.04633  1.0000
  C   C514      1.0  0.61277  0.29199  0.05332  1.0000
  C   C515      1.0  0.61804  0.31504  0.03853  1.0000
  C   C516      1.0  0.61825  0.31053  0.01739  1.0000
  H   H920      1.0  0.60296  0.23781  0.02030  1.0000
  H   H921      1.0  0.60331  0.24604  0.05728  1.0000
  H   H922      1.0  0.62254  0.33680  0.04348  1.0000
  H   H923      1.0  0.62320  0.32893  0.00649  1.0000
  C   C517      1.0  0.64035  0.22165  0.23616  1.0000
  C   C518      1.0  0.66837  0.23008  0.22612  1.0000
  C   C519      1.0  0.67431  0.24114  0.20561  1.0000
  C   C520      1.0  0.65274  0.24482  0.19525  1.0000
  C   C521      1.0  0.62563  0.23831  0.20574  1.0000
  C   C522      1.0  0.61911  0.22601  0.22591  1.0000
  H   H924      1.0  0.68480  0.22658  0.23382  1.0000
  H   H925      1.0  0.69541  0.24621  0.19763  1.0000
  H   H926      1.0  0.60915  0.24160  0.19802  1.0000
  H   H927      1.0  0.59748  0.21977  0.23356  1.0000
  C   C523      1.0  0.65137  0.41665  0.22514  1.0000
  C   C524      1.0  0.52300  0.24891  0.03641  1.0000
  C   C525      1.0  0.66416  0.42469  0.18873  1.0000
  C   C526      1.0  0.65768  0.39478  0.18750  1.0000
  C   C527      1.0  0.64801  0.37558  0.20532  1.0000
  C   C528      1.0  0.64537  0.38671  0.22422  1.0000
  H   H928      1.0  0.67138  0.43958  0.17508  1.0000
  H   H929      1.0  0.64268  0.35235  0.20454  1.0000
  H   H930      1.0  0.63761  0.37191  0.23790  1.0000
  C   C529      1.0  0.76028  0.39955  0.29229  1.0000
  C   C530      1.0  0.49130  0.23863  0.20729  1.0000
  C   C531      1.0  0.78728  0.37175  0.29408  1.0000
  C   C532      1.0  0.76026  0.34442  0.29271  1.0000
  C   C533      1.0  0.73324  0.34473  0.29037  1.0000
  C   C534      1.0  0.73338  0.37240  0.28997  1.0000
  C   C535      1.0  0.69780  0.33907  0.99093  1.0000
  H   H931      1.0  0.54127  0.39037  0.27324  1.0000
  H   H932      1.0  0.71240  0.32377  0.28889  1.0000
  H   H933      1.0  0.71271  0.37275  0.28807  1.0000
  H   H934      1.0  0.53173  0.09298  0.29636  1.0000
  H   H935      1.0  0.58555  0.25068  0.30629  1.0000
  H   H936      1.0  0.51936  0.14915  0.18632  1.0000
  C   C536      1.0  0.51824  0.24362  0.19714  1.0000
  C   C537      1.0  0.53551  0.23287  0.20638  1.0000
  C   C538      1.0  0.52485  0.21554  0.22503  1.0000
  H   H937      1.0  0.48021  0.27845  0.26578  1.0000
  H   H938      1.0  0.55650  0.23698  0.19878  1.0000
  H   H939      1.0  0.53757  0.20602  0.23160  1.0000
  H   H940      1.0  0.56393  0.19488  0.19458  1.0000
  H   H941      1.0  0.80824  0.42009  0.29549  1.0000
  H   H942      1.0  0.52554  0.28826  0.26954  1.0000
  H   H943      1.0  0.71082  0.31581  0.06257  1.0000
  C   C539      1.0  0.58141  0.23704  0.29283  1.0000
  H   H944      1.0  0.48430  0.11976  0.16361  1.0000
  H   H945      1.0  0.63150  0.29559  0.30597  1.0000
  S   S134      1.0  0.71288  0.47108  0.28253  1.0000
  S   S135      1.0  0.64356  0.43043  0.24746  1.0000
  H   H946      1.0  0.56999  0.24402  0.28173  1.0000
  H   H947      1.0  0.56061  0.28666  0.29208  1.0000
  H   H948      1.0  0.67404  0.29734  0.03570  1.0000
  H   H949      1.0  0.67657  0.23020  0.98465  1.0000
  H   H950      1.0  0.73715  0.35179  0.02142  1.0000
  H   H951      1.0  0.52819  0.27226  0.24688  1.0000
  C   C540      1.0  0.50637  0.21333  0.13062  1.0000
  H   H952      1.0  0.52615  0.22649  0.13958  1.0000
  H   H953      1.0  0.80827  0.37166  0.29566  1.0000
  H   H954      1.0  0.69974  0.27467  0.00611  1.0000
  Fe  Fe69      1.0  0.66615  0.43355  0.27687  1.0000
  H   H955      1.0  0.53754  0.33979  0.27004  1.0000
  C   C541      1.0  0.50815  0.14071  0.29978  1.0000
  H   H956      1.0  0.75735  0.44969  0.22616  1.0000
  C   C542      1.0  0.66019  0.43523  0.20724  1.0000
  H   H957      1.0  0.51985  0.25176  0.10922  1.0000
  C   C543      1.0  0.55027  0.14626  0.24814  1.0000
  N   N29       1.0  0.71441  0.35446  0.22325  1.0000
  C   C544      1.0  0.70570  0.34232  0.20251  1.0000
  C   C545      1.0  0.68722  0.33954  0.23843  1.0000
  C   C546      1.0  0.72503  0.38797  0.22126  1.0000
  C   C547      1.0  0.74003  0.35081  0.23066  1.0000
  C   C548      1.0  0.73380  0.31793  0.23342  1.0000
  C   C549      1.0  0.73180  0.35500  0.18559  1.0000
  C   C550      1.0  0.73119  0.40453  0.24135  1.0000
  C   C551      1.0  0.66324  0.30592  0.23595  1.0000
  C   C552      1.0  0.64123  0.29267  0.25473  1.0000
  C   C553      1.0  0.76293  0.31742  0.23703  1.0000
  C   C554      1.0  0.71968  0.34341  0.16506  1.0000
  C   C555      1.0  0.73777  0.43699  0.23744  1.0000
  H   H958      1.0  0.68763  0.34662  0.19722  1.0000
  H   H959      1.0  0.69549  0.31735  0.20293  1.0000
  H   H960      1.0  0.69481  0.34142  0.25419  1.0000
  H   H961      1.0  0.67415  0.35165  0.23786  1.0000
  H   H962      1.0  0.70819  0.39177  0.21336  1.0000
  H   H963      1.0  0.74661  0.40052  0.21171  1.0000
  H   H964      1.0  0.76093  0.36433  0.22052  1.0000
  H   H965      1.0  0.74631  0.36036  0.24576  1.0000
  H   H966      1.0  0.72416  0.30492  0.21992  1.0000
  H   H967      1.0  0.71792  0.30620  0.24696  1.0000
  H   H968      1.0  0.74380  0.38002  0.18371  1.0000
  H   H969      1.0  0.74838  0.34768  0.18901  1.0000
  H   H970      1.0  0.75123  0.40569  0.24817  1.0000
  H   H971      1.0  0.71159  0.39322  0.25269  1.0000
  H   H972      1.0  0.64992  0.30434  0.22265  1.0000
  H   H973      1.0  0.67345  0.29152  0.23357  1.0000
  H   H974      1.0  0.65301  0.29052  0.26791  1.0000
  H   H975      1.0  0.63175  0.30740  0.25841  1.0000
  H   H976      1.0  0.62231  0.26986  0.25191  1.0000
  H   H977      1.0  0.75746  0.29373  0.24059  1.0000
  H   H978      1.0  0.77880  0.32663  0.22327  1.0000
  H   H979      1.0  0.77422  0.33097  0.25006  1.0000
  H   H980      1.0  0.70786  0.31831  0.16562  1.0000
  H   H981      1.0  0.70375  0.35118  0.16069  1.0000
  H   H982      1.0  0.73869  0.35241  0.15322  1.0000
  H   H983      1.0  0.74341  0.44873  0.25182  1.0000
  H   H984      1.0  0.71757  0.43705  0.23182  1.0000
  C   C556      1.0  0.55066  0.18388  0.28097  1.0000
  H   H985      1.0  0.60034  0.30961  0.28486  1.0000
  H   H986      1.0  0.67298  0.32596  0.99485  1.0000
  C   C557      1.0  0.51520  0.24752  0.01420  1.0000
  C   C558      1.0  0.50509  0.30656  0.23786  1.0000
  S   S136      1.0  0.49218  0.29588  0.30922  1.0000
  H   H987      1.0  0.60351  0.24132  0.28591  1.0000
  H   H988      1.0  0.54268  0.35351  0.20613  1.0000
  H   H989      1.0  0.51595  0.26321  0.04467  1.0000
  H   H990      1.0  0.53518  0.18963  0.27303  1.0000
  H   H991      1.0  0.57722  0.32681  0.28611  1.0000
  C   C559      1.0  0.57678  0.10704  0.30490  1.0000
  C   C560      1.0  0.57138  0.30013  0.25968  1.0000
  C   C561      1.0  0.57765  0.30616  0.28202  1.0000
  H   H992      1.0  0.55885  0.30485  0.21866  1.0000
  H   H993      1.0  0.61924  0.46312  0.27403  1.0000
  H   H994      1.0  0.68141  0.32514  0.06652  1.0000
  C   C562      1.0  0.64746  0.31832  0.31098  1.0000
  C   C563      1.0  0.57169  0.34580  0.18594  1.0000
  H   H995      1.0  0.70289  0.48420  0.23557  1.0000
  C   C564      1.0  0.56149  0.20362  0.29950  1.0000
  H   H996      1.0  0.51460  0.17847  0.12042  1.0000
  H   H997      1.0  0.72817  0.31366  0.02682  1.0000
  H   H998      1.0  0.49717  0.28624  0.22885  1.0000
  H   H999      1.0  0.55919  0.13247  0.21925  1.0000
  H   H1000     1.0  0.51499  0.11025  0.26801  1.0000
  H   H1001     1.0  0.57102  0.19205  0.27038  1.0000
  H   H1002     1.0  0.55464  0.16836  0.24128  1.0000
  H   H1003     1.0  0.59220  0.36703  0.18953  1.0000
  H   H1004     1.0  0.58182  0.16012  0.28955  1.0000
  C   C565      1.0  0.55493  0.11177  0.29218  1.0000
  N   N30       1.0  0.71256  0.32136  0.99829  1.0000
  H   H1005     1.0  0.56303  0.35041  0.17190  1.0000
  H   H1006     1.0  0.57386  0.35397  0.25787  1.0000
  H   H1007     1.0  0.52671  0.36777  0.24034  1.0000
  H   H1008     1.0  0.55691  0.28525  0.00312  1.0000
  C   C566      1.0  0.55849  0.39830  0.26022  1.0000
  C   C567      1.0  0.54736  0.33491  0.20342  1.0000
  C   C568      1.0  0.71917  0.32771  0.02027  1.0000
  C   C569      1.0  0.53914  0.29375  0.25482  1.0000
  H   H1009     1.0  0.58987  0.31928  0.25023  1.0000
  H   H1010     1.0  0.52605  0.13905  0.13205  1.0000
  H   H1011     1.0  0.50256  0.32318  0.22816  1.0000
  H   H1012     1.0  0.68152  0.33526  0.02995  1.0000
  H   H1013     1.0  0.57189  0.14940  0.25350  1.0000
  H   H1014     1.0  0.71862  0.35411  0.05675  1.0000
  S   S137      1.0  0.50176  0.22572  0.30431  1.0000
  C   C570      1.0  0.55819  0.14325  0.29527  1.0000
  H   H1015     1.0  0.58086  0.40455  0.26606  1.0000
  H   H1016     1.0  0.57487  0.19722  0.30920  1.0000
  C   C571      1.0  0.69177  0.32161  0.03488  1.0000
  C   C572      1.0  0.54947  0.37363  0.24511  1.0000
  H   H1017     1.0  0.58115  0.34308  0.22481  1.0000
  H   H1018     1.0  0.52197  0.23221  0.00709  1.0000
  H   H1019     1.0  0.51102  0.22576  0.04397  1.0000
  N   N31       1.0  0.53573  0.15007  0.28554  1.0000
  C   C573      1.0  0.70142  0.32972  0.05645  1.0000
  H   H1020     1.0  0.64296  0.23383  0.98597  1.0000
  N   N32       1.0  0.53780  0.31838  0.24237  1.0000
  H   H1021     1.0  0.66501  0.33079  0.29845  1.0000
  C   C574      1.0  0.55740  0.32513  0.22280  1.0000
  C   C575      1.0  0.76070  0.31663  0.99275  1.0000
  H   H1022     1.0  0.58286  0.33414  0.99316  1.0000
  C   C576      1.0  0.52837  0.18061  0.15937  1.0000
  C   C577      1.0  0.53669  0.16143  0.17368  1.0000
  H   H1023     1.0  0.57317  0.27991  0.25624  1.0000
  S   S138      1.0  0.61333  0.27591  0.98366  1.0000
  C   C578      1.0  0.53278  0.27930  0.00304  1.0000
  C   C579      1.0  0.56687  0.18130  0.18291  1.0000
  S   S139      1.0  0.64571  0.44054  0.30556  1.0000
  C   C580      1.0  0.49746  0.20991  0.23494  1.0000
  H   H1024     1.0  0.52650  0.31530  0.19833  1.0000
  H   H1025     1.0  0.49289  0.14775  0.29278  1.0000
  H   H1026     1.0  0.63479  0.33032  0.31413  1.0000
  H   H1027     1.0  0.57488  0.16703  0.19035  1.0000
  H   H1028     1.0  0.53594  0.10146  0.23736  1.0000
  H   H1029     1.0  0.60061  0.12454  0.30030  1.0000
  H   H1030     1.0  0.54582  0.18917  0.14641  1.0000
  H   H1031     1.0  0.53259  0.20124  0.16722  1.0000
  H   H1032     1.0  0.53914  0.14441  0.16508  1.0000
  H   H1033     1.0  0.53772  0.35851  0.30516  1.0000
  C   C581      1.0  0.48445  0.13169  0.14923  1.0000
  H   H1034     1.0  0.53041  0.29563  0.01267  1.0000
  H   H1035     1.0  0.58463  0.19669  0.17109  1.0000
  C   C582      1.0  0.48118  0.22229  0.22628  1.0000
  H   H1036     1.0  0.66890  0.28096  0.00500  1.0000
  Fe  Fe70      1.0  0.69312  0.47495  0.31268  1.0000
  H   H1037     1.0  0.49372  0.12708  0.11720  1.0000
  H   H1038     1.0  0.56010  0.41882  0.25261  1.0000
  H   H1039     1.0  0.61131  0.47676  0.25078  1.0000
  H   H1040     1.0  0.49033  0.23763  0.01410  1.0000
  C   C583      1.0  0.69137  0.28772  0.99735  1.0000
  C   C584      1.0  0.74244  0.33207  0.98640  1.0000
  H   H1041     1.0  0.52003  0.12190  0.22463  1.0000
  H   H1042     1.0  0.54181  0.20133  0.30873  1.0000
  H   H1043     1.0  0.48826  0.31715  0.26598  1.0000
  C   C585      1.0  0.48196  0.29771  0.25639  1.0000
  H   H1044     1.0  0.57408  0.08443  0.30249  1.0000
  H   H1045     1.0  0.50218  0.08728  0.14939  1.0000
  C   C586      1.0  0.51446  0.22783  0.10896  1.0000
  H   H1046     1.0  0.53479  0.22782  0.10225  1.0000
  C   C587      1.0  0.49781  0.17956  0.13113  1.0000
  H   H1047     1.0  0.49075  0.16918  0.19621  1.0000
  N   N33       1.0  0.49683  0.16504  0.15175  1.0000
  S   S140      1.0  0.48178  0.18373  0.25627  1.0000
  C   C588      1.0  0.49388  0.09119  0.13493  1.0000
  H   H1048     1.0  0.48711  0.21552  0.13695  1.0000
  H   H1049     1.0  0.50533  0.08621  0.12220  1.0000
  H   H1050     1.0  0.48305  0.19334  0.16739  1.0000
  H   H1051     1.0  0.49518  0.21559  0.09926  1.0000
  C   C589      1.0  0.50111  0.12402  0.13229  1.0000
  H   H1052     1.0  0.48350  0.09181  0.29402  1.0000
  H   H1053     1.0  0.80165  0.31607  0.98329  1.0000
  H   H1054     1.0  0.59972  0.48428  0.27504  1.0000
  S   S141      1.0  0.64758  0.18799  0.31567  1.0000
  H   H1055     1.0  0.51469  0.15259  0.31406  1.0000
  Fe  Fe71      1.0  0.78536  0.08427  0.45505  1.0000
  S   S142      1.0  0.79535  0.05528  0.43500  1.0000
  S   S143      1.0  0.78686  0.07162  0.48820  1.0000
  Fe  Fe72      1.0  0.77870  0.11846  0.41784  1.0000
  S   S144      1.0  0.78937  0.09234  0.39545  1.0000
  S   S145      1.0  0.76563  0.15412  0.40969  1.0000
  Fe  Fe73      1.0  0.75821  0.05155  0.41634  1.0000
  S   S146      1.0  0.71782  0.00851  0.40670  1.0000
  Fe  Fe74      1.0  0.82580  0.09856  0.41635  1.0000
  S   S147      1.0  0.87297  0.10643  0.40854  1.0000
  S   S148      1.0  0.74555  0.07731  0.43774  1.0000
  S   S149      1.0  0.81769  0.12780  0.43731  1.0000
  Fe  Fe75      1.0  0.81109  0.13332  0.59572  1.0000
  S   S150      1.0  0.81980  0.09492  0.60145  1.0000
  S   S151      1.0  0.80492  0.14947  0.56471  1.0000
  Fe  Fe76      1.0  0.85391  0.12549  0.62276  1.0000
  S   S152      1.0  0.89890  0.12648  0.62154  1.0000
  Fe  Fe77      1.0  0.78589  0.08110  0.62805  1.0000
  C   C590      1.0  0.59546  0.22137  0.35136  1.0000
  S   S153      1.0  0.84750  0.16499  0.61520  1.0000
  S   S154      1.0  0.77446  0.11757  0.62092  1.0000
  C   C591      1.0  0.79519  0.09602  0.50826  1.0000
  C   C592      1.0  0.80593  0.08969  0.52596  1.0000
  C   C593      1.0  0.80963  0.10637  0.54317  1.0000
  C   C594      1.0  0.80234  0.12934  0.54292  1.0000
  C   C595      1.0  0.79279  0.13653  0.52494  1.0000
  C   C596      1.0  0.78931  0.11999  0.50762  1.0000
  H   H1056     1.0  0.81095  0.07146  0.52645  1.0000
  H   H1057     1.0  0.81804  0.10145  0.55667  1.0000
  H   H1058     1.0  0.78742  0.15452  0.52456  1.0000
  H   H1059     1.0  0.78100  0.12504  0.49406  1.0000
  H   H1060     1.0  0.94987  0.20355  0.46003  1.0000
  C   C597      1.0  0.63272  0.10211  0.35221  1.0000
  C   C598      1.0  0.57567  0.36260  0.32084  1.0000
  H   H1061     1.0  0.69988  0.35977  0.32440  1.0000
  C   C599      1.0  0.71722  0.05477  0.36516  1.0000
  C   C600      1.0  0.93262  0.15907  0.62746  1.0000
  H   H1062     1.0  0.75493  0.08950  0.34551  1.0000
  H   H1063     1.0  0.73732  0.32018  0.37402  1.0000
  H   H1064     1.0  0.96273  0.09316  0.45575  1.0000
  C   C601      1.0  0.90424  0.14237  0.41203  1.0000
  C   C602      1.0  0.90400  0.16887  0.40637  1.0000
  C   C603      1.0  0.93036  0.14447  0.41982  1.0000
  H   H1065     1.0  0.88400  0.16745  0.40026  1.0000
  H   H1066     1.0  0.93030  0.12398  0.42451  1.0000
  C   C604      1.0  0.72973  0.16686  0.34914  1.0000
  C   C605      1.0  0.74479  0.15014  0.35020  1.0000
  C   C606      1.0  0.75644  0.14652  0.36846  1.0000
  C   C607      1.0  0.75327  0.15973  0.38592  1.0000
  C   C608      1.0  0.73893  0.17715  0.38472  1.0000
  C   C609      1.0  0.72716  0.18064  0.36647  1.0000
  H   H1067     1.0  0.74713  0.13960  0.33684  1.0000
  H   H1068     1.0  0.76765  0.13331  0.36909  1.0000
  H   H1069     1.0  0.73644  0.18758  0.39809  1.0000
  H   H1070     1.0  0.71560  0.19353  0.36593  1.0000
  C   C610      1.0  0.95630  0.19932  0.41553  1.0000
  H   H1071     1.0  0.88461  0.09456  0.47518  1.0000
  H   H1072     1.0  0.66959  0.10572  0.43848  1.0000
  H   H1073     1.0  0.67652  0.99175  0.47228  1.0000
  C   C611      1.0  0.90610  0.21815  0.45549  1.0000
  H   H1074     1.0  0.92996  0.21764  0.40312  1.0000
  H   H1075     1.0  0.67629  0.10600  0.34812  1.0000
  H   H1076     1.0  0.79558  0.02293  0.62811  1.0000
  C   C612      1.0  0.57953  0.23714  0.35080  1.0000
  C   C613      1.0  0.57958  0.18971  0.35173  1.0000
  H   H1077     1.0  0.62770  0.05830  0.37970  1.0000
  H   H1078     1.0  0.78403  0.34663  0.33728  1.0000
  H   H1079     1.0  0.90270  0.14375  0.49038  1.0000
  H   H1080     1.0  0.94785  0.05067  0.36032  1.0000
  H   H1081     1.0  0.64345  0.47108  0.43205  1.0000
  S   S155      1.0  0.74523  0.03401  0.63499  1.0000
  H   H1082     1.0  0.73380  0.40443  0.33438  1.0000
  S   S156      1.0  0.71227  0.16750  0.32645  1.0000
  C   C614      1.0  0.94000  0.20717  0.47433  1.0000
  C   C615      1.0  0.87581  0.23237  0.43239  1.0000
  H   H1083     1.0  0.94925  0.10497  0.38004  1.0000
  C   C616      1.0  0.66159  0.31483  0.33006  1.0000
  H   H1084     1.0  0.86936  0.18802  0.43679  1.0000
  C   C617      1.0  0.87832  0.18926  0.52906  1.0000
  C   C618      1.0  0.53196  0.18972  0.35109  1.0000
  H   H1085     1.0  0.85362  0.22367  0.42556  1.0000
  H   H1086     1.0  0.95305  0.24550  0.49384  1.0000
  H   H1087     1.0  0.73904  0.19518  0.61341  1.0000
  H   H1088     1.0  0.65521  0.00600  0.35772  1.0000
  H   H1089     1.0  0.69572  0.06100  0.57923  1.0000
  C   C619      1.0  0.82382  0.03088  0.57675  1.0000
  C   C620      1.0  0.56847  0.31643  0.33772  1.0000
  H   H1090     1.0  0.72875  0.06456  0.37909  1.0000
  H   H1091     1.0  0.77578  0.44985  0.34683  1.0000
  C   C621      1.0  0.74167  0.06442  0.34786  1.0000
  H   H1092     1.0  0.73084  0.00726  0.50602  1.0000
  H   H1093     1.0  0.63768  0.05154  0.35534  1.0000
  C   C622      1.0  0.58674  0.34758  0.33278  1.0000
  H   H1094     1.0  0.77115  0.43080  0.37137  1.0000
  H   H1095     1.0  0.77391  0.19559  0.61759  1.0000
  H   H1096     1.0  0.85638  0.20032  0.45817  1.0000
  C   C623      1.0  0.52828  0.31547  0.31869  1.0000
  H   H1097     1.0  0.87306  0.10761  0.45346  1.0000
  C   C624      1.0  0.91745  0.19534  0.58132  1.0000
  H   H1098     1.0  0.67253  0.02405  0.39443  1.0000
  H   H1099     1.0  0.89347  0.16502  0.44864  1.0000
  C   C625      1.0  0.96001  0.15876  0.62633  1.0000
  H   H1100     1.0  0.85634  0.18811  0.52671  1.0000
  H   H1101     1.0  0.78742  0.33009  0.36089  1.0000
  C   C626      1.0  0.68691  0.08131  0.39356  1.0000
  H   H1102     1.0  0.97930  0.20493  0.53468  1.0000
  H   H1103     1.0  0.91180  0.18277  0.51320  1.0000
  H   H1104     1.0  0.95692  0.23128  0.56517  1.0000
  H   H1105     1.0  0.64288  0.30168  0.34178  1.0000
  H   H1106     1.0  0.75503  0.03896  0.54131  1.0000
  H   H1107     1.0  0.50190  0.10096  0.31769  1.0000
  H   H1108     1.0  0.68178  0.48276  0.36739  1.0000
  C   C627      1.0  0.96081  0.24068  0.47924  1.0000
  H   H1109     1.0  0.70308  0.07577  0.40069  1.0000
  H   H1110     1.0  0.72977  0.09671  0.58178  1.0000
  H   H1111     1.0  0.92265  0.22218  0.44255  1.0000
  H   H1112     1.0  0.75899  0.30684  0.34410  1.0000
  H   H1113     1.0  0.72420  0.03742  0.51302  1.0000
  H   H1114     1.0  0.71816  0.21519  0.63946  1.0000
  C   C628      1.0  0.95626  0.17288  0.42176  1.0000
  H   H1115     1.0  0.64879  0.08662  0.40564  1.0000
  C   C629      1.0  0.65846  0.09883  0.36061  1.0000
  H   H1116     1.0  0.96077  0.10171  0.41905  1.0000
  S   S157      1.0  0.49231  0.16960  0.35097  1.0000
  H   H1117     1.0  0.82364  0.03298  0.59345  1.0000
  S   S158      1.0  0.63488  0.24134  0.35317  1.0000
  H   H1118     1.0  0.92192  0.14795  0.46619  1.0000
  H   H1119     1.0  0.86539  0.15512  0.46879  1.0000
  C   C630      1.0  0.68474  0.34593  0.33768  1.0000
  C   C631      1.0  0.93005  0.19723  0.40798  1.0000
  H   H1120     1.0  0.76093  0.07312  0.58008  1.0000
  H   H1121     1.0  0.64939  0.45783  0.38443  1.0000
  H   H1122     1.0  0.70564  0.02974  0.36736  1.0000
  H   H1123     1.0  0.69552  0.12909  0.41755  1.0000
  H   H1124     1.0  0.78179  0.98902  0.57787  1.0000
  H   H1125     1.0  0.89511  0.21254  0.53292  1.0000
  H   H1126     1.0  0.69990  0.01475  0.57606  1.0000
  C   C632      1.0  0.77465  0.00140  0.62938  1.0000
  H   H1127     1.0  0.94255  0.19306  0.48633  1.0000
  C   C633      1.0  0.74113  0.01467  0.54652  1.0000
  H   H1128     1.0  0.73907  0.06548  0.55803  1.0000
  H   H1129     1.0  0.68336  0.05460  0.34629  1.0000
  C   C634      1.0  0.53936  0.30031  0.33051  1.0000
  H   H1130     1.0  0.77456  0.23082  0.61253  1.0000
  H   H1131     1.0  0.65470  0.05977  0.42027  1.0000
  C   C635      1.0  0.77224  0.02682  0.57565  1.0000
  H   H1132     1.0  0.70256  0.10270  0.43191  1.0000
  H   H1133     1.0  0.92351  0.20659  0.59586  1.0000
  H   H1134     1.0  0.71287  0.31216  0.34159  1.0000
  C   C636      1.0  0.76126  0.20780  0.62021  1.0000
  H   H1135     1.0  0.62193  0.45490  0.46717  1.0000
  H   H1136     1.0  0.63816  0.02412  0.39821  1.0000
  H   H1137     1.0  0.67242  0.30137  0.32638  1.0000
  H   H1138     1.0  0.76741  0.99550  0.40425  1.0000
  H   H1139     1.0  0.64163  0.12603  0.34660  1.0000
  H   H1140     1.0  0.91332  0.24087  0.46123  1.0000
  C   C637      1.0  0.54780  0.17388  0.35196  1.0000
  C   C638      1.0  0.89027  0.16518  0.46539  1.0000
  H   H1141     1.0  0.74195  0.43817  0.36291  1.0000
  N   N34       1.0  0.90706  0.19732  0.47197  1.0000
  C   C639      1.0  0.71039  0.00140  0.53674  1.0000
  H   H1142     1.0  0.68072  0.45113  0.38109  1.0000
  H   H1143     1.0  0.90148  0.20114  0.57424  1.0000
  H   H1144     1.0  0.87290  0.15638  0.50796  1.0000
  H   H1145     1.0  0.70799  0.08983  0.35566  1.0000
  C   C640      1.0  0.87658  0.11006  0.46993  1.0000
  H   H1146     1.0  0.69502  0.00770  0.44765  1.0000
  H   H1147     1.0  0.79318  0.00989  0.55355  1.0000
  C   C641      1.0  0.96031  0.21158  0.63618  1.0000
  C   C642      1.0  0.64731  0.06569  0.36848  1.0000
  C   C643      1.0  0.71874  0.07182  0.58501  1.0000
  H   H1148     1.0  0.69279  0.00139  0.50742  1.0000
  H   H1149     1.0  0.73133  0.05456  0.33354  1.0000
  H   H1150     1.0  0.93819  0.19659  0.55230  1.0000
  H   H1151     1.0  0.53553  0.14940  0.35262  1.0000
  H   H1152     1.0  0.86818  0.19437  0.48864  1.0000
  H   H1153     1.0  0.94658  0.08180  0.34724  1.0000
  H   H1154     1.0  0.70706  0.25592  0.64083  1.0000
  H   H1155     1.0  0.59180  0.17748  0.35241  1.0000
  C   C644      1.0  0.72400  0.02563  0.57956  1.0000
  H   H1156     1.0  0.61761  0.30354  0.40200  1.0000
  H   H1157     1.0  0.75304  0.00382  0.53933  1.0000
  H   H1158     1.0  0.90307  0.22437  0.49519  1.0000
  H   H1159     1.0  0.83520  0.05388  0.56895  1.0000
  H   H1160     1.0  0.78499  0.05029  0.56867  1.0000
  C   C645      1.0  0.68465  0.10630  0.42564  1.0000
  C   C646      1.0  0.89989  0.14269  0.47388  1.0000
  H   H1161     1.0  0.87475  0.17326  0.54213  1.0000
  H   H1162     1.0  0.71682  0.06709  0.60173  1.0000
  H   H1163     1.0  0.57694  0.30472  0.34696  1.0000
  H   H1164     1.0  0.97730  0.17119  0.54411  1.0000
  H   H1165     1.0  0.72331  0.02199  0.59632  1.0000
  H   H1166     1.0  0.89373  0.23961  0.41988  1.0000
  H   H1167     1.0  0.83713  0.01977  0.57280  1.0000
  C   C647      1.0  0.69437  0.06535  0.36027  1.0000
  C   C648      1.0  0.79153  0.01191  0.57015  1.0000
  H   H1168     1.0  0.59166  0.26158  0.35071  1.0000
  H   H1169     1.0  0.64795  0.29658  0.40783  1.0000
  C   C649      1.0  0.73786  0.06016  0.57459  1.0000
  C   C650      1.0  0.54787  0.22137  0.35022  1.0000
  N   N35       1.0  0.67107  0.06003  0.37717  1.0000
  H   H1170     1.0  0.61445  0.09607  0.36426  1.0000
  H   H1171     1.0  0.96923  0.17925  0.37595  1.0000
  H   H1172     1.0  0.60998  0.47958  0.45597  1.0000
  C   C651      1.0  0.87501  0.20739  0.44628  1.0000
  C   C652      1.0  0.93281  0.18546  0.63268  1.0000
  H   H1173     1.0  0.68177  0.47397  0.41378  1.0000
  C   C653      1.0  0.73935  0.22689  0.64744  1.0000
  H   H1174     1.0  0.97625  0.17445  0.42791  1.0000
  Fe  Fe78      1.0  0.66145  0.23233  0.32920  1.0000
  C   C654      1.0  0.94120  0.06820  0.36189  1.0000
  H   H1175     1.0  0.69503  0.00810  0.54422  1.0000
  C   C655      1.0  0.95744  0.08861  0.37897  1.0000
  C   C656      1.0  0.89190  0.20037  0.49115  1.0000
  H   H1176     1.0  0.96136  0.25644  0.46701  1.0000
  H   H1177     1.0  0.70120  0.10482  0.38692  1.0000
  S   S159      1.0  0.62318  0.36760  0.34174  1.0000
  H   H1178     1.0  0.88010  0.25220  0.44110  1.0000
  C   C657      1.0  0.65597  0.02800  0.38631  1.0000
  H   H1179     1.0  0.97070  0.20217  0.59188  1.0000
  H   H1180     1.0  0.90570  0.17038  0.58448  1.0000
  C   C658      1.0  0.88961  0.18048  0.51011  1.0000
  H   H1181     1.0  0.85454  0.10318  0.47828  1.0000
  C   C659      1.0  0.75681  0.20974  0.64303  1.0000
  C   C660      1.0  0.94585  0.20629  0.56715  1.0000
  H   H1182     1.0  0.66778  0.11479  0.37283  1.0000
  H   H1183     1.0  0.77248  0.02900  0.59238  1.0000
  N   N36       1.0  0.70319  0.34503  0.35470  1.0000
  C   C661      1.0  0.68323  0.32236  0.37165  1.0000
  C   C662      1.0  0.72518  0.33582  0.34634  1.0000
  C   C663      1.0  0.71952  0.37601  0.36296  1.0000
  C   C664      1.0  0.65731  0.32673  0.38090  1.0000
  C   C665      1.0  0.74404  0.40159  0.34815  1.0000
  C   C666      1.0  0.74874  0.33706  0.36097  1.0000
  C   C667      1.0  0.77111  0.32971  0.35011  1.0000
  C   C668      1.0  0.63565  0.29970  0.39533  1.0000
  C   C669      1.0  0.75908  0.43191  0.35803  1.0000
  H   H1184     1.0  0.69689  0.32292  0.38449  1.0000
  H   H1185     1.0  0.67328  0.29896  0.36653  1.0000
  H   H1186     1.0  0.73770  0.34980  0.33225  1.0000
  H   H1187     1.0  0.73010  0.37540  0.37724  1.0000
  H   H1188     1.0  0.70300  0.38337  0.36737  1.0000
  H   H1189     1.0  0.67233  0.35781  0.34195  1.0000
  C   C670      1.0  0.66620  0.08178  0.41124  1.0000
  H   H1190     1.0  0.66680  0.34733  0.38967  1.0000
  H   H1191     1.0  0.64360  0.32908  0.36915  1.0000
  H   H1192     1.0  0.48398  0.22153  0.37746  1.0000
  H   H1193     1.0  0.76220  0.39677  0.34335  1.0000
  H   H1194     1.0  0.76216  0.35980  0.36686  1.0000
  C   C671      1.0  0.74704  0.00051  0.63293  1.0000
  H   H1195     1.0  0.62467  0.27868  0.38695  1.0000
  H   H1196     1.0  0.52542  0.27626  0.33427  1.0000
  H   H1197     1.0  0.95036  0.07385  0.39316  1.0000
  S   S160      1.0  0.70939  0.24364  0.33326  1.0000
  H   H1198     1.0  0.95465  0.17092  0.57674  1.0000
  H   H1199     1.0  0.53575  0.23370  0.34956  1.0000
  H   H1200     1.0  0.71768  0.01245  0.46884  1.0000
  N   N37       1.0  0.73999  0.01095  0.56935  1.0000
  C   C672      1.0  0.64014  0.00279  0.37127  1.0000
  H   H1201     1.0  0.75746  0.05627  0.35177  1.0000
  Fe  Fe79      1.0  0.69678  0.20109  0.31748  1.0000
  C   C673      1.0  0.67445  0.46900  0.38207  1.0000
  H   H1202     1.0  0.91629  0.05660  0.36541  1.0000
  H   H1203     1.0  0.75259  0.24989  0.63957  1.0000
  H   H1204     1.0  0.61958  0.00251  0.36608  1.0000
  H   H1205     1.0  0.95998  0.13830  0.62254  1.0000
  H   H1206     1.0  0.57215  0.10830  0.32132  1.0000
  C   C674      1.0  0.96744  0.19611  0.57580  1.0000
  Fe  Fe80      1.0  0.65545  0.40629  0.31997  1.0000
  C   C675      1.0  0.71490  0.01252  0.51442  1.0000
  H   H1207     1.0  0.91181  0.18586  0.63379  1.0000
  H   H1208     1.0  0.96032  0.23204  0.63994  1.0000
  H   H1209     1.0  0.62329  0.08752  0.33928  1.0000
  H   H1210     1.0  0.97336  0.06991  0.44165  1.0000
  S   S161      1.0  0.70140  0.44089  0.32922  1.0000
  C   C676      1.0  0.62981  0.47849  0.46130  1.0000
  C   C677      1.0  0.69632  0.99651  0.46197  1.0000
  H   H1211     1.0  0.48804  0.23576  0.40238  1.0000
  Fe  Fe81      1.0  0.81135  0.14588  0.64110  1.0000
  H   H1212     1.0  0.97929  0.14393  0.39600  1.0000
  H   H1213     1.0  0.67276  0.48536  0.45001  1.0000
  H   H1214     1.0  0.77970  0.22138  0.64894  1.0000
  H   H1215     1.0  0.58938  0.38665  0.31724  1.0000
  Fe  Fe82      1.0  0.64340  0.19134  0.76211  1.0000
  S   S162      1.0  0.67494  0.18118  0.77889  1.0000
  S   S163      1.0  0.59310  0.16534  0.76976  1.0000
  Fe  Fe83      1.0  0.69489  0.24637  0.73856  1.0000
  S   S164      1.0  0.73086  0.24112  0.75359  1.0000
  S   S165      1.0  0.70244  0.28177  0.71410  1.0000
  Fe  Fe84      1.0  0.70146  0.19137  0.74846  1.0000
  S   S166      1.0  0.71309  0.15707  0.73539  1.0000
  Fe  Fe85      1.0  0.70099  0.23135  0.78244  1.0000
  S   S167      1.0  0.71762  0.25583  0.81136  1.0000
  S   S168      1.0  0.66729  0.19756  0.73161  1.0000
  S   S169      1.0  0.66770  0.24065  0.76747  1.0000
  Fe  Fe86      1.0  0.67438  0.42053  0.74010  1.0000
  S   S170      1.0  0.67915  0.45922  0.75771  1.0000
  S   S171      1.0  0.63455  0.38948  0.72292  1.0000
  Fe  Fe87      1.0  0.73602  0.43130  0.74873  1.0000
  Fe  Fe88      1.0  0.48270  0.28108  0.76642  1.0000
  S   S172      1.0  0.76896  0.41462  0.74421  1.0000
  Fe  Fe89      1.0  0.69896  0.44190  0.78097  1.0000
  S   S173      1.0  0.68704  0.44294  0.81426  1.0000
  H   H1216     1.0  0.75037  0.03039  0.72815  1.0000
  S   S174      1.0  0.69013  0.40103  0.76448  1.0000
  S   S175      1.0  0.71972  0.44758  0.72280  1.0000
  H   H1217     1.0  0.53918  0.16671  0.78206  1.0000
  S   S176      1.0  0.52969  0.23122  0.72966  1.0000
  S   S177      1.0  0.51211  0.26290  0.77675  1.0000
  Fe  Fe90      1.0  0.62638  0.25923  0.90702  1.0000
  S   S178      1.0  0.58676  0.24566  0.92949  1.0000
  S   S179      1.0  0.63126  0.22271  0.89181  1.0000
  Fe  Fe91      1.0  0.64672  0.32515  0.90820  1.0000
  S   S180      1.0  0.60866  0.31730  0.93058  1.0000
  S   S181      1.0  0.68252  0.37254  0.89699  1.0000
  Fe  Fe92      1.0  0.61790  0.28432  0.94809  1.0000
  Fe  Fe93      1.0  0.58000  0.27931  0.91110  1.0000
  S   S182      1.0  0.53300  0.26998  0.90476  1.0000
  S   S183      1.0  0.65859  0.29499  0.92672  1.0000
  S   S184      1.0  0.61721  0.29008  0.88742  1.0000
  H   H1218     1.0  0.60686  0.40419  0.83455  1.0000
  H   H1219     1.0  0.60908  0.28275  0.82983  1.0000
  H   H1220     1.0  0.78209  0.32071  0.96259  1.0000
  H   H1221     1.0  0.71307  0.37044  0.79285  1.0000
  H   H1222     1.0  0.59103  0.43296  0.81138  1.0000
  H   H1223     1.0  0.77801  0.11307  0.71408  1.0000
  H   H1224     1.0  0.62565  0.28408  0.80498  1.0000
  H   H1225     1.0  0.59213  0.35961  0.94894  1.0000
  C   C678      1.0  0.53585  0.25712  0.86429  1.0000
  S   S185      1.0  0.74647  0.47109  0.76715  1.0000
  H   H1226     1.0  0.53620  0.24500  0.83317  1.0000
  H   H1227     1.0  0.55999  0.26689  0.86532  1.0000
  H   H1228     1.0  0.69332  0.31408  0.76097  1.0000
  C   C679      1.0  0.68678  0.42168  0.83610  1.0000
  C   C680      1.0  0.67730  0.39063  0.83651  1.0000
  C   C681      1.0  0.67478  0.37464  0.85518  1.0000
  C   C682      1.0  0.68253  0.38994  0.87326  1.0000
  C   C683      1.0  0.69254  0.42092  0.87249  1.0000
  C   C684      1.0  0.69406  0.43645  0.85421  1.0000
  H   H1229     1.0  0.67119  0.37890  0.82263  1.0000
  H   H1230     1.0  0.66734  0.35073  0.85558  1.0000
  H   H1231     1.0  0.69884  0.43301  0.88623  1.0000
  H   H1232     1.0  0.68556  0.36838  0.94573  1.0000
  C   C685      1.0  0.59879  0.37372  0.73596  1.0000
  C   C686      1.0  0.59162  0.39066  0.74898  1.0000
  C   C687      1.0  0.56201  0.37816  0.75795  1.0000
  C   C688      1.0  0.53998  0.34835  0.75452  1.0000
  C   C689      1.0  0.54740  0.33149  0.74168  1.0000
  C   C690      1.0  0.57653  0.34433  0.73215  1.0000
  H   H1233     1.0  0.60869  0.41352  0.75177  1.0000
  H   H1234     1.0  0.61067  0.32852  0.76367  1.0000
  H   H1235     1.0  0.53064  0.30854  0.73889  1.0000
  H   H1236     1.0  0.58193  0.33119  0.72204  1.0000
  C   C691      1.0  0.74028  0.16362  0.71530  1.0000
  C   C692      1.0  0.76831  0.19040  0.71300  1.0000
  C   C693      1.0  0.78956  0.19456  0.69708  1.0000
  C   C694      1.0  0.78286  0.17230  0.68305  1.0000
  C   C695      1.0  0.75471  0.14566  0.68520  1.0000
  C   C696      1.0  0.73388  0.14099  0.70157  1.0000
  H   H1237     1.0  0.77389  0.20759  0.72380  1.0000
  H   H1238     1.0  0.81136  0.21518  0.69561  1.0000
  H   H1239     1.0  0.74906  0.12883  0.67415  1.0000
  H   H1240     1.0  0.71237  0.12007  0.70335  1.0000
  C   C697      1.0  0.69218  0.24662  0.83297  1.0000
  C   C698      1.0  0.69662  0.26922  0.84623  1.0000
  C   C699      1.0  0.67746  0.26242  0.86393  1.0000
  C   C700      1.0  0.65469  0.23254  0.86909  1.0000
  C   C701      1.0  0.65071  0.20980  0.85610  1.0000
  C   C702      1.0  0.66884  0.21690  0.83785  1.0000
  H   H1241     1.0  0.71522  0.29196  0.84297  1.0000
  H   H1242     1.0  0.68102  0.28006  0.87396  1.0000
  H   H1243     1.0  0.63361  0.18657  0.86020  1.0000
  H   H1244     1.0  0.66559  0.19919  0.82796  1.0000
  C   C703      1.0  0.72140  0.31897  0.72189  1.0000
  C   C704      1.0  0.70759  0.33672  0.72065  1.0000
  C   C705      1.0  0.72222  0.36624  0.72732  1.0000
  C   C706      1.0  0.75125  0.37854  0.73443  1.0000
  C   C707      1.0  0.76570  0.36135  0.73462  1.0000
  C   C708      1.0  0.75053  0.33133  0.72884  1.0000
  H   H1245     1.0  0.68515  0.32731  0.71514  1.0000
  H   H1246     1.0  0.71098  0.37942  0.72692  1.0000
  H   H1247     1.0  0.78843  0.37105  0.73962  1.0000
  H   H1248     1.0  0.76147  0.31787  0.72952  1.0000
  C   C709      1.0  0.57607  0.18454  0.75908  1.0000
  C   C710      1.0  0.58904  0.20311  0.74127  1.0000
  C   C711      1.0  0.57476  0.21758  0.73238  1.0000
  C   C712      1.0  0.54810  0.21438  0.74166  1.0000
  C   C713      1.0  0.53564  0.19662  0.75987  1.0000
  C   C714      1.0  0.54925  0.18112  0.76832  1.0000
  H   H1249     1.0  0.60984  0.20595  0.73415  1.0000
  H   H1250     1.0  0.58456  0.23150  0.71838  1.0000
  C   C715      1.0  0.51786  0.25635  0.88120  1.0000
  H   H1251     1.0  0.60718  0.42337  0.78989  1.0000
  C   C716      1.0  0.60832  0.42698  0.80639  1.0000
  H   H1252     1.0  0.59663  0.29887  0.78357  1.0000
  H   H1253     1.0  0.75884  0.41982  0.82390  1.0000
  C   C717      1.0  0.52243  0.24498  0.84605  1.0000
  C   C718      1.0  0.79491  0.11158  0.70388  1.0000
  H   H1254     1.0  0.69427  0.03550  0.69443  1.0000
  C   C719      1.0  0.53546  0.18092  0.83097  1.0000
  H   H1255     1.0  0.72065  0.37175  0.82899  1.0000
  H   H1256     1.0  0.63055  0.33504  0.78656  1.0000
  N   N38       1.0  0.73295  0.22975  0.66957  1.0000
  C   C720      1.0  0.53911  0.17513  0.89843  1.0000
  C   C721      1.0  0.71637  0.24729  0.67174  1.0000
  C   C722      1.0  0.76318  0.24748  0.67876  1.0000
  C   C723      1.0  0.71540  0.19922  0.68101  1.0000
  C   C724      1.0  0.68354  0.17748  0.67393  1.0000
  C   C725      1.0  0.76230  0.25683  0.70084  1.0000
  H   H1257     1.0  0.77931  0.39992  0.78554  1.0000
  H   H1258     1.0  0.65978  0.23288  0.96171  1.0000
  C   C726      1.0  0.67009  0.14594  0.68452  1.0000
  C   C727      1.0  0.79429  0.27580  0.70794  1.0000
  H   H1259     1.0  0.77445  0.38778  0.84257  1.0000
  C   C728      1.0  0.60406  0.43803  0.69976  1.0000
  H   H1260     1.0  0.70369  0.24132  0.68688  1.0000
  H   H1261     1.0  0.79391  0.12000  0.68837  1.0000
  H   H1262     1.0  0.73855  0.01177  0.68358  1.0000
  H   H1263     1.0  0.52165  0.10403  0.71877  1.0000
  H   H1264     1.0  0.72877  0.18755  0.68086  1.0000
  H   H1265     1.0  0.71174  0.20177  0.69735  1.0000
  C   C729      1.0  0.67523  0.25844  0.66179  1.0000
  H   H1266     1.0  0.68094  0.48473  0.69100  1.0000
  H   H1267     1.0  0.75001  0.23664  0.71155  1.0000
  H   H1268     1.0  0.75115  0.27059  0.70216  1.0000
  C   C730      1.0  0.61906  0.27208  0.82021  1.0000
  H   H1269     1.0  0.80976  0.33579  0.79120  1.0000
  H   H1270     1.0  0.50671  0.31261  0.84798  1.0000
  H   H1271     1.0  0.66013  0.25676  0.64965  1.0000
  C   C731      1.0  0.77690  0.01552  0.69801  1.0000
  H   H1272     1.0  0.66970  0.14718  0.70130  1.0000
  H   H1273     1.0  0.71191  0.06869  0.65202  1.0000
  C   C732      1.0  0.66483  0.24097  0.97726  1.0000
  H   H1274     1.0  0.79292  0.28167  0.72385  1.0000
  H   H1275     1.0  0.80654  0.26293  0.70742  1.0000
  H   H1276     1.0  0.80724  0.29716  0.69825  1.0000
  C   C733      1.0  0.73091  0.05870  0.73157  1.0000
  H   H1277     1.0  0.82853  0.12669  0.72664  1.0000
  H   H1278     1.0  0.63109  0.44632  0.80890  1.0000
  H   H1279     1.0  0.63970  0.27457  0.82702  1.0000
  N   N39       1.0  0.56491  0.34090  0.82394  1.0000
  C   C734      1.0  0.58603  0.33233  0.81323  1.0000
  C   C735      1.0  0.56658  0.33893  0.84674  1.0000
  C   C736      1.0  0.53295  0.31807  0.81902  1.0000
  C   C737      1.0  0.57100  0.37182  0.81651  1.0000
  C   C738      1.0  0.60343  0.39860  0.81843  1.0000
  C   C739      1.0  0.58823  0.33577  0.78967  1.0000
  C   C740      1.0  0.78914  0.07872  0.70336  1.0000
  C   C741      1.0  0.59781  0.34818  0.85507  1.0000
  C   C742      1.0  0.59686  0.35074  0.87806  1.0000
  C   C743      1.0  0.60778  0.32377  0.78042  1.0000
  H   H1280     1.0  0.57928  0.30850  0.81794  1.0000
  H   H1281     1.0  0.60962  0.34616  0.81770  1.0000
  H   H1282     1.0  0.55756  0.35239  0.85412  1.0000
  H   H1283     1.0  0.55166  0.31519  0.85300  1.0000
  H   H1284     1.0  0.52900  0.29459  0.82105  1.0000
  H   H1285     1.0  0.52938  0.32107  0.80280  1.0000
  H   H1286     1.0  0.56538  0.37158  0.80039  1.0000
  H   H1287     1.0  0.55565  0.37789  0.82486  1.0000
  H   H1288     1.0  0.62106  0.39362  0.81266  1.0000
  H   H1289     1.0  0.56574  0.32327  0.78338  1.0000
  H   H1290     1.0  0.59884  0.36000  0.78441  1.0000
  H   H1291     1.0  0.70356  0.30587  0.79538  1.0000
  C   C744      1.0  0.55929  0.17658  0.86232  1.0000
  H   H1292     1.0  0.60406  0.33065  0.85196  1.0000
  H   H1293     1.0  0.61599  0.37009  0.84812  1.0000
  H   H1294     1.0  0.57888  0.32916  0.88579  1.0000
  H   H1295     1.0  0.61888  0.35578  0.88386  1.0000
  H   H1296     1.0  0.59259  0.36934  0.88190  1.0000
  C   C745      1.0  0.49093  0.23139  0.84483  1.0000
  H   H1297     1.0  0.68354  0.13526  0.67985  1.0000
  H   H1298     1.0  0.54011  0.19075  0.81507  1.0000
  C   C746      1.0  0.58481  0.22195  0.83957  1.0000
  H   H1299     1.0  0.55630  0.39134  0.76777  1.0000
  C   C747      1.0  0.70950  0.04411  0.68038  1.0000
  C   C748      1.0  0.73234  0.35841  0.82752  1.0000
  H   H1300     1.0  0.57293  0.23256  0.84707  1.0000
  C   C749      1.0  0.75383  0.36515  0.84500  1.0000
  C   C750      1.0  0.77178  0.39579  0.80197  1.0000
  H   H1301     1.0  0.71630  0.34259  0.86821  1.0000
  H   H1302     1.0  0.58722  0.31569  0.97157  1.0000
  H   H1303     1.0  0.57717  0.23749  0.80995  1.0000
  H   H1304     1.0  0.74515  0.32010  0.81159  1.0000
  H   H1305     1.0  0.71394  0.33450  0.83046  1.0000
  C   C751      1.0  0.82636  0.13326  0.71086  1.0000
  H   H1306     1.0  0.84421  0.13340  0.70056  1.0000
  H   H1307     1.0  0.72639  0.36879  0.96478  1.0000
  H   H1308     1.0  0.77465  0.30019  0.79053  1.0000
  H   H1309     1.0  0.61365  0.14797  0.81660  1.0000
  H   H1310     1.0  0.70757  0.02454  0.67246  1.0000
  H   H1311     1.0  0.58744  0.10994  0.82673  1.0000
  H   H1312     1.0  0.57722  0.12605  0.80599  1.0000
  H   H1313     1.0  0.60705  0.42171  0.70950  1.0000
  H   H1314     1.0  0.78117  0.35181  0.81386  1.0000
  H   H1315     1.0  0.60748  0.22909  0.80874  1.0000
  C   C752      1.0  0.76356  0.42035  0.80728  1.0000
  H   H1316     1.0  0.75177  0.07645  0.73795  1.0000
  H   H1317     1.0  0.68688  0.02223  0.74403  1.0000
  C   C753      1.0  0.59619  0.23864  0.81821  1.0000
  C   C754      1.0  0.68474  0.27546  0.97596  1.0000
  H   H1318     1.0  0.77821  0.26862  0.66913  1.0000
  N   N40       1.0  0.74702  0.36325  0.80643  1.0000
  H   H1319     1.0  0.57621  0.17475  0.81180  1.0000
  H   H1320     1.0  0.60600  0.19000  0.82823  1.0000
  H   H1321     1.0  0.79891  0.03249  0.70357  1.0000
  H   H1322     1.0  0.53774  0.27379  0.95188  1.0000
  H   H1323     1.0  0.75104  0.32728  0.77400  1.0000
  N   N41       1.0  0.56463  0.18798  0.84024  1.0000
  H   H1324     1.0  0.60508  0.22790  0.84833  1.0000
  H   H1325     1.0  0.58117  0.18107  0.86831  1.0000
  C   C755      1.0  0.58928  0.13117  0.82022  1.0000
  C   C756      1.0  0.76091  0.34326  0.80476  1.0000
  H   H1326     1.0  0.58527  0.14429  0.85007  1.0000
  H   H1327     1.0  0.73389  0.38350  0.86570  1.0000
  C   C757      1.0  0.58099  0.17508  0.82814  1.0000
  C   C758      1.0  0.57501  0.14315  0.83537  1.0000
  C   C759      1.0  0.48532  0.12705  0.70467  1.0000
  Fe  Fe94      1.0  0.49559  0.23426  0.75025  1.0000
  H   H1328     1.0  0.48829  0.12574  0.68802  1.0000
  H   H1329     1.0  0.51527  0.19440  0.76720  1.0000
  H   H1330     1.0  0.56178  0.21482  0.87855  1.0000
  H   H1331     1.0  0.55138  0.26212  0.97234  1.0000
  S   S186      1.0  0.50352  0.33168  0.76672  1.0000
  H   H1332     1.0  0.82991  0.15660  0.71044  1.0000
  H   H1333     1.0  0.68040  0.32006  0.80582  1.0000
  C   C760      1.0  0.54686  0.40840  0.70669  1.0000
  C   C761      1.0  0.69635  0.32284  0.79291  1.0000
  H   H1334     1.0  0.54128  0.31836  0.95776  1.0000
  H   H1335     1.0  0.59817  0.42743  0.68503  1.0000
  H   H1336     1.0  0.52435  0.19194  0.83895  1.0000
  H   H1337     1.0  0.67324  0.33299  0.76928  1.0000
  C   C762      1.0  0.73859  0.03872  0.71827  1.0000
  C   C763      1.0  0.63781  0.48196  0.71807  1.0000
  C   C764      1.0  0.54562  0.19040  0.87707  1.0000
  H   H1338     1.0  0.54433  0.15168  0.86408  1.0000
  H   H1339     1.0  0.79244  0.40071  0.80990  1.0000
  H   H1340     1.0  0.55053  0.12637  0.83754  1.0000
  H   H1341     1.0  0.56033  0.17800  0.90452  1.0000
  H   H1342     1.0  0.70111  0.46027  0.85412  1.0000
  H   H1343     1.0  0.76091  0.34784  0.84618  1.0000
  C   C765      1.0  0.67916  0.31548  0.77358  1.0000
  C   C766      1.0  0.50484  0.23020  0.96567  1.0000
  C   C767      1.0  0.77106  0.34017  0.78297  1.0000
  H   H1344     1.0  0.52404  0.18771  0.87195  1.0000
  C   C768      1.0  0.72333  0.35584  0.79128  1.0000
  H   H1345     1.0  0.77512  0.23434  0.67915  1.0000
  H   H1346     1.0  0.72042  0.06965  0.72291  1.0000
  C   C769      1.0  0.57590  0.43837  0.70917  1.0000
  H   H1347     1.0  0.69732  0.07881  0.67405  1.0000
  H   H1348     1.0  0.65802  0.29320  0.77576  1.0000
  H   H1349     1.0  0.70633  0.45986  0.67280  1.0000
  H   H1350     1.0  0.79500  0.32098  0.76722  1.0000
  H   H1351     1.0  0.66179  0.45016  0.70614  1.0000
  S   S187      1.0  0.82052  0.10834  0.65008  1.0000
  H   H1352     1.0  0.50654  0.13437  0.84474  1.0000
  N   N42       1.0  0.75760  0.05400  0.69884  1.0000
  H   H1353     1.0  0.75291  0.36627  0.87785  1.0000
  H   H1354     1.0  0.78598  0.36276  0.77520  1.0000
  H   H1355     1.0  0.73390  0.36135  0.77552  1.0000
  H   H1356     1.0  0.77374  0.04120  0.67234  1.0000
  C   C770      1.0  0.78973  0.45203  0.80077  1.0000
  C   C771      1.0  0.73814  0.36421  0.86540  1.0000
  H   H1357     1.0  0.74342  0.41722  0.79953  1.0000
  H   H1358     1.0  0.69970  0.33156  0.95802  1.0000
  C   C772      1.0  0.78871  0.32326  0.78310  1.0000
  H   H1359     1.0  0.75650  0.07620  0.67068  1.0000
  C   C773      1.0  0.51782  0.14412  0.71237  1.0000
  H   H1360     1.0  0.67407  0.04335  0.66285  1.0000
  C   C774      1.0  0.65830  0.44624  0.67363  1.0000
  H   H1361     1.0  0.53422  0.21096  0.96115  1.0000
  H   H1362     1.0  0.50900  0.34141  0.83029  1.0000
  H   H1363     1.0  0.66160  0.46103  0.65994  1.0000
  H   H1364     1.0  0.70397  0.05492  0.75894  1.0000
  C   C775      1.0  0.53118  0.26318  0.96766  1.0000
  H   H1365     1.0  0.58941  0.46475  0.66776  1.0000
  C   C776      1.0  0.59611  0.36138  0.96538  1.0000
  C   C777      1.0  0.51191  0.14698  0.82976  1.0000
  H   H1366     1.0  0.52057  0.13673  0.81873  1.0000
  S   S188      1.0  0.81016  0.17912  0.66298  1.0000
  H   H1367     1.0  0.63679  0.42447  0.67323  1.0000
  H   H1368     1.0  0.79479  0.45426  0.78405  1.0000
  H   H1369     1.0  0.81037  0.45676  0.80858  1.0000
  H   H1370     1.0  0.76226  0.00034  0.71113  1.0000
  H   H1371     1.0  0.63503  0.46506  0.73038  1.0000
  C   C778      1.0  0.51528  0.21155  0.95383  1.0000
  H   H1372     1.0  0.74174  0.08543  0.69221  1.0000
  H   H1373     1.0  0.80644  0.08031  0.69175  1.0000
  H   H1374     1.0  0.57366  0.45712  0.70211  1.0000
  H   H1375     1.0  0.71713  0.01803  0.71504  1.0000
  H   H1376     1.0  0.79581  0.07303  0.71800  1.0000
  H   H1377     1.0  0.53183  0.16627  0.70371  1.0000
  C   C779      1.0  0.69757  0.05983  0.66649  1.0000
  C   C780      1.0  0.74265  0.06646  0.68533  1.0000
  Fe  Fe95      1.0  0.72618  0.48517  0.74234  1.0000
  C   C781      1.0  0.53403  0.12602  0.70970  1.0000
  H   H1378     1.0  0.52725  0.40870  0.71436  1.0000
  C   C782      1.0  0.50691  0.31875  0.83166  1.0000
  H   H1379     1.0  0.54844  0.38918  0.71375  1.0000
  C   C783      1.0  0.48218  0.14285  0.82233  1.0000
  H   H1380     1.0  0.78335  0.46914  0.80483  1.0000
  H   H1381     1.0  0.64647  0.13140  0.68023  1.0000
  C   C784      1.0  0.57840  0.33033  0.97689  1.0000
  H   H1382     1.0  0.67825  0.22017  0.65249  1.0000
  H   H1383     1.0  0.70576  0.28130  0.96671  1.0000
  N   N43       1.0  0.63316  0.46817  0.69768  1.0000
  C   C785      1.0  0.65930  0.46287  0.69300  1.0000
  H   H1384     1.0  0.55721  0.13902  0.71517  1.0000
  H   H1385     1.0  0.67200  0.28449  0.96805  1.0000
  H   H1386     1.0  0.57788  0.44133  0.72575  1.0000
  C   C786      1.0  0.76093  0.03069  0.68724  1.0000
  C   C787      1.0  0.68392  0.43892  0.67246  1.0000
  H   H1387     1.0  0.58926  0.37719  0.97158  1.0000
  C   C788      1.0  0.70866  0.03993  0.74950  1.0000
  H   H1388     1.0  0.54274  0.40474  0.69037  1.0000
  H   H1389     1.0  0.61876  0.45977  0.65625  1.0000
  C   C789      1.0  0.70287  0.34964  0.96804  1.0000
  H   H1390     1.0  0.50140  0.23346  0.69093  1.0000
  H   H1391     1.0  0.66097  0.24660  0.67595  1.0000
  H   H1392     1.0  0.68105  0.42292  0.68535  1.0000
  H   H1393     1.0  0.73271  0.27213  0.67147  1.0000
  H   H1394     1.0  0.52981  0.18576  0.90868  1.0000
  H   H1395     1.0  0.71832  0.02904  0.75915  1.0000
  H   H1396     1.0  0.62075  0.37093  0.96706  1.0000
  C   C790      1.0  0.68116  0.36063  0.96209  1.0000
  H   H1397     1.0  0.66799  0.18607  0.67799  1.0000
  H   H1398     1.0  0.65728  0.34195  0.96454  1.0000
  H   H1399     1.0  0.48540  0.16994  0.68132  1.0000
  H   H1400     1.0  0.53601  0.12192  0.69345  1.0000
  H   H1401     1.0  0.73933  0.32903  0.96995  1.0000
  C   C791      1.0  0.48669  0.24413  0.87954  1.0000
  H   H1402     1.0  0.68438  0.37984  0.97114  1.0000
  C   C792      1.0  0.54394  0.31542  0.97423  1.0000
  H   H1403     1.0  0.52224  0.15061  0.89831  1.0000
  H   H1404     1.0  0.50293  0.18690  0.70325  1.0000
  H   H1405     1.0  0.52248  0.22118  0.93792  1.0000
  H   H1406     1.0  0.68346  0.42803  0.65811  1.0000
  C   C793      1.0  0.61401  0.47647  0.66320  1.0000
  H   H1407     1.0  0.68403  0.17484  0.65736  1.0000
  H   H1408     1.0  0.51761  0.14842  0.72869  1.0000
  H   H1409     1.0  0.49472  0.21800  0.98057  1.0000
  H   H1410     1.0  0.48629  0.15640  0.80781  1.0000
  H   H1411     1.0  0.79903  0.01058  0.67061  1.0000
  C   C794      1.0  0.78875  0.32709  0.97828  1.0000
  H   H1412     1.0  0.48487  0.16423  0.73624  1.0000
  H   H1413     1.0  0.49056  0.30720  0.96000  1.0000
  H   H1414     1.0  0.49622  0.18795  0.95343  1.0000
  H   H1415     1.0  0.74421  0.18617  0.64985  1.0000
  H   H1416     1.0  0.80381  0.35203  0.97820  1.0000
  H   H1417     1.0  0.69018  0.28274  0.66453  1.0000
  C   C795      1.0  0.69410  0.24406  0.65538  1.0000
  C   C796      1.0  0.78305  0.99617  0.68353  1.0000
  H   H1418     1.0  0.49127  0.27626  0.94851  1.0000
  H   H1419     1.0  0.48645  0.23029  0.95732  1.0000
  H   H1420     1.0  0.53615  0.32950  0.98218  1.0000
  N   N44       1.0  0.52467  0.28245  0.98167  1.0000
  C   C797      1.0  0.48040  0.17165  0.69762  1.0000
  C   C798      1.0  0.48203  0.28246  0.96184  1.0000
  C   C799      1.0  0.49204  0.27492  0.98213  1.0000
  C   C800      1.0  0.68224  0.57886  0.20986  1.0000
  H   H1421     1.0  0.57458  0.81945  0.25546  1.0000
  H   H1422     1.0  0.49641  0.83733  0.27011  1.0000
  H   H1423     1.0  0.74029  0.58884  0.30329  1.0000
  H   H1424     1.0  0.70128  0.54999  0.20851  1.0000
  S   S189      1.0  0.52644  0.73885  0.30007  1.0000
  H   H1425     1.0  0.74540  0.55338  0.23277  1.0000
  H   H1426     1.0  0.75981  0.56763  0.30066  1.0000
  C   C801      1.0  0.71500  0.54988  0.27234  1.0000
  H   H1427     1.0  0.73951  0.52651  0.25267  1.0000
  H   H1428     1.0  0.53511  0.67900  0.30056  1.0000
  H   H1429     1.0  0.53477  0.64780  0.31441  1.0000
  H   H1430     1.0  0.71578  0.53189  0.28186  1.0000
  H   H1431     1.0  0.68843  0.57067  0.24931  1.0000
  H   H1432     1.0  0.74563  0.59880  0.26555  1.0000
  N   N45       1.0  0.70400  0.53832  0.25182  1.0000
  H   H1433     1.0  0.58255  0.78273  0.31538  1.0000
  C   C802      1.0  0.72739  0.53243  0.24130  1.0000
  N   N46       1.0  0.49631  0.81595  0.29917  1.0000
  C   C803      1.0  0.70111  0.56241  0.23993  1.0000
  H   H1434     1.0  0.72384  0.58275  0.23635  1.0000
  H   H1435     1.0  0.66686  0.58307  0.21987  1.0000
  C   C804      1.0  0.55745  0.80580  0.26804  1.0000
  H   H1436     1.0  0.64499  0.52992  0.25978  1.0000
  H   H1437     1.0  0.52679  0.79824  0.30365  1.0000
  H   H1438     1.0  0.66509  0.49869  0.24105  1.0000
  H   H1439     1.0  0.77918  0.60749  0.29321  1.0000
  H   H1440     1.0  0.56855  0.67551  0.29933  1.0000
  C   C805      1.0  0.68640  0.55357  0.21938  1.0000
  C   C806      1.0  0.67389  0.50930  0.25548  1.0000
  H   H1441     1.0  0.49958  0.77956  0.28598  1.0000
  H   H1442     1.0  0.56942  0.80381  0.28117  1.0000
  H   H1443     1.0  0.75530  0.52723  0.20496  1.0000
  H   H1444     1.0  0.66372  0.53289  0.22112  1.0000
  C   C807      1.0  0.53924  0.82105  0.27390  1.0000
  H   H1445     1.0  0.70442  0.60013  0.20718  1.0000
  H   H1446     1.0  0.91727  0.66391  0.30644  1.0000
  H   H1447     1.0  0.55548  0.84404  0.27847  1.0000
  H   H1448     1.0  0.67201  0.57214  0.19502  1.0000
  H   H1449     1.0  0.69902  0.55510  0.28077  1.0000
  H   H1450     1.0  0.76420  0.57683  0.26319  1.0000
  C   C808      1.0  0.51490  0.80242  0.29137  1.0000
  C   C809      1.0  0.74661  0.57904  0.27213  1.0000
  H   H1451     1.0  0.70104  0.50784  0.21556  1.0000
  C   C810      1.0  0.71589  0.50630  0.22669  1.0000
  H   H1452     1.0  0.54227  0.78283  0.26283  1.0000
  C   C811      1.0  0.75702  0.58612  0.29365  1.0000
  C   C812      1.0  0.54904  0.67216  0.30942  1.0000
  C   C813      1.0  0.64803  0.51171  0.26685  1.0000
  H   H1453     1.0  0.65277  0.51615  0.28303  1.0000
  C   C814      1.0  0.74217  0.50614  0.21488  1.0000
  C   C815      1.0  0.51583  0.84692  0.30692  1.0000
  H   H1454     1.0  0.75746  0.50399  0.22548  1.0000
  H   H1455     1.0  0.50148  0.85582  0.31316  1.0000
  H   H1456     1.0  0.52860  0.82303  0.26004  1.0000
  H   H1457     1.0  0.53002  0.86344  0.29414  1.0000
  H   H1458     1.0  0.67688  0.49224  0.26442  1.0000
  C   C816      1.0  0.48006  0.81944  0.28150  1.0000
  H   H1459     1.0  0.73312  0.48652  0.20515  1.0000
  H   H1460     1.0  0.57465  0.89375  0.31362  1.0000
  Fe  Fe96      1.0  0.63503  0.80697  0.44687  1.0000
  S   S190      1.0  0.68026  0.81349  0.43638  1.0000
  S   S191      1.0  0.62046  0.81043  0.47906  1.0000
  Fe  Fe97      1.0  0.61072  0.79378  0.40393  1.0000
  S   S192      1.0  0.65483  0.80019  0.39020  1.0000
  S   S193      1.0  0.56496  0.77620  0.39004  1.0000
  Fe  Fe98      1.0  0.65461  0.77316  0.41794  1.0000
  S   S194      1.0  0.65773  0.73028  0.41801  1.0000
  Fe  Fe99      1.0  0.67671  0.84022  0.40984  1.0000
  S   S195      1.0  0.71913  0.88513  0.40124  1.0000
  S   S196      1.0  0.60934  0.76452  0.43065  1.0000
  S   S197      1.0  0.63273  0.83593  0.42143  1.0000
  Fe  Fe100     1.0  0.68639  0.82491  0.58694  1.0000
  S   S198      1.0  0.72558  0.83619  0.60609  1.0000
  S   S199      1.0  0.69905  0.82239  0.55389  1.0000
  Fe  Fe101     1.0  0.71142  0.86563  0.62242  1.0000
  S   S200      1.0  0.75048  0.91274  0.62746  1.0000
  Fe  Fe102     1.0  0.69267  0.79816  0.62771  1.0000
  H   H1461     1.0  0.61820  0.95386  0.37062  1.0000
  S   S201      1.0  0.67400  0.85656  0.60195  1.0000
  S   S202      1.0  0.65415  0.78502  0.60765  1.0000
  Fe  Fe103     1.0  0.78878  0.63414  0.41106  1.0000
  S   S203      1.0  0.82297  0.68283  0.40211  1.0000
  S   S204      1.0  0.78488  0.59478  0.39337  1.0000
  Fe  Fe104     1.0  0.77843  0.64961  0.45461  1.0000
  S   S205      1.0  0.81175  0.69903  0.44858  1.0000
  S   S206      1.0  0.75559  0.62747  0.48552  1.0000
  Fe  Fe105     1.0  0.78983  0.69304  0.41888  1.0000
  S   S207      1.0  0.78248  0.73102  0.40728  1.0000
  Fe  Fe106     1.0  0.84164  0.68465  0.43260  1.0000
  S   S208      1.0  0.88846  0.69659  0.44174  1.0000
  S   S209      1.0  0.75419  0.64406  0.42584  1.0000
  S   S210      1.0  0.80951  0.63547  0.44061  1.0000
  Fe  Fe107     1.0  0.81511  0.68482  0.59438  1.0000
  S   S211      1.0  0.85118  0.72105  0.61182  1.0000
  S   S212      1.0  0.81502  0.70210  0.56220  1.0000
  Fe  Fe108     1.0  0.81397  0.70676  0.63631  1.0000
  H   H1462     1.0  0.75896  0.91613  0.43580  1.0000
  Fe  Fe109     1.0  0.85891  0.68508  0.62559  1.0000
  H   H1463     1.0  0.95118  0.64003  0.64626  1.0000
  S   S213      1.0  0.77747  0.67223  0.61830  1.0000
  S   S214      1.0  0.82580  0.64968  0.60609  1.0000
  C   C817      1.0  0.93844  0.72122  0.62889  1.0000
  C   C818      1.0  0.95459  0.77011  0.40786  1.0000
  H   H1464     1.0  0.84765  0.63100  0.47837  1.0000
  H   H1465     1.0  0.82145  0.60540  0.63868  1.0000
  C   C819      1.0  0.92346  0.72507  0.43015  1.0000
  C   C820      1.0  0.92597  0.74830  0.41691  1.0000
  C   C821      1.0  0.67596  0.56879  0.40040  1.0000
  H   H1466     1.0  0.90597  0.74945  0.41363  1.0000
  H   H1467     1.0  0.94777  0.70563  0.44416  1.0000
  C   C822      1.0  0.77282  0.64785  0.50687  1.0000
  C   C823      1.0  0.76665  0.63266  0.52615  1.0000
  C   C824      1.0  0.77992  0.64875  0.54334  1.0000
  C   C825      1.0  0.79909  0.68017  0.54130  1.0000
  C   C826      1.0  0.80521  0.69526  0.52206  1.0000
  C   C827      1.0  0.79220  0.67921  0.50495  1.0000
  H   H1468     1.0  0.75160  0.60840  0.52780  1.0000
  H   H1469     1.0  0.77497  0.63694  0.55815  1.0000
  H   H1470     1.0  0.81978  0.71960  0.52041  1.0000
  H   H1471     1.0  0.79666  0.69128  0.49037  1.0000
  C   C828      1.0  0.74829  0.94609  0.62938  1.0000
  C   C829      1.0  0.71880  0.97450  0.40558  1.0000
  C   C830      1.0  0.90567  0.65834  0.35935  1.0000
  H   H1472     1.0  0.72711  0.68284  0.48114  1.0000
  H   H1473     1.0  0.69981  0.92362  0.63458  1.0000
  H   H1474     1.0  0.75935  0.72087  0.47692  1.0000
  H   H1475     1.0  0.96679  0.79518  0.63918  1.0000
  H   H1476     1.0  0.58935  0.71264  0.46677  1.0000
  H   H1477     1.0  0.90222  0.78031  0.47312  1.0000
  H   H1478     1.0  0.88167  0.68214  0.53785  1.0000
  C   C831      1.0  0.75931  0.55403  0.45368  1.0000
  C   C832      1.0  0.72432  0.72547  0.64402  1.0000
  C   C833      1.0  0.69261  0.73094  0.41504  1.0000
  C   C834      1.0  0.69286  0.70361  0.41733  1.0000
  C   C835      1.0  0.72028  0.70330  0.41531  1.0000
  C   C836      1.0  0.74760  0.73034  0.41071  1.0000
  C   C837      1.0  0.74726  0.75761  0.40830  1.0000
  C   C838      1.0  0.71991  0.75798  0.41058  1.0000
  H   H1479     1.0  0.67179  0.68261  0.42075  1.0000
  H   H1480     1.0  0.72026  0.68216  0.41706  1.0000
  H   H1481     1.0  0.76829  0.77858  0.40460  1.0000
  H   H1482     1.0  0.71995  0.77913  0.40867  1.0000
  C   C839      1.0  0.71852  0.91926  0.40313  1.0000
  C   C840      1.0  0.74598  0.94685  0.40296  1.0000
  C   C841      1.0  0.69121  0.91941  0.40471  1.0000
  H   H1483     1.0  0.73711  0.79387  0.58025  1.0000
  H   H1484     1.0  0.66996  0.89841  0.40463  1.0000
  C   C842      1.0  0.64277  0.81432  0.49968  1.0000
  C   C843      1.0  0.63088  0.81299  0.51949  1.0000
  C   C844      1.0  0.64793  0.81570  0.53632  1.0000
  C   C845      1.0  0.67704  0.81984  0.53337  1.0000
  C   C846      1.0  0.68922  0.82187  0.51352  1.0000
  C   C847      1.0  0.67214  0.81909  0.49671  1.0000
  H   H1485     1.0  0.60823  0.80953  0.52185  1.0000
  H   H1486     1.0  0.63845  0.81429  0.55155  1.0000
  H   H1487     1.0  0.71193  0.82554  0.51116  1.0000
  H   H1488     1.0  0.68170  0.82075  0.48151  1.0000
  H   H1489     1.0  0.71113  0.57484  0.34130  1.0000
  H   H1490     1.0  0.71655  0.97349  0.44748  1.0000
  C   C848      1.0  0.57552  0.78042  0.34804  1.0000
  C   C849      1.0  0.55490  0.76626  0.36487  1.0000
  C   C850      1.0  0.52494  0.74406  0.36170  1.0000
  C   C851      1.0  0.51586  0.73537  0.34199  1.0000
  H   H1491     1.0  0.59851  0.79790  0.35023  1.0000
  H   H1492     1.0  0.50869  0.73327  0.37460  1.0000
  C   C852      1.0  0.94918  0.72825  0.48602  1.0000
  C   C853      1.0  0.72406  0.54060  0.34295  1.0000
  C   C854      1.0  0.74217  0.53122  0.35254  1.0000
  C   C855      1.0  0.76083  0.54830  0.36778  1.0000
  C   C856      1.0  0.76163  0.57492  0.37360  1.0000
  C   C857      1.0  0.74373  0.58448  0.36388  1.0000
  C   C858      1.0  0.72499  0.56734  0.34867  1.0000
  H   H1493     1.0  0.74174  0.51074  0.34828  1.0000
  H   H1494     1.0  0.77464  0.54074  0.37516  1.0000
  H   H1495     1.0  0.74437  0.60508  0.36804  1.0000
  Fe  Fe110     1.0  0.64501  0.81722  0.62482  1.0000
  Fe  Fe111     1.0  0.79115  0.63987  0.63191  1.0000
  C   C859      1.0  0.60989  0.73408  0.35394  1.0000
  H   H1496     1.0  0.56803  0.68362  0.63984  1.0000
  C   C860      1.0  0.57220  0.70653  0.39477  1.0000
  C   C861      1.0  0.65399  0.48751  0.44388  1.0000
  C   C862      1.0  0.54302  0.69752  0.40765  1.0000
  H   H1497     1.0  0.55208  0.70416  0.36660  1.0000
  H   H1498     1.0  0.59485  0.74201  0.34817  1.0000
  H   H1499     1.0  0.61873  0.74659  0.36776  1.0000
  H   H1500     1.0  0.71506  0.67975  0.51946  1.0000
  H   H1501     1.0  0.70733  0.69881  0.55068  1.0000
  C   C863      1.0  0.77525  0.97430  0.62768  1.0000
  H   H1502     1.0  0.58580  0.73156  0.39365  1.0000
  H   H1503     1.0  0.58490  0.69773  0.40315  1.0000
  H   H1504     1.0  0.90708  0.80488  0.49335  1.0000
  H   H1505     1.0  0.80337  0.79730  0.64422  1.0000
  C   C864      1.0  0.53675  0.84929  0.32396  1.0000
  H   H1506     1.0  0.52985  0.70672  0.40030  1.0000
  H   H1507     1.0  0.71448  0.54695  0.45910  1.0000
  S   S215      1.0  0.69980  0.51964  0.32390  1.0000
  H   H1508     1.0  0.89450  0.72889  0.48117  1.0000
  H   H1509     1.0  0.73824  0.92431  0.50171  1.0000
  H   H1510     1.0  0.68178  0.91713  0.57032  1.0000
  H   H1511     1.0  0.55299  0.70700  0.64731  1.0000
  H   H1512     1.0  0.68436  0.88085  0.49479  1.0000
  H   H1513     1.0  0.81440  0.79512  0.57350  1.0000
  C   C865      1.0  0.80947  0.77306  0.58067  1.0000
  H   H1514     1.0  0.69656  0.69730  0.46007  1.0000
  H   H1515     1.0  0.60800  0.67751  0.64030  1.0000
  C   C866      1.0  0.56003  0.69147  0.32775  1.0000
  H   H1516     1.0  0.63250  0.78104  0.32315  1.0000
  C   C867      1.0  0.63548  0.72900  0.47493  1.0000
  H   H1517     1.0  0.73794  0.82990  0.45855  1.0000
  C   C868      1.0  0.69884  0.56532  0.41350  1.0000
  N   N47       1.0  0.75282  0.74648  0.57283  1.0000
  C   C869      1.0  0.71925  0.53508  0.42781  1.0000
  C   C870      1.0  0.96611  0.72203  0.62476  1.0000
  H   H1518     1.0  0.96586  0.67599  0.36476  1.0000
  C   C871      1.0  0.83302  0.59258  0.63475  1.0000
  C   C872      1.0  0.68522  0.60214  0.39675  1.0000
  H   H1519     1.0  0.87101  0.77096  0.49150  1.0000
  C   C873      1.0  0.94958  0.72392  0.43436  1.0000
  H   H1520     1.0  0.77521  0.80549  0.58646  1.0000
  N   N48       1.0  0.59194  0.70047  0.35922  1.0000
  H   H1521     1.0  0.71196  0.88216  0.52695  1.0000
  C   C874      1.0  0.75560  0.78001  0.64102  1.0000
  C   C875      1.0  0.66482  0.51995  0.43494  1.0000
  C   C876      1.0  0.67812  0.92641  0.58444  1.0000
  H   H1522     1.0  0.76815  0.56889  0.46657  1.0000
  H   H1523     1.0  0.92951  0.72139  0.54878  1.0000
  H   H1524     1.0  0.68961  0.92178  0.59682  1.0000
  H   H1525     1.0  0.75785  0.80220  0.63916  1.0000
  H   H1526     1.0  0.87036  0.67788  0.37181  1.0000
  H   H1527     1.0  0.53955  0.68804  0.33665  1.0000
  H   H1528     1.0  0.93144  0.77475  0.50049  1.0000
  H   H1529     1.0  0.67795  0.94810  0.48821  1.0000
  C   C877      1.0  0.90638  0.72462  0.36522  1.0000
  H   H1530     1.0  0.85658  0.60924  0.62949  1.0000
  H   H1531     1.0  0.54868  0.70699  0.42279  1.0000
  H   H1532     1.0  0.88896  0.69782  0.39309  1.0000
  C   C878      1.0  0.77572  0.75334  0.58853  1.0000
  H   H1533     1.0  0.66893  0.60412  0.38706  1.0000
  H   H1534     1.0  0.65933  0.50709  0.39737  1.0000
  H   H1535     1.0  0.87898  0.73049  0.56760  1.0000
  H   H1536     1.0  0.93845  0.69320  0.33633  1.0000
  H   H1537     1.0  0.79613  0.83867  0.55519  1.0000
  N   N49       1.0  0.90029  0.71024  0.50954  1.0000
  H   H1538     1.0  0.84456  0.61684  0.50447  1.0000
  H   H1539     1.0  0.86624  0.72087  0.50048  1.0000
  C   C879      1.0  0.81742  0.57360  0.61694  1.0000
  H   H1540     1.0  0.91776  0.74751  0.63709  1.0000
  H   H1541     1.0  0.71772  0.96563  0.48401  1.0000
  H   H1542     1.0  0.73438  0.97544  0.59111  1.0000
  H   H1543     1.0  0.81334  0.61870  0.49408  1.0000
  H   H1544     1.0  0.89344  0.68195  0.48419  1.0000
  H   H1545     1.0  0.59804  0.68471  0.33010  1.0000
  H   H1546     1.0  0.88096  0.64192  0.35945  1.0000
  C   C880      1.0  0.75525  0.72559  0.55820  1.0000
  H   H1547     1.0  0.70714  0.87938  0.45209  1.0000
  C   C881      1.0  0.70990  0.70035  0.59426  1.0000
  C   C882      1.0  0.73465  0.69123  0.52899  1.0000
  C   C883      1.0  0.67724  0.68706  0.60302  1.0000
  H   H1548     1.0  0.77738  0.73755  0.54911  1.0000
  H   H1549     1.0  0.75571  0.70648  0.56656  1.0000
  H   H1550     1.0  0.70470  0.73071  0.57295  1.0000
  H   H1551     1.0  0.72418  0.70172  0.60684  1.0000
  H   H1552     1.0  0.71012  0.68404  0.58373  1.0000
  H   H1553     1.0  0.75549  0.70447  0.51883  1.0000
  H   H1554     1.0  0.73641  0.67349  0.53806  1.0000
  H   H1555     1.0  0.66994  0.66520  0.61165  1.0000
  H   H1556     1.0  0.67533  0.70267  0.61349  1.0000
  H   H1557     1.0  0.66181  0.68295  0.59062  1.0000
  C   C884      1.0  0.89597  0.78088  0.48936  1.0000
  H   H1558     1.0  0.86255  0.71842  0.35732  1.0000
  N   N50       1.0  0.68899  0.74037  0.48409  1.0000
  C   C885      1.0  0.70458  0.76763  0.46917  1.0000
  C   C886      1.0  0.65892  0.71812  0.47625  1.0000
  C   C887      1.0  0.68479  0.75084  0.50445  1.0000
  C   C888      1.0  0.70761  0.72514  0.48649  1.0000
  C   C889      1.0  0.73809  0.79080  0.47267  1.0000
  C   C890      1.0  0.66533  0.72564  0.52123  1.0000
  C   C891      1.0  0.75078  0.81772  0.45704  1.0000
  C   C892      1.0  0.66238  0.73937  0.54082  1.0000
  H   H1559     1.0  0.69225  0.78043  0.46943  1.0000
  H   H1560     1.0  0.66235  0.71237  0.46062  1.0000
  H   H1561     1.0  0.64824  0.69621  0.48549  1.0000
  H   H1562     1.0  0.67454  0.76546  0.50275  1.0000
  H   H1563     1.0  0.70711  0.76551  0.51071  1.0000
  H   H1564     1.0  0.72850  0.73977  0.49434  1.0000
  H   H1565     1.0  0.69487  0.70406  0.49649  1.0000
  H   H1566     1.0  0.74020  0.79979  0.48793  1.0000
  H   H1567     1.0  0.75264  0.78045  0.47121  1.0000
  H   H1568     1.0  0.67577  0.71166  0.52481  1.0000
  H   H1569     1.0  0.64208  0.71054  0.51657  1.0000
  H   H1570     1.0  0.74945  0.81003  0.44136  1.0000
  H   H1571     1.0  0.77492  0.83376  0.45953  1.0000
  H   H1572     1.0  0.65027  0.75211  0.53830  1.0000
  H   H1573     1.0  0.64925  0.72112  0.55288  1.0000
  H   H1574     1.0  0.68503  0.75504  0.54625  1.0000
  C   C893      1.0  0.72501  0.89599  0.46134  1.0000
  H   H1575     1.0  0.94010  0.70794  0.51657  1.0000
  C   C894      1.0  0.64977  0.77867  0.33146  1.0000
  H   H1576     1.0  0.72342  0.88482  0.47639  1.0000
  C   C895      1.0  0.63027  0.97164  0.38142  1.0000
  C   C896      1.0  0.89528  0.72215  0.56805  1.0000
  H   H1577     1.0  0.52296  0.83907  0.33848  1.0000
  H   H1578     1.0  0.89324  0.66491  0.50821  1.0000
  H   H1579     1.0  0.60700  0.85330  0.45690  1.0000
  H   H1580     1.0  0.63645  0.91712  0.47252  1.0000
  C   C897      1.0  0.94549  0.70193  0.37695  1.0000
  C   C898      1.0  0.96672  0.77483  0.63504  1.0000
  C   C899      1.0  0.75573  0.90437  0.45093  1.0000
  C   C900      1.0  0.53655  0.74927  0.32517  1.0000
  H   H1581     1.0  0.82565  0.75888  0.60637  1.0000
  H   H1582     1.0  0.71452  0.49772  0.39723  1.0000
  C   C901      1.0  0.56502  0.69416  0.37330  1.0000
  H   H1583     1.0  0.91232  0.73525  0.57905  1.0000
  C   C902      1.0  0.72169  0.73216  0.58358  1.0000
  H   H1584     1.0  0.73062  0.73046  0.53298  1.0000
  H   H1585     1.0  0.73944  0.57901  0.44198  1.0000
  C   C903      1.0  0.73019  0.71222  0.54283  1.0000
  C   C904      1.0  0.91469  0.67431  0.33782  1.0000
  H   H1586     1.0  0.76723  0.94695  0.40162  1.0000
  H   H1587     1.0  0.81563  0.76103  0.56945  1.0000
  H   H1588     1.0  0.62625  0.70799  0.38020  1.0000
  C   C905      1.0  0.69137  0.94692  0.40580  1.0000
  H   H1589     1.0  0.59544  0.68386  0.47846  1.0000
  H   H1590     1.0  0.65598  0.79324  0.34457  1.0000
  C   C906      1.0  0.69600  0.96721  0.45743  1.0000
  H   H1591     1.0  0.84007  0.59989  0.42381  1.0000
  H   H1592     1.0  0.64279  0.69623  0.34423  1.0000
  H   H1593     1.0  0.67012  0.94676  0.40693  1.0000
  C   C907      1.0  0.90408  0.65833  0.39633  1.0000
  H   H1594     1.0  0.66967  0.69970  0.37535  1.0000
  H   H1595     1.0  0.54895  0.66929  0.37543  1.0000
  H   H1596     1.0  0.55887  0.70781  0.61032  1.0000
  C   C908      1.0  0.72176  0.92447  0.46318  1.0000
  H   H1597     1.0  0.96598  0.70163  0.62070  1.0000
  H   H1598     1.0  0.74476  0.69709  0.45600  1.0000
  H   H1599     1.0  0.65281  0.55691  0.40792  1.0000
  H   H1600     1.0  0.91412  0.72434  0.34942  1.0000
  H   H1601     1.0  0.72142  0.57799  0.40500  1.0000
  C   C909      1.0  0.61082  0.69005  0.37034  1.0000
  C   C910      1.0  0.88310  0.73508  0.36463  1.0000
  H   H1602     1.0  0.66342  0.87603  0.46332  1.0000
  C   C911      1.0  0.68349  0.51556  0.40044  1.0000
  H   H1603     1.0  0.69697  0.53063  0.38689  1.0000
  C   C912      1.0  0.77213  0.82989  0.56059  1.0000
  C   C913      1.0  0.71688  0.71556  0.46662  1.0000
  H   H1604     1.0  0.70353  0.76059  0.45331  1.0000
  H   H1605     1.0  0.60912  0.69775  0.45234  1.0000
  C   C914      1.0  0.83034  0.78012  0.59805  1.0000
  H   H1606     1.0  0.94240  0.74115  0.47577  1.0000
  H   H1607     1.0  0.52883  0.67250  0.40984  1.0000
  C   C915      1.0  0.72066  0.94522  0.63298  1.0000
  C   C916      1.0  0.73829  0.70337  0.47054  1.0000
  H   H1608     1.0  0.63032  0.73530  0.48985  1.0000
  H   H1609     1.0  0.67032  0.90711  0.44695  1.0000
  H   H1610     1.0  0.49286  0.71788  0.33983  1.0000
  H   H1611     1.0  0.48351  0.75908  0.32181  1.0000
  H   H1612     1.0  0.50356  0.79078  0.33661  1.0000
  C   C917      1.0  0.90644  0.76345  0.50293  1.0000
  H   H1613     1.0  0.59605  0.66997  0.38092  1.0000
  H   H1614     1.0  0.66551  0.66884  0.36077  1.0000
  C   C918      1.0  0.60556  0.70417  0.46769  1.0000
  H   H1615     1.0  0.72863  0.73477  0.45507  1.0000
  C   C919      1.0  0.69033  0.96041  0.58119  1.0000
  H   H1616     1.0  0.77316  0.73195  0.59554  1.0000
  C   C920      1.0  0.88586  0.67969  0.50050  1.0000
  H   H1617     1.0  0.72977  0.91683  0.53963  1.0000
  C   C921      1.0  0.83845  0.63022  0.49407  1.0000
  H   H1618     1.0  0.90015  0.76522  0.51888  1.0000
  H   H1619     1.0  0.57340  0.88337  0.34014  1.0000
  H   H1620     1.0  0.75689  0.88354  0.44864  1.0000
  H   H1621     1.0  0.64404  0.74892  0.46395  1.0000
  H   H1622     1.0  0.74055  0.76977  0.55044  1.0000
  H   H1623     1.0  0.65342  0.91455  0.58877  1.0000
  C   C922      1.0  0.57927  0.72104  0.61890  1.0000
  H   H1624     1.0  0.77763  0.56243  0.44134  1.0000
  N   N51       1.0  0.69350  0.91961  0.47486  1.0000
  C   C923      1.0  0.66645  0.89920  0.46329  1.0000
  H   H1625     1.0  0.61624  0.88747  0.44182  1.0000
  H   H1626     1.0  0.65046  0.97052  0.38585  1.0000
  H   H1627     1.0  0.88312  0.69789  0.57356  1.0000
  C   C924      1.0  0.68978  0.90473  0.49575  1.0000
  C   C925      1.0  0.71698  0.92122  0.50923  1.0000
  H   H1628     1.0  0.70080  0.57794  0.42731  1.0000
  C   C926      1.0  0.55933  0.88236  0.32745  1.0000
  H   H1629     1.0  0.70819  0.61515  0.38889  1.0000
  H   H1630     1.0  0.84038  0.66042  0.51656  1.0000
  H   H1631     1.0  0.79297  0.55788  0.62119  1.0000
  C   C927      1.0  0.63557  0.89510  0.47144  1.0000
  C   C928      1.0  0.71154  0.90329  0.52947  1.0000
  C   C929      1.0  0.56639  0.77183  0.32830  1.0000
  H   H1632     1.0  0.62876  0.88296  0.48668  1.0000
  H   H1633     1.0  0.77441  0.91931  0.46036  1.0000
  H   H1634     1.0  0.68938  0.89744  0.53719  1.0000
  H   H1635     1.0  0.72125  0.74687  0.59554  1.0000
  C   C930      1.0  0.89102  0.72987  0.49783  1.0000
  H   H1636     1.0  0.67033  0.78674  0.32105  1.0000
  C   C931      1.0  0.61050  0.87652  0.45744  1.0000
  H   H1637     1.0  0.66976  0.90291  0.50447  1.0000
  C   C932      1.0  0.63767  0.74559  0.33861  1.0000
  H   H1638     1.0  0.58888  0.87461  0.46332  1.0000
  H   H1639     1.0  0.59870  0.72052  0.61113  1.0000
  H   H1640     1.0  0.56573  0.65807  0.34532  1.0000
  C   C933      1.0  0.63006  0.68017  0.35737  1.0000
  C   C934      1.0  0.88868  0.70550  0.53171  1.0000
  H   H1641     1.0  0.67571  0.95344  0.44894  1.0000
  S   S216      1.0  0.90393  0.68638  0.62846  1.0000
  N   N52       1.0  0.91231  0.67831  0.37697  1.0000
  H   H1642     1.0  0.64470  0.51894  0.42832  1.0000
  C   C935      1.0  0.65298  0.67726  0.37009  1.0000
  H   H1643     1.0  0.72038  0.94377  0.51274  1.0000
  H   H1644     1.0  0.92132  0.75083  0.54195  1.0000
  H   H1645     1.0  0.67501  0.55963  0.38527  1.0000
  C   C936      1.0  0.69609  0.95009  0.47725  1.0000
  H   H1646     1.0  0.85651  0.64691  0.40292  1.0000
  H   H1647     1.0  0.79674  0.97515  0.62507  1.0000
  H   H1648     1.0  0.89307  0.75721  0.35578  1.0000
  H   H1649     1.0  0.86766  0.70701  0.53331  1.0000
  H   H1650     1.0  0.63924  0.49367  0.47396  1.0000
  H   H1651     1.0  0.82693  0.79455  0.60882  1.0000
  H   H1652     1.0  0.87244  0.63118  0.43388  1.0000
  H   H1653     1.0  0.68519  0.61229  0.41137  1.0000
  H   H1654     1.0  0.89714  0.61376  0.63975  1.0000
  H   H1655     1.0  0.87652  0.73811  0.38025  1.0000
  C   C937      1.0  0.93423  0.72314  0.50780  1.0000
  H   H1656     1.0  0.68461  0.96810  0.59541  1.0000
  H   H1657     1.0  0.91561  0.64475  0.39609  1.0000
  C   C938      1.0  0.96812  0.69007  0.37772  1.0000
  H   H1658     1.0  0.95297  0.71814  0.36349  1.0000
  H   H1659     1.0  0.83744  0.55563  0.64801  1.0000
  C   C939      1.0  0.57352  0.70737  0.64067  1.0000
  H   H1660     1.0  0.94285  0.70619  0.47968  1.0000
  H   H1661     1.0  0.55012  0.83817  0.32041  1.0000
  H   H1662     1.0  0.95649  0.78790  0.39745  1.0000
  H   H1663     1.0  0.91226  0.67250  0.40963  1.0000
  H   H1664     1.0  0.84278  0.67389  0.49055  1.0000
  C   C940      1.0  0.91101  0.72661  0.54701  1.0000
  C   C941      1.0  0.73181  0.55494  0.44620  1.0000
  H   H1665     1.0  0.91641  0.64410  0.36101  1.0000
  H   H1666     1.0  0.75831  0.82622  0.54729  1.0000
  H   H1667     1.0  0.94622  0.74525  0.51477  1.0000
  H   H1668     1.0  0.73110  0.96527  0.56552  1.0000
  H   H1669     1.0  0.81921  0.58863  0.60377  1.0000
  H   H1670     1.0  0.74246  0.94249  0.46966  1.0000
  C   C942      1.0  0.72008  0.97234  0.63482  1.0000
  C   C943      1.0  0.93888  0.74783  0.63385  1.0000
  H   H1671     1.0  0.66966  0.53501  0.44775  1.0000
  H   H1672     1.0  0.85438  0.79228  0.59200  1.0000
  C   C944      1.0  0.75873  0.77491  0.56098  1.0000
  S   S217      1.0  0.59574  0.80146  0.63466  1.0000
  H   H1673     1.0  0.64136  0.66118  0.38353  1.0000
  S   S218      1.0  0.69361  0.75597  0.63865  1.0000
  C   C945      1.0  0.89319  0.69339  0.37720  1.0000
  H   H1674     1.0  0.77986  0.78420  0.55091  1.0000
  H   H1675     1.0  0.77095  0.84726  0.56964  1.0000
  C   C946      1.0  0.91150  0.65213  0.32181  1.0000
  H   H1676     1.0  0.86028  0.61925  0.38897  1.0000
  H   H1677     1.0  0.67810  0.96394  0.56893  1.0000
  N   N53       1.0  0.69138  0.53330  0.41935  1.0000
  H   H1678     1.0  0.72277  0.93325  0.44732  1.0000
  C   C947      1.0  0.86466  0.61638  0.42090  1.0000
  H   H1679     1.0  0.77144  0.76436  0.60149  1.0000
  C   C948      1.0  0.76017  0.80047  0.57377  1.0000
  H   H1680     1.0  0.87694  0.60359  0.41988  1.0000
  H   H1681     1.0  0.73788  0.54399  0.41564  1.0000
  H   H1682     1.0  0.94914  0.71601  0.39018  1.0000
  H   H1683     1.0  0.75300  0.53063  0.45900  1.0000
  C   C949      1.0  0.86979  0.63526  0.40112  1.0000
  H   H1684     1.0  0.92616  0.74215  0.37269  1.0000
  H   H1685     1.0  0.82829  0.56040  0.61221  1.0000
  H   H1686     1.0  0.89921  0.68288  0.33408  1.0000
  C   C950      1.0  0.85068  0.66224  0.50108  1.0000
  H   H1687     1.0  0.61486  0.96696  0.39512  1.0000
  H   H1688     1.0  0.62224  0.73347  0.64403  1.0000
  C   C951      1.0  0.57962  0.68269  0.34068  1.0000
  H   H1689     1.0  0.65622  0.74445  0.34606  1.0000
  H   H1690     1.0  0.58405  0.74476  0.61876  1.0000
  H   H1691     1.0  0.61496  0.65769  0.35144  1.0000
  H   H1692     1.0  0.92716  0.64330  0.32431  1.0000
  S   S219      1.0  0.75878  0.59016  0.64196  1.0000
  C   C952      1.0  0.68972  0.48875  0.39965  1.0000
  H   H1693     1.0  0.69862  0.97145  0.63766  1.0000
  C   C953      1.0  0.72694  0.75407  0.64129  1.0000
  H   H1694     1.0  0.71548  0.51236  0.43248  1.0000
  C   C954      1.0  0.74614  0.97437  0.40444  1.0000
  H   H1695     1.0  0.57328  0.71547  0.32180  1.0000
  C   C955      1.0  0.48156  0.77658  0.33011  1.0000
  C   C956      1.0  0.78134  0.77719  0.64385  1.0000
  H   H1696     1.0  0.63215  0.73241  0.32489  1.0000
  H   H1697     1.0  0.96451  0.67656  0.39214  1.0000
  C   C957      1.0  0.77870  0.74847  0.64609  1.0000
  S   S220      1.0  0.68176  0.82825  0.64623  1.0000
  H   H1698     1.0  0.64470  0.51284  0.64106  1.0000
  H   H1699     1.0  0.88784  0.63286  0.32232  1.0000
  C   C958      1.0  0.75011  0.72263  0.64594  1.0000
  H   H1700     1.0  0.69927  0.97632  0.53737  1.0000
  H   H1701     1.0  0.70224  0.70532  0.64462  1.0000
  C   C959      1.0  0.72522  0.97788  0.57656  1.0000
  H   H1702     1.0  0.54724  0.89468  0.33150  1.0000
  H   H1703     1.0  0.74777  0.70044  0.64803  1.0000
  H   H1704     1.0  0.61471  0.63343  0.64521  1.0000
  C   C960      1.0  0.62049  0.50120  0.64679  1.0000
  C   C961      1.0  0.97808  0.74591  0.42565  1.0000
  H   H1705     1.0  0.60626  0.49095  0.63384  1.0000
  S   S221      1.0  0.74860  0.53529  0.73209  1.0000
  S   S222      1.0  0.53482  0.75660  0.72484  1.0000
  C   C962      1.0  0.61896  0.69425  0.67065  1.0000
  C   C963      1.0  0.86689  0.66518  0.69265  1.0000
  C   C964      1.0  0.52992  0.70538  0.77840  1.0000
  H   H1706     1.0  0.53084  0.71329  0.76234  1.0000
  H   H1707     1.0  0.66335  0.77560  0.71235  1.0000
  H   H1708     1.0  0.58202  0.65122  0.66048  1.0000
  C   C965      1.0  0.74427  0.54391  0.67077  1.0000
  C   C966      1.0  0.55216  0.70433  0.69068  1.0000
  H   H1709     1.0  0.54884  0.81478  0.74993  1.0000
  H   H1710     1.0  0.57592  0.80219  0.81701  1.0000
  H   H1711     1.0  0.81817  0.52489  0.72286  1.0000
  C   C967      1.0  0.54424  0.76919  0.77713  1.0000
  H   H1712     1.0  0.50911  0.75154  0.68528  1.0000
  N   N54       1.0  0.84776  0.58726  0.67171  1.0000
  H   H1713     1.0  0.50589  0.70291  0.80665  1.0000
  C   C968      1.0  0.60600  0.66819  0.65610  1.0000
  H   H1714     1.0  0.93707  0.67356  0.71714  1.0000
  C   C969      1.0  0.57138  0.78033  0.82420  1.0000
  C   C970      1.0  0.55127  0.77010  0.69975  1.0000
  C   C971      1.0  0.58303  0.78640  0.69646  1.0000
  C   C972      1.0  0.59696  0.79618  0.67664  1.0000
  S   S223      1.0  0.82478  0.67355  0.65195  1.0000
  C   C973      1.0  0.63279  0.49013  0.68187  1.0000
  C   C974      1.0  0.53356  0.76407  0.68302  1.0000
  H   H1715     1.0  0.59695  0.79134  0.70928  1.0000
  H   H1716     1.0  0.62138  0.80880  0.67429  1.0000
  H   H1717     1.0  0.50629  0.69287  0.70008  1.0000
  H   H1718     1.0  0.88208  0.67859  0.67914  1.0000
  C   C975      1.0  0.75069  0.54990  0.70697  1.0000
  C   C976      1.0  0.76229  0.58116  0.70332  1.0000
  C   C977      1.0  0.76498  0.59379  0.68351  1.0000
  H   H1719     1.0  0.84280  0.57576  0.70423  1.0000
  H   H1720     1.0  0.94774  0.64818  0.70609  1.0000
  C   C978      1.0  0.74200  0.53136  0.69056  1.0000
  H   H1721     1.0  0.76923  0.59571  0.71590  1.0000
  H   H1722     1.0  0.65493  0.76783  0.66656  1.0000
  H   H1723     1.0  0.58442  0.84463  0.75770  1.0000
  H   H1724     1.0  0.58587  0.81007  0.78400  1.0000
  C   C979      1.0  0.55878  0.75443  0.80933  1.0000
  C   C980      1.0  0.57926  0.78994  0.65991  1.0000
  H   H1725     1.0  0.55867  0.76266  0.76804  1.0000
  C   C981      1.0  0.60085  0.78500  0.83249  1.0000
  C   C982      1.0  0.94891  0.67039  0.70378  1.0000
  H   H1726     1.0  0.52438  0.78270  0.81304  1.0000
  H   H1727     1.0  0.55221  0.73330  0.81881  1.0000
  H   H1728     1.0  0.57803  0.75768  0.79889  1.0000
  H   H1729     1.0  0.78392  0.51178  0.70958  1.0000
  H   H1730     1.0  0.73392  0.50744  0.69314  1.0000
  H   H1731     1.0  0.49318  0.71384  0.78505  1.0000
  H   H1732     1.0  0.61872  0.79207  0.81997  1.0000
  H   H1733     1.0  0.50825  0.73315  0.83709  1.0000
  H   H1734     1.0  0.66632  0.74726  0.68338  1.0000
  H   H1735     1.0  0.57250  0.67696  0.69702  1.0000
  C   C983      1.0  0.57068  0.68940  0.68344  1.0000
  H   H1736     1.0  0.60892  0.80303  0.84347  1.0000
  C   C984      1.0  0.51254  0.67075  0.77950  1.0000
  C   C985      1.0  0.57027  0.81974  0.75678  1.0000
  C   C986      1.0  0.51401  0.71781  0.79240  1.0000
  Fe  Fe112     1.0  0.48373  0.72952  0.73236  1.0000
  H   H1737     1.0  0.80823  0.56465  0.69278  1.0000
  C   C987      1.0  0.66507  0.78425  0.69640  1.0000
  C   C988      1.0  0.87941  0.59176  0.67033  1.0000
  H   H1738     1.0  0.87764  0.67659  0.70649  1.0000
  H   H1739     1.0  0.49682  0.77347  0.84679  1.0000
  H   H1740     1.0  0.64241  0.70990  0.66416  1.0000
  H   H1741     1.0  0.52315  0.66252  0.76829  1.0000
  H   H1742     1.0  0.90599  0.64010  0.65946  1.0000
  H   H1743     1.0  0.84744  0.53408  0.68925  1.0000
  C   C989      1.0  0.54751  0.77403  0.66323  1.0000
  H   H1744     1.0  0.93704  0.67044  0.69004  1.0000
  N   N55       1.0  0.53277  0.75069  0.79716  1.0000
  H   H1745     1.0  0.65279  0.79704  0.69550  1.0000
  H   H1746     1.0  0.59717  0.76380  0.84048  1.0000
  H   H1747     1.0  0.60726  0.74874  0.69052  1.0000
  C   C990      1.0  0.90330  0.61795  0.65563  1.0000
  H   H1748     1.0  0.77379  0.61787  0.68095  1.0000
  H   H1749     1.0  0.68934  0.80009  0.69174  1.0000
  H   H1750     1.0  0.61741  0.72446  0.70362  1.0000
  H   H1751     1.0  0.49489  0.75865  0.79816  1.0000
  H   H1752     1.0  0.82424  0.61238  0.67439  1.0000
  H   H1753     1.0  0.88354  0.63428  0.69606  1.0000
  H   H1754     1.0  0.85984  0.63286  0.66093  1.0000
  H   H1755     1.0  0.51478  0.66331  0.70607  1.0000
  H   H1756     1.0  0.94216  0.62474  0.67224  1.0000
  H   H1757     1.0  0.84496  0.66471  0.69191  1.0000
  C   C991      1.0  0.83075  0.57203  0.65338  1.0000
  C   C992      1.0  0.61846  0.73508  0.68834  1.0000
  H   H1758     1.0  0.65265  0.53493  0.73879  1.0000
  C   C993      1.0  0.49379  0.73827  0.82754  1.0000
  H   H1759     1.0  0.52480  0.76428  0.76781  1.0000
  C   C994      1.0  0.82550  0.53372  0.68986  1.0000
  H   H1760     1.0  0.55335  0.71301  0.78262  1.0000
  C   C995      1.0  0.75600  0.57523  0.66712  1.0000
  H   H1761     1.0  0.80592  0.55825  0.65763  1.0000
  H   H1762     1.0  0.84586  0.62067  0.70721  1.0000
  C   C996      1.0  0.51842  0.68126  0.69445  1.0000
  C   C997      1.0  0.51192  0.75909  0.80841  1.0000
  H   H1763     1.0  0.62365  0.50381  0.68874  1.0000
  C   C998      1.0  0.66900  0.52663  0.73938  1.0000
  H   H1764     1.0  0.76166  0.97867  0.67747  1.0000
  H   H1765     1.0  0.56036  0.71512  0.70520  1.0000
  H   H1766     1.0  0.55494  0.77478  0.83740  1.0000
  H   H1767     1.0  0.51300  0.66160  0.79491  1.0000
  H   H1768     1.0  0.93365  0.59971  0.65169  1.0000
  H   H1769     1.0  0.88872  0.59543  0.68559  1.0000
  C   C999      1.0  0.56366  0.80397  0.77801  1.0000
  C   C1000     1.0  0.65225  0.75816  0.68228  1.0000
  C   C1001     1.0  0.84783  0.61657  0.67422  1.0000
  H   H1770     1.0  0.62130  0.68512  0.68564  1.0000
  C   C1002     1.0  0.83076  0.56641  0.69027  1.0000
  H   H1771     1.0  0.69203  0.54633  0.74075  1.0000
  H   H1772     1.0  0.55214  0.81322  0.78747  1.0000
  C   C1003     1.0  0.86160  0.63296  0.69369  1.0000
  H   H1773     1.0  0.87883  0.57077  0.66565  1.0000
  H   H1774     1.0  0.55471  0.72212  0.67938  1.0000
  N   N56       1.0  0.60183  0.71101  0.67357  1.0000
  H   H1775     1.0  0.68670  0.50453  0.72118  1.0000
  C   C1004     1.0  0.80689  0.51443  0.70891  1.0000
  H   H1776     1.0  0.67521  0.52737  0.70692  1.0000
  C   C1005     1.0  0.60095  0.72608  0.65364  1.0000
  H   H1777     1.0  0.80427  0.49149  0.70863  1.0000
  H   H1778     1.0  0.60088  0.74750  0.65616  1.0000
  H   H1779     1.0  0.58271  0.81205  0.74667  1.0000
  H   H1780     1.0  0.66314  0.51094  0.75305  1.0000
  C   C1006     1.0  0.62398  0.65159  0.65607  1.0000
  H   H1781     1.0  0.81297  0.52209  0.67659  1.0000
  C   C1007     1.0  0.93444  0.62068  0.65660  1.0000
  H   H1782     1.0  0.50859  0.67080  0.68015  1.0000
  H   H1783     1.0  0.55674  0.67146  0.67328  1.0000
  H   H1784     1.0  0.48856  0.66195  0.77599  1.0000
  H   H1785     1.0  0.62241  0.64111  0.67143  1.0000
  S   S224      1.0  0.81107  0.74534  0.65010  1.0000
  C   C1008     1.0  0.66893  0.51085  0.72012  1.0000
  H   H1786     1.0  0.65642  0.50709  0.67616  1.0000
  H   H1787     1.0  0.61516  0.51814  0.65290  1.0000
  H   H1788     1.0  0.73738  0.52939  0.65818  1.0000
  H   H1789     1.0  0.79339  0.98456  0.69169  1.0000
  H   H1790     1.0  0.62021  0.48816  0.72177  1.0000
  H   H1791     1.0  0.64819  0.66751  0.65130  1.0000
  H   H1792     1.0  0.53360  0.76920  0.65039  1.0000
