data_image0
_chemical_formula_structural       FeS2FeSCFeSFeS3FeSFeS6CSFeS3FeCFeSC2H2CH3C2H2C7H5C2H2CHC2HCH2CHCSC6H5SHCHC6H3CNC2HCHCHC2H7SH2CHSFeSC2H6CH2CH2CH4FeHSCHCH2C2HCH2CH7CH3CH3CH3CFeH8C2H4CH9C2HCHC3S2H2C2H4CSHC2H4CHCHC2H2CSC2HCH2C2H4CH2CH2C2H4NH2FeH7SHC3HC3H2FeCH2SH3NC12H23C2H3SH2NC10H21C4HCH2C3H2CH2CH3CHC2HCH3CH4CH3CHFeH2CH2NHN2CHCHSH3CH3C4HCH2SCH6CHSCHCH2CH2CHCFeNHC5HCHC2H2CHFeHCH3CH2CHCHCHCH5CHC2H4SCFeSH2CHFeHSH3SCFeS2FeS2FeHFeS3C2SHFeSHFeS2FeSFeS4NSH2CFeS2FeC6H4C7H5CHC7H8NH2C6H4CHC2H3CHC7H6CH2C5NH3CH4CHFeH3NC7NC4H27NC12H23CHSH2CH2CHCH3NHC2H2CH5SH4CHC2H2CH5CH7C2H8CHCHC2H9C4H2C5HFeHCH8CH2CH2CH2CH4CHSHFeH10CHCH4C2H5CH2CH3C2HCH4CH5CH4CH2CH8CH4CSCSH2FeHSCHCHSCSCH8CHCH2C6H4SC2H8CH2C6H5C2HCH7NHNH2CH3CHCHCH2NC2H3C4H6CH4C2H2CH6C2H2CHCHCH4CH3CH3CHCH3CH3CFeH4FeSFeCFeSFeS2H4C2HFeCSC2H3CSHC3H3SHFe2C3H2FeH3CH6CH2CHCHSCH4SCHCH2CH3CH2CHSCHCH2C2H4CNSCHCH2CH2CHCH5CHNH2C2H4CH2CH4CH3CH4FeH2FeS2FeS2HFeS2FeS2FeSFeS3FeSFeSFeSFeS3FeSCFeSHFeSFeS3FeS2FeSFeSFeS3HFeS2FeHFeC2SHCH2C2H2CHC7H4SCHC6H5CHCH7SH3C6H4C6H4CHC2SCH2C6H7CHCH2CHNCHC4H3C2HCH15CH8C3H2CHC3HC2H2C3HCH3C2NHC2HC2H4CH6C2H7CH4SHNC12H34CHSH2C2H2SH2SH3CHC2H2C2HN2C12H18CH7CH4SCHCSCH4CHC3H2CH3C2H2C3HCHCHNH8CH2C3H2CHSH4CH2CHCH4C2H3NH2SHC3HCH4C2H6CH2C3H2C3H3CH4CHCHC2HCH4CN2H3C2HC3H5CSCHC2HCH2NH11CH2C3NCHCH4CH3CHC2HCH5CH4C2HCHCH2C3H3CH3CH4C2H2CH2CHC2H2CHC2H2S2H3C2H5C3H3CNH3FeS2FeS2FeSFeS3FeSHFeHFeS2FeS2FeSCFeSFeS3FeCFeS3FeSHFeCFeSHSFeS2FeS2FeSFeS3C2H2C6H4FeH4C6H7SCH2CH2C3HSCHC4H2CH2SC6H4C6H4C6H6CH2C3H3NC12H19C2H2CH6CNC12H27C2H6CH5CH5CNC4HCNC3H14CHCHC2H4NC7HCH11CH2CH2NC8HC3H17C2HCH7CSH11CSH4CH4FeH2CHSHC2H5CH4CHCH2C2H4CHNCH3C2H2CH2CH3C2HCHC2HCFeHCH2C2HCH3CHCHCHC2SCH7CHCH3CSC2HSCHCHNH2C3HCH4CNH4CHCHCSCH2CHCH5C3H7CH2C2H3CSC2HCS2CSH2CH11S2FeSFeSCSHC5H2C2H3S2FeH4C3HC2Fe2HNH3CNHSCH6C2H4CNHCH6SC3HC2H5CH3NCHSHCHCHCHFeCH2C2H2FeCH3CHC2H2C2H3SH2SH6CHCHC2SCH2CH3CH5CHCH7CHC2H8CHCH2SCHFeSH3SH4SC3HCSC7H7CH4FeH2CHSH3CN2HCH2C6H6CH7CH2C4HCH8CHCH5CH2CH2CHCHC2HC2H3C2HCNC2H3CHCHNSHCHCH4CH4SFeCH2CH7CHCHC2H3CHCH4CH8CH4NHFeS2FeS2FeSFeS3HSFeS2H2FeS2HSCSHFeSH2CH2SH2CH2FeSHFeS2FeSFeS3H2CHNSH6C6H4C6H5C2HCH2C2HC6H4C6H4C6H7CFeC2HCHNHCH3C2NCSC2H2CH2CHC3H5CH5CH3C3NHCH12CH3CH4SHCH2CH7C2H3CH4CHCFeCHCH6CH3CHCH3C2H3SH2CH3CHCH10C4HCH6CH2SHC3NC12H9NHCH4CHC2H7CHCH5CHCHC6H3CH6C2H3CH7C2HCHCH5NCH6C2FeCSH2NH3C2HCH2CHCSH5C3HCH7CHSFeSFeSCFeSFeS2FeH2S2FeS2FeS2FeHFeS3H2SFeSHCSH6C5H2C3H2C6H4C7H6CH5CH4C2HCHCH3C2SH2SHC2H2FeH3C2H3CH2CHC3HCH4SH3CH3CHCHCH2CH6C4H5C2FeCH2CH2CH3SC2H4CH4FeH4C6H3CH2CH2NC9SH19C3H4CHCH3CHCSC2HCH6SHSC2SH5NCHCHSNH4C2H2CHSH4CH2CHCH2N2HCH5C4FeHC4HSH3C4H3C3H3CHCH4SH2C2H3FeCHC2H2CHCNHCH4C2HC2HCH5CFeH5SH12C5HCHCH2FeHCHCH4
_chemical_formula_sum              "Fe128 S256 C1152 H2048 N64"
_cell_length_a       38.8205
_cell_length_b       59.6306
_cell_length_c       73.3358
_cell_angle_alpha    89.5208
_cell_angle_beta     90.0554
_cell_angle_gamma    86.0025

_space_group_name_H-M_alt    "P 1"
_space_group_IT_number       1

loop_
  _space_group_symop_operation_xyz
  'x, y, z'

loop_
  _atom_site_type_symbol
  _atom_site_label
  _atom_site_symmetry_multiplicity
  _atom_site_fract_x
  _atom_site_fract_y
  _atom_site_fract_z
  _atom_site_occupancy
  Fe  Fe1       1.0  0.12066  0.38156  0.22777  1.0000
  S   S1        1.0  0.13567  0.41289  0.24119  1.0000
  S   S2        1.0  0.15762  0.35131  0.23223  1.0000
  Fe  Fe2       1.0  0.05963  0.40600  0.20812  1.0000
  S   S3        1.0  0.07175  0.43930  0.22017  1.0000
  C   C1        1.0  0.32422  0.16652  0.29994  1.0000
  Fe  Fe3       1.0  0.12750  0.42879  0.21344  1.0000
  S   S4        1.0  0.16870  0.45092  0.20195  1.0000
  Fe  Fe4       1.0  0.07873  0.41983  0.24657  1.0000
  S   S5        1.0  0.06171  0.42627  0.27612  1.0000
  S   S6        1.0  0.11483  0.39696  0.19987  1.0000
  S   S7        1.0  0.06437  0.38702  0.23468  1.0000
  Fe  Fe5       1.0  0.32697  0.44907  0.12960  1.0000
  S   S8        1.0  0.27258  0.43680  0.13411  1.0000
  Fe  Fe6       1.0  0.40052  0.43162  0.11679  1.0000
  S   S9        1.0  0.44457  0.40596  0.10922  1.0000
  S   S10       1.0  0.37046  0.42811  0.14267  1.0000
  S   S11       1.0  0.35515  0.44946  0.10232  1.0000
  S   S12       1.0  0.19646  0.34056  0.31577  1.0000
  S   S13       1.0  0.29849  0.31766  0.30940  1.0000
  S   S14       1.0  0.37510  0.02012  0.13306  1.0000
  C   C2        1.0  0.34746  0.42505  0.28297  1.0000
  S   S15       1.0  0.26092  0.12104  0.31413  1.0000
  Fe  Fe7       1.0  0.05643  0.02339  0.24192  1.0000
  S   S16       1.0  0.38303  0.03909  0.08111  1.0000
  S   S17       1.0  0.08974  0.06339  0.20465  1.0000
  S   S18       1.0  0.04385  0.06071  0.24245  1.0000
  Fe  Fe8       1.0  0.03475  0.05775  0.21220  1.0000
  C   C3        1.0  0.46890  0.07079  0.13693  1.0000
  Fe  Fe9       1.0  0.09934  0.06332  0.23474  1.0000
  S   S19       1.0  0.13317  0.08946  0.24520  1.0000
  C   C4        1.0  0.42677  0.00141  0.02792  1.0000
  C   C5        1.0  0.03383  0.04000  0.32449  1.0000
  H   H1        1.0  0.42155  0.46902  0.07155  1.0000
  H   H2        1.0  0.47290  0.31047  0.02048  1.0000
  C   C6        1.0  0.40480  0.37017  0.30239  1.0000
  H   H3        1.0  0.47196  0.40996  0.17995  1.0000
  H   H4        1.0  0.18879  0.03406  0.19487  1.0000
  H   H5        1.0  0.24869  0.03548  0.18303  1.0000
  C   C7        1.0  0.42426  0.04687  0.07425  1.0000
  C   C8        1.0  0.45455  0.03559  0.08089  1.0000
  H   H6        1.0  0.49267  0.03516  0.11651  1.0000
  H   H7        1.0  0.45298  0.02164  0.09029  1.0000
  C   C9        1.0  0.17769  0.27996  0.31334  1.0000
  C   C10       1.0  0.17248  0.08105  0.30359  1.0000
  C   C11       1.0  0.15526  0.06377  0.29548  1.0000
  C   C12       1.0  0.14226  0.06639  0.27765  1.0000
  C   C13       1.0  0.14642  0.08633  0.26798  1.0000
  C   C14       1.0  0.16284  0.10377  0.27628  1.0000
  C   C15       1.0  0.17588  0.10114  0.29405  1.0000
  H   H8        1.0  0.15245  0.04826  0.30290  1.0000
  H   H9        1.0  0.12949  0.05293  0.27131  1.0000
  H   H10       1.0  0.16550  0.11934  0.26891  1.0000
  H   H11       1.0  0.18854  0.11468  0.30038  1.0000
  H   H12       1.0  0.45429  0.43330  0.05768  1.0000
  C   C16       1.0  0.11231  0.45129  0.12005  1.0000
  C   C17       1.0  0.39520  0.39205  0.23280  1.0000
  H   H13       1.0  0.23441  0.46353  0.25154  1.0000
  H   H14       1.0  0.38766  0.44215  0.06659  1.0000
  C   C18       1.0  0.47244  0.14691  0.28245  1.0000
  H   H15       1.0  0.44238  0.45696  0.25143  1.0000
  C   C19       1.0  0.45493  0.39417  0.08764  1.0000
  C   C20       1.0  0.43010  0.39241  0.07399  1.0000
  H   H16       1.0  0.19234  0.03495  0.23687  1.0000
  C   C21       1.0  0.18805  0.99333  0.16281  1.0000
  H   H17       1.0  0.40377  0.39886  0.07636  1.0000
  H   H18       1.0  0.07212  0.40171  0.16451  1.0000
  C   C22       1.0  0.45871  0.04095  0.01116  1.0000
  H   H19       1.0  0.38509  0.43708  0.02490  1.0000
  C   C23       1.0  0.48309  0.00582  0.99819  1.0000
  S   S20       1.0  0.24049  0.18451  0.32310  1.0000
  C   C24       1.0  0.16891  0.34844  0.25536  1.0000
  C   C25       1.0  0.14541  0.35587  0.26879  1.0000
  C   C26       1.0  0.15400  0.35294  0.28727  1.0000
  C   C27       1.0  0.18669  0.34359  0.29243  1.0000
  C   C28       1.0  0.21052  0.33649  0.27901  1.0000
  C   C29       1.0  0.20140  0.33859  0.26047  1.0000
  H   H20       1.0  0.12023  0.36336  0.26495  1.0000
  H   H21       1.0  0.13518  0.35797  0.29753  1.0000
  H   H22       1.0  0.23556  0.32890  0.28292  1.0000
  H   H23       1.0  0.21947  0.33261  0.25009  1.0000
  H   H24       1.0  0.02619  0.39652  0.14671  1.0000
  S   S21       1.0  0.11338  0.02636  0.23640  1.0000
  H   H25       1.0  0.41906  0.14470  0.27607  1.0000
  C   C30       1.0  0.24443  0.00930  0.16323  1.0000
  H   H26       1.0  0.01446  0.06878  0.15491  1.0000
  C   C31       1.0  0.19746  0.44649  0.18307  1.0000
  C   C32       1.0  0.19305  0.43001  0.16994  1.0000
  C   C33       1.0  0.21627  0.42726  0.15515  1.0000
  C   C34       1.0  0.24456  0.44071  0.15334  1.0000
  C   C35       1.0  0.24908  0.45710  0.16654  1.0000
  C   C36       1.0  0.22555  0.46006  0.18119  1.0000
  H   H27       1.0  0.17177  0.41938  0.17118  1.0000
  H   H28       1.0  0.21242  0.41456  0.14505  1.0000
  H   H29       1.0  0.10580  0.47843  0.18698  1.0000
  C   C37       1.0  0.10764  0.36202  0.15782  1.0000
  N   N1        1.0  0.06683  0.05701  0.14762  1.0000
  C   C38       1.0  0.06512  0.03517  0.15801  1.0000
  C   C39       1.0  0.10237  0.06542  0.15002  1.0000
  H   H30       1.0  0.33303  0.47083  0.22224  1.0000
  C   C40       1.0  0.06315  0.03350  0.09781  1.0000
  H   H31       1.0  0.40907  0.42061  0.04106  1.0000
  C   C41       1.0  0.47697  0.27920  0.00510  1.0000
  H   H32       1.0  0.47755  0.37913  0.27767  1.0000
  C   C42       1.0  0.13329  0.05026  0.14276  1.0000
  C   C43       1.0  0.16760  0.05966  0.14794  1.0000
  H   H33       1.0  0.01192  0.39821  0.26100  1.0000
  H   H34       1.0  0.10359  0.98898  0.29162  1.0000
  H   H35       1.0  0.07702  0.37677  0.13604  1.0000
  H   H36       1.0  0.07502  0.03697  0.17213  1.0000
  H   H37       1.0  0.08261  0.02166  0.15210  1.0000
  H   H38       1.0  0.10422  0.08183  0.14295  1.0000
  H   H39       1.0  0.10718  0.06854  0.16475  1.0000
  S   S22       1.0  0.48336  0.35868  0.03360  1.0000
  H   H40       1.0  0.48915  0.46477  0.27238  1.0000
  H   H41       1.0  0.06050  0.45803  0.14602  1.0000
  C   C44       1.0  0.48180  0.39857  0.16892  1.0000
  H   H42       1.0  0.44807  0.47220  0.28285  1.0000
  S   S23       1.0  0.46183  0.98989  0.15159  1.0000
  Fe  Fe10      1.0  0.40998  0.98881  0.13635  1.0000
  S   S24       1.0  0.13232  0.00553  0.18509  1.0000
  C   C45       1.0  0.35785  0.46298  0.24854  1.0000
  C   C46       1.0  0.45020  0.44336  0.01857  1.0000
  H   H43       1.0  0.13372  0.03297  0.14840  1.0000
  H   H44       1.0  0.13243  0.04968  0.12766  1.0000
  H   H45       1.0  0.18938  0.04819  0.14303  1.0000
  H   H46       1.0  0.16982  0.07651  0.14166  1.0000
  H   H47       1.0  0.16990  0.06100  0.16299  1.0000
  H   H48       1.0  0.39978  0.44886  0.27765  1.0000
  C   C47       1.0  0.48888  0.38523  0.08454  1.0000
  H   H49       1.0  0.12292  0.45712  0.15937  1.0000
  H   H50       1.0  0.20979  0.00820  0.24564  1.0000
  C   C48       1.0  0.37894  0.44177  0.24174  1.0000
  H   H51       1.0  0.32149  0.18494  0.30216  1.0000
  H   H52       1.0  0.44414  0.15924  0.31361  1.0000
  C   C49       1.0  0.45876  0.00280  0.20661  1.0000
  H   H53       1.0  0.37572  0.30869  0.29576  1.0000
  H   H54       1.0  0.32860  0.43431  0.03998  1.0000
  H   H55       1.0  0.15902  0.26815  0.30827  1.0000
  H   H56       1.0  0.43472  0.42695  0.20890  1.0000
  Fe  Fe11      1.0  0.39042  0.46072  0.15132  1.0000
  H   H57       1.0  0.14473  0.37706  0.32573  1.0000
  S   S25       1.0  0.32883  0.99291  0.10444  1.0000
  C   C50       1.0  0.09992  0.45230  0.16702  1.0000
  H   H58       1.0  0.44842  0.07667  0.10882  1.0000
  C   C51       1.0  0.45156  0.08931  0.32258  1.0000
  H   H59       1.0  0.12263  0.40069  0.29282  1.0000
  H   H60       1.0  0.39080  0.28196  0.28643  1.0000
  C   C52       1.0  0.41358  0.38068  0.31853  1.0000
  C   C53       1.0  0.47308  0.37247  0.05444  1.0000
  H   H61       1.0  0.05064  0.43892  0.16344  1.0000
  C   C54       1.0  0.44813  0.99939  0.18841  1.0000
  H   H62       1.0  0.48227  0.44048  0.16095  1.0000
  H   H63       1.0  0.42126  0.99730  0.18542  1.0000
  C   C55       1.0  0.30095  0.16114  0.28402  1.0000
  H   H64       1.0  0.02307  0.07172  0.30884  1.0000
  H   H65       1.0  0.36537  0.46334  0.05222  1.0000
  H   H66       1.0  0.46078  0.08623  0.04753  1.0000
  H   H67       1.0  0.08549  0.36038  0.16723  1.0000
  H   H68       1.0  0.36353  0.13955  0.29540  1.0000
  H   H69       1.0  0.44698  0.40664  0.02139  1.0000
  H   H70       1.0  0.43300  0.03690  0.00592  1.0000
  C   C56       1.0  0.05699  0.04967  0.29317  1.0000
  H   H71       1.0  0.48365  0.42822  0.13905  1.0000
  H   H72       1.0  0.19806  0.44995  0.24249  1.0000
  H   H73       1.0  0.38463  0.40235  0.22117  1.0000
  C   C57       1.0  0.41543  0.09351  0.32437  1.0000
  H   H74       1.0  0.31598  0.39713  0.28969  1.0000
  H   H75       1.0  0.00868  0.36333  0.20519  1.0000
  H   H76       1.0  0.14423  0.47082  0.10253  1.0000
  C   C58       1.0  0.26696  0.20653  0.32799  1.0000
  H   H77       1.0  0.48308  0.10747  0.11691  1.0000
  H   H78       1.0  0.09420  0.02539  0.12145  1.0000
  H   H79       1.0  0.49337  0.30959  0.30942  1.0000
  C   C59       1.0  0.43461  0.15537  0.28477  1.0000
  Fe  Fe12      1.0  0.10053  0.02603  0.20655  1.0000
  H   H80       1.0  0.07867  0.03670  0.29499  1.0000
  H   H81       1.0  0.36592  0.42131  0.29440  1.0000
  H   H82       1.0  0.48366  0.26122  0.00824  1.0000
  H   H83       1.0  0.30830  0.17020  0.27148  1.0000
  H   H84       1.0  0.30279  0.14275  0.28151  1.0000
  H   H85       1.0  0.29032  0.02998  0.30641  1.0000
  H   H86       1.0  0.12068  0.01005  0.27696  1.0000
  H   H87       1.0  0.43839  0.27823  0.30844  1.0000
  C   C60       1.0  0.00551  0.36516  0.27099  1.0000
  C   C61       1.0  0.14653  0.45486  0.11049  1.0000
  H   H88       1.0  0.12217  0.38184  0.13491  1.0000
  H   H89       1.0  0.34309  0.44353  0.28175  1.0000
  H   H90       1.0  0.14368  0.00088  0.29730  1.0000
  H   H91       1.0  0.07021  0.06814  0.11956  1.0000
  C   C62       1.0  0.40000  0.43823  0.03777  1.0000
  H   H92       1.0  0.22920  0.47298  0.19113  1.0000
  H   H93       1.0  0.36821  0.16425  0.28218  1.0000
  H   H94       1.0  0.01566  0.02976  0.31701  1.0000
  H   H95       1.0  0.40877  0.01664  0.02666  1.0000
  H   H96       1.0  0.12092  0.41535  0.12124  1.0000
  H   H97       1.0  0.13102  0.36504  0.16593  1.0000
  H   H98       1.0  0.43116  0.17295  0.27966  1.0000
  H   H99       1.0  0.04098  0.99161  0.15178  1.0000
  H   H100      1.0  0.31433  0.15792  0.31212  1.0000
  C   C63       1.0  0.41754  0.22697  0.31579  1.0000
  C   C64       1.0  0.09964  0.38118  0.14415  1.0000
  H   H101      1.0  0.44166  0.38134  0.21757  1.0000
  C   C65       1.0  0.46837  0.39052  0.30507  1.0000
  H   H102      1.0  0.44242  0.19840  0.30235  1.0000
  C   C66       1.0  0.11481  0.42902  0.13120  1.0000
  C   C67       1.0  0.28144  0.04732  0.31047  1.0000
  C   C68       1.0  0.37474  0.44540  0.05327  1.0000
  S   S26       1.0  0.04362  0.99770  0.26395  1.0000
  S   S27       1.0  0.34828  0.09688  0.31025  1.0000
  H   H103      1.0  0.22336  0.13815  0.26859  1.0000
  H   H104      1.0  0.46577  0.44605  0.08929  1.0000
  C   C69       1.0  0.46644  0.08247  0.30583  1.0000
  C   C70       1.0  0.36222  0.41408  0.26522  1.0000
  H   H105      1.0  0.37356  0.13974  0.32811  1.0000
  H   H106      1.0  0.42165  0.36121  0.27528  1.0000
  H   H107      1.0  0.36181  0.43386  0.23190  1.0000
  H   H108      1.0  0.15350  0.44085  0.10099  1.0000
  C   C71       1.0  0.09251  0.40388  0.15413  1.0000
  S   S28       1.0  0.04424  0.02002  0.21193  1.0000
  H   H109      1.0  0.34054  0.41277  0.25542  1.0000
  C   C72       1.0  0.42674  0.06486  0.06191  1.0000
  C   C73       1.0  0.42017  0.37374  0.22486  1.0000
  H   H110      1.0  0.48962  0.15746  0.29026  1.0000
  H   H111      1.0  0.40341  0.07366  0.05670  1.0000
  H   H112      1.0  0.44749  0.08768  0.00814  1.0000
  H   H113      1.0  0.00419  0.99574  0.16672  1.0000
  C   C74       1.0  0.44479  0.08007  0.29083  1.0000
  H   H114      1.0  0.39239  0.08258  0.28081  1.0000
  C   C75       1.0  0.45081  0.39415  0.15650  1.0000
  H   H115      1.0  0.23604  0.23062  0.31180  1.0000
  C   C76       1.0  0.07189  0.44363  0.15429  1.0000
  C   C77       1.0  0.42129  0.38527  0.16763  1.0000
  H   H116      1.0  0.03974  0.09856  0.13338  1.0000
  H   H117      1.0  0.27370  0.16650  0.28735  1.0000
  C   C78       1.0  0.23186  0.02364  0.17732  1.0000
  S   S29       1.0  0.28803  0.01111  0.15540  1.0000
  C   C79       1.0  0.41438  0.43524  0.27014  1.0000
  C   C80       1.0  0.43910  0.38138  0.05754  1.0000
  H   H118      1.0  0.40630  0.36357  0.21498  1.0000
  C   C81       1.0  0.40878  0.08447  0.29256  1.0000
  H   H119      1.0  0.44057  0.40984  0.14967  1.0000
  H   H120      1.0  0.45840  0.38146  0.14600  1.0000
  C   C82       1.0  0.39384  0.09115  0.30931  1.0000
  C   C83       1.0  0.48693  0.04262  0.07557  1.0000
  H   H121      1.0  0.41956  0.37945  0.04726  1.0000
  H   H122      1.0  0.41146  0.39805  0.17766  1.0000
  H   H123      1.0  0.39975  0.38170  0.15835  1.0000
  H   H124      1.0  0.42998  0.36946  0.17490  1.0000
  C   C84       1.0  0.44852  0.46795  0.06668  1.0000
  H   H125      1.0  0.48008  0.27935  0.32808  1.0000
  H   H126      1.0  0.04731  0.99693  0.17571  1.0000
  C   C85       1.0  0.47200  0.46228  0.08303  1.0000
  H   H127      1.0  0.01484  0.03501  0.17131  1.0000
  H   H128      1.0  0.43935  0.05001  0.11873  1.0000
  C   C86       1.0  0.44561  0.45541  0.19234  1.0000
  C   C87       1.0  0.44524  0.39079  0.31984  1.0000
  H   H129      1.0  0.46053  0.06055  0.14866  1.0000
  H   H130      1.0  0.42478  0.99104  0.01553  1.0000
  H   H131      1.0  0.47962  0.99222  0.03490  1.0000
  H   H132      1.0  0.18917  0.02845  0.26096  1.0000
  N   N2        1.0  0.39196  0.42491  0.25606  1.0000
  H   H133      1.0  0.04617  0.43556  0.12159  1.0000
  H   H134      1.0  0.48176  0.45195  0.04696  1.0000
  Fe  Fe13      1.0  0.25237  0.33414  0.32370  1.0000
  H   H135      1.0  0.02965  0.05837  0.12540  1.0000
  H   H136      1.0  0.03619  0.03932  0.09415  1.0000
  H   H137      1.0  0.04612  0.07500  0.17121  1.0000
  H   H138      1.0  0.46676  0.43146  0.25854  1.0000
  H   H139      1.0  0.37013  0.39641  0.26938  1.0000
  H   H140      1.0  0.37407  0.28330  0.30932  1.0000
  H   H141      1.0  0.00432  0.39302  0.11502  1.0000
  S   S30       1.0  0.01376  0.40777  0.18854  1.0000
  H   H142      1.0  0.40659  0.23500  0.30313  1.0000
  C   C88       1.0  0.17556  0.00765  0.17690  1.0000
  C   C89       1.0  0.45452  0.45034  0.05132  1.0000
  C   C90       1.0  0.04078  0.09841  0.14850  1.0000
  H   H143      1.0  0.06609  0.06349  0.28456  1.0000
  C   C91       1.0  0.04128  0.07407  0.15626  1.0000
  C   C92       1.0  0.19778  0.02288  0.18408  1.0000
  C   C93       1.0  0.48360  0.43948  0.21659  1.0000
  H   H144      1.0  0.37376  0.38364  0.23937  1.0000
  H   H145      1.0  0.01290  0.02970  0.14730  1.0000
  Fe  Fe14      1.0  0.37644  0.01259  0.10312  1.0000
  C   C94       1.0  0.44782  0.44512  0.26298  1.0000
  H   H146      1.0  0.01055  0.11435  0.17049  1.0000
  H   H147      1.0  0.45581  0.07487  0.27785  1.0000
  S   S31       1.0  0.36440  0.35865  0.29937  1.0000
  H   H148      1.0  0.20432  0.27357  0.30966  1.0000
  H   H149      1.0  0.17210  0.29642  0.30639  1.0000
  H   H150      1.0  0.42244  0.42242  0.28075  1.0000
  N   N3        1.0  0.25958  0.39273  0.22399  1.0000
  C   C95       1.0  0.23462  0.41268  0.22777  1.0000
  C   C96       1.0  0.24131  0.37565  0.21315  1.0000
  C   C97       1.0  0.26942  0.38184  0.24213  1.0000
  C   C98       1.0  0.29203  0.39912  0.21433  1.0000
  C   C99       1.0  0.28872  0.41985  0.20127  1.0000
  C   C100      1.0  0.24693  0.42956  0.24197  1.0000
  C   C101      1.0  0.29177  0.35926  0.24125  1.0000
  C   C102      1.0  0.22468  0.38378  0.19488  1.0000
  C   C103      1.0  0.20528  0.36529  0.18598  1.0000
  C   C104      1.0  0.32158  0.42189  0.19005  1.0000
  C   C105      1.0  0.22605  0.45220  0.24070  1.0000
  C   C106      1.0  0.30643  0.35250  0.26001  1.0000
  H   H151      1.0  0.20965  0.40687  0.23282  1.0000
  H   H152      1.0  0.22770  0.42217  0.21509  1.0000
  H   H153      1.0  0.25931  0.36097  0.20972  1.0000
  H   H154      1.0  0.22050  0.36887  0.22160  1.0000
  H   H155      1.0  0.24575  0.37867  0.25016  1.0000
  H   H156      1.0  0.28409  0.39334  0.25054  1.0000
  H   H157      1.0  0.31232  0.40286  0.22438  1.0000
  H   H158      1.0  0.30345  0.38459  0.20640  1.0000
  H   H159      1.0  0.28421  0.43562  0.20911  1.0000
  H   H160      1.0  0.26704  0.41907  0.19162  1.0000
  H   H161      1.0  0.24334  0.42276  0.25595  1.0000
  H   H162      1.0  0.27465  0.43247  0.24018  1.0000
  H   H163      1.0  0.31373  0.36040  0.23169  1.0000
  H   H164      1.0  0.27583  0.34559  0.23669  1.0000
  H   H165      1.0  0.20565  0.39821  0.19698  1.0000
  H   H166      1.0  0.24479  0.38829  0.18507  1.0000
  H   H167      1.0  0.19448  0.37148  0.17269  1.0000
  H   H168      1.0  0.22288  0.35014  0.18350  1.0000
  H   H169      1.0  0.18358  0.36061  0.19477  1.0000
  H   H170      1.0  0.31847  0.43700  0.18106  1.0000
  H   H171      1.0  0.34421  0.42376  0.19903  1.0000
  H   H172      1.0  0.32657  0.40697  0.18122  1.0000
  H   H173      1.0  0.30409  0.05653  0.31456  1.0000
  C   C107      1.0  0.22211  0.99414  0.15602  1.0000
  C   C108      1.0  0.46436  0.00789  0.03093  1.0000
  H   H174      1.0  0.32436  0.36493  0.26476  1.0000
  H   H175      1.0  0.28533  0.35136  0.27014  1.0000
  H   H176      1.0  0.32096  0.33581  0.25926  1.0000
  S   S32       1.0  0.42246  0.46331  0.12609  1.0000
  H   H177      1.0  0.48404  0.41682  0.03251  1.0000
  H   H178      1.0  0.46635  0.08846  0.14179  1.0000
  N   N4        1.0  0.26836  0.07255  0.26110  1.0000
  C   C109      1.0  0.28526  0.06175  0.27789  1.0000
  C   C110      1.0  0.29370  0.07259  0.24535  1.0000
  C   C111      1.0  0.25801  0.09675  0.26567  1.0000
  C   C112      1.0  0.23619  0.06143  0.25569  1.0000
  C   C113      1.0  0.24070  0.03596  0.25192  1.0000
  C   C114      1.0  0.26181  0.05965  0.29488  1.0000
  C   C115      1.0  0.24061  0.11117  0.24999  1.0000
  C   C116      1.0  0.32194  0.05284  0.24434  1.0000
  C   C117      1.0  0.34162  0.05317  0.22630  1.0000
  C   C118      1.0  0.20577  0.02637  0.24867  1.0000
  H   H179      1.0  0.41519  0.99777  0.05689  1.0000
  H   H180      1.0  0.10839  0.43920  0.17718  1.0000
  H   H181      1.0  0.30778  0.07122  0.28202  1.0000
  H   H182      1.0  0.29610  0.04445  0.27510  1.0000
  H   H183      1.0  0.27960  0.07346  0.23209  1.0000
  H   H184      1.0  0.30846  0.08799  0.24563  1.0000
  H   H185      1.0  0.28092  0.10528  0.27061  1.0000
  H   H186      1.0  0.23926  0.09779  0.27706  1.0000
  H   H187      1.0  0.21569  0.06450  0.26615  1.0000
  H   H188      1.0  0.22488  0.06920  0.24300  1.0000
  H   H189      1.0  0.25327  0.02652  0.26349  1.0000
  H   H190      1.0  0.25621  0.03292  0.23937  1.0000
  H   H191      1.0  0.25264  0.07636  0.30006  1.0000
  H   H192      1.0  0.23905  0.05010  0.29177  1.0000
  H   H193      1.0  0.21444  0.10564  0.24712  1.0000
  H   H194      1.0  0.25581  0.10991  0.23720  1.0000
  H   H195      1.0  0.34104  0.05434  0.25551  1.0000
  H   H196      1.0  0.31103  0.03626  0.24568  1.0000
  H   H197      1.0  0.36223  0.03926  0.22620  1.0000
  H   H198      1.0  0.32396  0.05081  0.21464  1.0000
  H   H199      1.0  0.35395  0.06931  0.22452  1.0000
  C   C119      1.0  0.27826  0.24610  0.32472  1.0000
  C   C120      1.0  0.45919  0.07196  0.05664  1.0000
  C   C121      1.0  0.42812  0.36958  0.28773  1.0000
  C   C122      1.0  0.45295  0.43944  0.20625  1.0000
  H   H200      1.0  0.06911  0.01669  0.09171  1.0000
  C   C123      1.0  0.01315  0.43227  0.30329  1.0000
  H   H201      1.0  0.11245  0.34592  0.15043  1.0000
  H   H202      1.0  0.22006  0.14538  0.24471  1.0000
  C   C124      1.0  0.08575  0.47300  0.17747  1.0000
  C   C125      1.0  0.38931  0.29215  0.29904  1.0000
  C   C126      1.0  0.45976  0.37972  0.28903  1.0000
  H   H203      1.0  0.43515  0.41398  0.23886  1.0000
  H   H204      1.0  0.37255  0.47229  0.25861  1.0000
  C   C127      1.0  0.48033  0.29233  0.02275  1.0000
  H   H205      1.0  0.26175  0.14324  0.25554  1.0000
  H   H206      1.0  0.16763  0.45595  0.12066  1.0000
  C   C128      1.0  0.42568  0.29524  0.30617  1.0000
  H   H207      1.0  0.16635  0.40123  0.30131  1.0000
  H   H208      1.0  0.10004  0.38175  0.32156  1.0000
  H   H209      1.0  0.11622  0.40653  0.16207  1.0000
  C   C129      1.0  0.36233  0.15825  0.29617  1.0000
  H   H210      1.0  0.42713  0.39522  0.25679  1.0000
  C   C130      1.0  0.37791  0.15805  0.32831  1.0000
  C   C131      1.0  0.05796  0.05494  0.12764  1.0000
  H   H211      1.0  0.45370  0.05065  0.02391  1.0000
  C   C132      1.0  0.04474  0.05902  0.31155  1.0000
  H   H212      1.0  0.38230  0.19727  0.29458  1.0000
  H   H213      1.0  0.36825  0.19887  0.31742  1.0000
  H   H214      1.0  0.47656  0.12915  0.28719  1.0000
  C   C133      1.0  0.41401  0.40670  0.24656  1.0000
  H   H215      1.0  0.43309  0.44325  0.00641  1.0000
  H   H216      1.0  0.43986  0.00316  0.21745  1.0000
  H   H217      1.0  0.43102  0.36238  0.23585  1.0000
  H   H218      1.0  0.05733  0.02853  0.32662  1.0000
  C   C134      1.0  0.06739  0.03189  0.11851  1.0000
  H   H219      1.0  0.08115  0.04532  0.09194  1.0000
  H   H220      1.0  0.06292  0.40754  0.11876  1.0000
  H   H221      1.0  0.46306  0.28584  0.03333  1.0000
  C   C135      1.0  0.47256  0.99744  0.17438  1.0000
  H   H222      1.0  0.44944  0.28112  0.00098  1.0000
  Fe  Fe15      1.0  0.32756  0.34592  0.32085  1.0000
  H   H223      1.0  0.47280  0.44653  0.28958  1.0000
  H   H224      1.0  0.10636  0.46606  0.12887  1.0000
  C   C136      1.0  0.05418  0.41994  0.12934  1.0000
  H   H225      1.0  0.27044  0.46775  0.16530  1.0000
  H   H226      1.0  0.43970  0.30375  0.29522  1.0000
  N   N5        1.0  0.08333  0.42414  0.14221  1.0000
  H   H227      1.0  0.02521  0.36696  0.28179  1.0000
  N   N6        1.0  0.48105  0.01974  0.01530  1.0000
  N   N7        1.0  0.43039  0.45233  0.03502  1.0000
  C   C137      1.0  0.46704  0.41896  0.02036  1.0000
  H   H228      1.0  0.42243  0.13529  0.30804  1.0000
  C   C138      1.0  0.40605  0.07785  0.12745  1.0000
  H   H229      1.0  0.05008  0.01913  0.12350  1.0000
  S   S33       1.0  0.19038  0.07700  0.32542  1.0000
  H   H230      1.0  0.38699  0.07485  0.11656  1.0000
  H   H231      1.0  0.13809  0.42897  0.14010  1.0000
  H   H232      1.0  0.02829  0.41894  0.31031  1.0000
  C   C139      1.0  0.48897  0.41261  0.00365  1.0000
  H   H233      1.0  0.40625  0.09626  0.12959  1.0000
  H   H234      1.0  0.32553  0.43677  0.06439  1.0000
  H   H235      1.0  0.35080  0.41336  0.05468  1.0000
  C   C140      1.0  0.31314  0.41573  0.28831  1.0000
  C   C141      1.0  0.48940  0.06098  0.06360  1.0000
  C   C142      1.0  0.12642  0.41190  0.32098  1.0000
  C   C143      1.0  0.23624  0.13598  0.25512  1.0000
  H   H236      1.0  0.46408  0.01873  0.04326  1.0000
  C   C144      1.0  0.02311  0.43900  0.28574  1.0000
  H   H237      1.0  0.23007  0.46032  0.22724  1.0000
  H   H238      1.0  0.00884  0.42522  0.14735  1.0000
  S   S34       1.0  0.34572  0.48211  0.13880  1.0000
  C   C145      1.0  0.46539  0.45791  0.27793  1.0000
  H   H239      1.0  0.40065  0.44733  0.23333  1.0000
  H   H240      1.0  0.06654  0.06763  0.31747  1.0000
  H   H241      1.0  0.06272  0.46912  0.18558  1.0000
  H   H242      1.0  0.47103  0.45463  0.01507  1.0000
  H   H243      1.0  0.47967  0.14764  0.26781  1.0000
  H   H244      1.0  0.26411  0.04628  0.32246  1.0000
  C   C146      1.0  0.02860  0.02634  0.15980  1.0000
  H   H245      1.0  0.06416  0.10662  0.15293  1.0000
  S   S35       1.0  0.40453  0.45640  0.18160  1.0000
  C   C147      1.0  0.44173  0.06806  0.12166  1.0000
  H   H246      1.0  0.10103  0.42171  0.32034  1.0000
  C   C148      1.0  0.34304  0.43155  0.05298  1.0000
  H   H247      1.0  0.09198  0.45099  0.10942  1.0000
  H   H248      1.0  0.01136  0.46226  0.26371  1.0000
  C   C149      1.0  0.25832  0.22799  0.32065  1.0000
  H   H249      1.0  0.39770  0.06964  0.14020  1.0000
  H   H250      1.0  0.48933  0.38236  0.17579  1.0000
  C   C150      1.0  0.46962  0.47125  0.18859  1.0000
  H   H251      1.0  0.03552  0.04225  0.28589  1.0000
  C   C151      1.0  0.34860  0.47908  0.23264  1.0000
  Fe  Fe16      1.0  0.33042  0.99766  0.13506  1.0000
  N   N8        1.0  0.38876  0.16564  0.30961  1.0000
  H   H252      1.0  0.29302  0.42048  0.27797  1.0000
  C   C152      1.0  0.14016  0.41004  0.30148  1.0000
  C   C153      1.0  0.42440  0.30913  0.32405  1.0000
  C   C154      1.0  0.42331  0.20151  0.31345  1.0000
  C   C155      1.0  0.42309  0.15358  0.30494  1.0000
  C   C156      1.0  0.02087  0.41199  0.13839  1.0000
  H   H253      1.0  0.14169  0.42710  0.29547  1.0000
  C   C157      1.0  0.38903  0.19099  0.30859  1.0000
  H   H254      1.0  0.43516  0.19443  0.32613  1.0000
  C   C158      1.0  0.49371  0.00521  0.21098  1.0000
  C   C159      1.0  0.41439  0.98785  0.04414  1.0000
  H   H255      1.0  0.46471  0.33412  0.30849  1.0000
  H   H256      1.0  0.30447  0.42276  0.30165  1.0000
  C   C160      1.0  0.00345  0.45644  0.27693  1.0000
  H   H257      1.0  0.27140  0.26261  0.31901  1.0000
  Fe  Fe17      1.0  0.37633  0.48153  0.11214  1.0000
  H   H258      1.0  0.00451  0.46345  0.23125  1.0000
  C   C161      1.0  0.03046  0.00108  0.16375  1.0000
  H   H259      1.0  0.33319  0.45831  0.25463  1.0000
  H   H260      1.0  0.01829  0.35638  0.25924  1.0000
  H   H261      1.0  0.00955  0.13007  0.14941  1.0000
  C   C162      1.0  0.00952  0.11292  0.15541  1.0000
  H   H262      1.0  0.21121  0.99035  0.21219  1.0000
  H   H263      1.0  0.44249  0.23420  0.31882  1.0000
  C   C163      1.0  0.12762  0.99528  0.28589  1.0000
  H   H264      1.0  0.39952  0.23098  0.32728  1.0000
  C   C164      1.0  0.01498  0.99376  0.28264  1.0000
  H   H265      1.0  0.49292  0.47665  0.14404  1.0000
  C   C165      1.0  0.12176  0.38838  0.32927  1.0000
  H   H266      1.0  0.41033  0.47766  0.00147  1.0000
  C   C166      1.0  0.48108  0.32325  0.31799  1.0000
  H   H267      1.0  0.48910  0.42707  0.22720  1.0000
  H   H268      1.0  0.46410  0.48386  0.17810  1.0000
  H   H269      1.0  0.40953  0.32540  0.32093  1.0000
  H   H270      1.0  0.16288  0.98515  0.23538  1.0000
  H   H271      1.0  0.46789  0.47568  0.09340  1.0000
  C   C167      1.0  0.41911  0.47670  0.03120  1.0000
  H   H272      1.0  0.37275  0.47148  0.01460  1.0000
  C   C168      1.0  0.47301  0.05715  0.99680  1.0000
  C   C169      1.0  0.39576  0.48148  0.01421  1.0000
  H   H273      1.0  0.14484  0.42134  0.32888  1.0000
  H   H274      1.0  0.26035  0.35973  0.42489  1.0000
  H   H275      1.0  0.40810  0.30003  0.33367  1.0000
  H   H276      1.0  0.33879  0.21849  0.35173  1.0000
  S   S36       1.0  0.34187  0.32754  0.34695  1.0000
  C   C170      1.0  0.17447  0.28282  0.33399  1.0000
  Fe  Fe18      1.0  0.29126  0.34234  0.35826  1.0000
  S   S37       1.0  0.28292  0.35358  0.38757  1.0000
  H   H277      1.0  0.01362  0.03706  0.46907  1.0000
  H   H278      1.0  0.05558  0.02849  0.44665  1.0000
  C   C171      1.0  0.14398  0.39651  0.36041  1.0000
  H   H279      1.0  0.08979  0.46852  0.54636  1.0000
  Fe  Fe19      1.0  0.10579  0.46964  0.60844  1.0000
  H   H280      1.0  0.40914  0.31270  0.36090  1.0000
  S   S38       1.0  0.09209  0.43810  0.59196  1.0000
  H   H281      1.0  0.11219  0.36128  0.37007  1.0000
  H   H282      1.0  0.28838  0.16917  0.41470  1.0000
  H   H283      1.0  0.26518  0.19533  0.40851  1.0000
  S   S39       1.0  0.12223  0.47307  0.63837  1.0000
  C   C172      1.0  0.06838  0.32099  0.54935  1.0000
  Fe  Fe20      1.0  0.10414  0.36030  0.49494  1.0000
  S   S40       1.0  0.05784  0.34003  0.49871  1.0000
  S   S41       1.0  0.12417  0.38527  0.51623  1.0000
  Fe  Fe21      1.0  0.11664  0.34134  0.45555  1.0000
  S   S42       1.0  0.07052  0.32034  0.45745  1.0000
  S   S43       1.0  0.13948  0.33781  0.42678  1.0000
  Fe  Fe22      1.0  0.04367  0.35110  0.46992  1.0000
  H   H284      1.0  0.04457  0.46593  0.56639  1.0000
  Fe  Fe23      1.0  0.08898  0.31077  0.48568  1.0000
  S   S44       1.0  0.09508  0.27511  0.49882  1.0000
  S   S45       1.0  0.08828  0.37266  0.46663  1.0000
  S   S46       1.0  0.13673  0.33045  0.48335  1.0000
  C   C173      1.0  0.18103  0.38619  0.35636  1.0000
  C   C174      1.0  0.06688  0.07424  0.38306  1.0000
  S   S47       1.0  0.04678  0.00611  0.58980  1.0000
  H   H285      1.0  0.00547  0.48353  0.42969  1.0000
  Fe  Fe24      1.0  0.02258  0.09609  0.47213  1.0000
  S   S48       1.0  0.06701  0.07018  0.47346  1.0000
  H   H286      1.0  0.21996  0.26329  0.39821  1.0000
  Fe  Fe25      1.0  0.06826  0.13534  0.48102  1.0000
  S   S49       1.0  0.11596  0.11123  0.48342  1.0000
  S   S50       1.0  0.06361  0.17405  0.47615  1.0000
  Fe  Fe26      1.0  0.09690  0.09515  0.45807  1.0000
  S   S51       1.0  0.12270  0.08501  0.43129  1.0000
  Fe  Fe27      1.0  0.08213  0.08767  0.49903  1.0000
  S   S52       1.0  0.10250  0.06358  0.52227  1.0000
  S   S53       1.0  0.05097  0.11968  0.45495  1.0000
  S   S54       1.0  0.03584  0.11300  0.49841  1.0000
  S   S55       1.0  0.27525  0.08736  0.34918  1.0000
  N   N9        1.0  0.18344  0.26020  0.36440  1.0000
  S   S56       1.0  0.30165  0.13846  0.34999  1.0000
  H   H287      1.0  0.99973  0.45902  0.58954  1.0000
  H   H288      1.0  0.30224  0.18690  0.34538  1.0000
  C   C175      1.0  0.15303  0.27725  0.39329  1.0000
  Fe  Fe28      1.0  0.26523  0.11820  0.36649  1.0000
  S   S57       1.0  0.26138  0.11899  0.39744  1.0000
  S   S58       1.0  0.21759  0.13119  0.35150  1.0000
  Fe  Fe29      1.0  0.31072  0.30026  0.33610  1.0000
  C   C176      1.0  0.16152  0.09473  0.42247  1.0000
  C   C177      1.0  0.18574  0.10453  0.43349  1.0000
  C   C178      1.0  0.21661  0.11152  0.42580  1.0000
  C   C179      1.0  0.22305  0.10933  0.40699  1.0000
  C   C180      1.0  0.19870  0.09963  0.39604  1.0000
  C   C181      1.0  0.16834  0.09218  0.40377  1.0000
  H   H289      1.0  0.18102  0.10624  0.44796  1.0000
  H   H290      1.0  0.23563  0.11853  0.43444  1.0000
  H   H291      1.0  0.20347  0.09751  0.38161  1.0000
  H   H292      1.0  0.14994  0.08446  0.39516  1.0000
  C   C182      1.0  0.06219  0.02085  0.57026  1.0000
  C   C183      1.0  0.09492  0.01597  0.56267  1.0000
  C   C184      1.0  0.10646  0.02895  0.54789  1.0000
  C   C185      1.0  0.08532  0.04676  0.54012  1.0000
  C   C186      1.0  0.05221  0.05123  0.54740  1.0000
  C   C187      1.0  0.04097  0.03854  0.56242  1.0000
  C   C188      1.0  0.02989  0.48135  0.56108  1.0000
  H   H293      1.0  0.13212  0.02525  0.54247  1.0000
  H   H294      1.0  0.03565  0.06496  0.54183  1.0000
  H   H295      1.0  0.01586  0.04282  0.56828  1.0000
  H   H296      1.0  0.05768  0.35980  0.34921  1.0000
  H   H297      1.0  0.44967  0.30897  0.37250  1.0000
  C   C189      1.0  0.02005  0.99017  0.36933  1.0000
  H   H298      1.0  0.10260  0.07738  0.59813  1.0000
  C   C190      1.0  0.17724  0.99888  0.64962  1.0000
  C   C191      1.0  0.08634  0.24714  0.49204  1.0000
  C   C192      1.0  0.09893  0.22866  0.50287  1.0000
  C   C193      1.0  0.09242  0.20629  0.49829  1.0000
  C   C194      1.0  0.07285  0.20196  0.48282  1.0000
  C   C195      1.0  0.06008  0.22042  0.47206  1.0000
  C   C196      1.0  0.06687  0.24277  0.47653  1.0000
  H   H299      1.0  0.11389  0.23168  0.51495  1.0000
  H   H300      1.0  0.10244  0.19243  0.50680  1.0000
  H   H301      1.0  0.04482  0.21746  0.46011  1.0000
  H   H302      1.0  0.05676  0.25666  0.46807  1.0000
  H   H303      1.0  0.10546  0.24784  0.42223  1.0000
  H   H304      1.0  0.08748  0.22744  0.43689  1.0000
  H   H305      1.0  0.12051  0.24469  0.44542  1.0000
  H   H306      1.0  0.08525  0.13603  0.41851  1.0000
  N   N10       1.0  0.11509  0.38736  0.34950  1.0000
  H   H307      1.0  0.18362  0.18959  0.37452  1.0000
  H   H308      1.0  0.22173  0.19877  0.38581  1.0000
  C   C197      1.0  0.10106  0.42421  0.57054  1.0000
  C   C198      1.0  0.12932  0.42864  0.55950  1.0000
  C   C199      1.0  0.13566  0.41673  0.54302  1.0000
  C   C200      1.0  0.11375  0.40036  0.53700  1.0000
  C   C201      1.0  0.08511  0.39623  0.54787  1.0000
  C   C202      1.0  0.07916  0.40781  0.56454  1.0000
  H   H309      1.0  0.14671  0.44097  0.56384  1.0000
  H   H310      1.0  0.15795  0.42019  0.53489  1.0000
  H   H311      1.0  0.06754  0.38405  0.54353  1.0000
  H   H312      1.0  0.05716  0.40414  0.57281  1.0000
  C   C203      1.0  0.04612  0.05855  0.35320  1.0000
  H   H313      1.0  0.05864  0.08040  0.39675  1.0000
  C   C204      1.0  0.01866  0.02711  0.50604  1.0000
  C   C205      1.0  0.04849  0.03316  0.41797  1.0000
  H   H314      1.0  0.40270  0.35275  0.37041  1.0000
  H   H315      1.0  0.07668  0.03349  0.41545  1.0000
  H   H316      1.0  0.13072  0.05294  0.62159  1.0000
  C   C206      1.0  0.45179  0.33000  0.34782  1.0000
  H   H317      1.0  0.20512  0.99398  0.64844  1.0000
  C   C207      1.0  0.11345  0.36291  0.35490  1.0000
  C   C208      1.0  0.24322  0.34893  0.39861  1.0000
  C   C209      1.0  0.21545  0.34105  0.38898  1.0000
  C   C210      1.0  0.18401  0.33794  0.39786  1.0000
  C   C211      1.0  0.17990  0.34238  0.41657  1.0000
  C   C212      1.0  0.20765  0.35019  0.42629  1.0000
  C   C213      1.0  0.23911  0.35354  0.41731  1.0000
  H   H318      1.0  0.21792  0.33777  0.37459  1.0000
  H   H319      1.0  0.16265  0.33220  0.39015  1.0000
  H   H320      1.0  0.20482  0.35377  0.44067  1.0000
  H   H321      1.0  0.27944  0.19033  0.43179  1.0000
  H   H322      1.0  0.20739  0.27666  0.51369  1.0000
  H   H323      1.0  0.03419  0.43151  0.50576  1.0000
  C   C214      1.0  0.40254  0.16214  0.34436  1.0000
  H   H324      1.0  0.20185  0.39257  0.38334  1.0000
  H   H325      1.0  0.35288  0.16682  0.33221  1.0000
  C   C215      1.0  0.08066  0.39951  0.35422  1.0000
  C   C216      1.0  0.26764  0.27609  0.38966  1.0000
  C   C217      1.0  0.11914  0.28937  0.39955  1.0000
  C   C218      1.0  0.18012  0.28288  0.51595  1.0000
  C   C219      1.0  0.03438  0.33558  0.54845  1.0000
  N   N11       1.0  0.01873  0.04748  0.34259  1.0000
  H   H326      1.0  0.15495  0.23101  0.37007  1.0000
  H   H327      1.0  0.25889  0.29408  0.39160  1.0000
  H   H328      1.0  0.02605  0.43939  0.54692  1.0000
  C   C220      1.0  0.18174  0.23644  0.37148  1.0000
  H   H329      1.0  0.16604  0.98778  0.58169  1.0000
  H   H330      1.0  0.02523  0.05254  0.38080  1.0000
  H   H331      1.0  0.28615  0.27471  0.37809  1.0000
  H   H332      1.0  0.07822  0.08824  0.37561  1.0000
  C   C221      1.0  0.02208  0.42866  0.51920  1.0000
  H   H333      1.0  0.03862  0.01154  0.47378  1.0000
  Fe  Fe30      1.0  0.22932  0.10163  0.33330  1.0000
  H   H334      1.0  0.03052  0.34555  0.56111  1.0000
  H   H335      1.0  0.24331  0.99345  0.61870  1.0000
  H   H336      1.0  0.27256  0.03980  0.61426  1.0000
  N   N12       1.0  0.13502  0.32372  0.55116  1.0000
  C   C222      1.0  0.14090  0.31135  0.53343  1.0000
  C   C223      1.0  0.09948  0.33576  0.55074  1.0000
  C   C224      1.0  0.16091  0.34151  0.55210  1.0000
  C   C225      1.0  0.13948  0.30851  0.56773  1.0000
  C   C226      1.0  0.13037  0.28368  0.56549  1.0000
  C   C227      1.0  0.17850  0.30156  0.53012  1.0000
  C   C228      1.0  0.15764  0.35761  0.56867  1.0000
  N   N13       1.0  0.45888  0.31339  0.33258  1.0000
  C   C229      1.0  0.31632  0.22118  0.34304  1.0000
  C   C230      1.0  0.12927  0.27168  0.58396  1.0000
  C   C231      1.0  0.04236  0.02002  0.43549  1.0000
  C   C232      1.0  0.18800  0.37257  0.56948  1.0000
  H   H337      1.0  0.13394  0.32282  0.52175  1.0000
  H   H338      1.0  0.12331  0.29760  0.53202  1.0000
  H   H339      1.0  0.09472  0.34579  0.56329  1.0000
  H   H340      1.0  0.09769  0.34792  0.53908  1.0000
  H   H341      1.0  0.15955  0.35210  0.53948  1.0000
  H   H342      1.0  0.18769  0.33359  0.55261  1.0000
  H   H343      1.0  0.16677  0.30756  0.57258  1.0000
  H   H344      1.0  0.12417  0.31589  0.57934  1.0000
  H   H345      1.0  0.15019  0.27429  0.55710  1.0000
  H   H346      1.0  0.10522  0.28219  0.55869  1.0000
  H   H347      1.0  0.19433  0.31510  0.52497  1.0000
  H   H348      1.0  0.19065  0.29470  0.54287  1.0000
  H   H349      1.0  0.15682  0.34810  0.58171  1.0000
  H   H350      1.0  0.13400  0.36905  0.56761  1.0000
  H   H351      1.0  0.03763  0.05081  0.41924  1.0000
  H   H352      1.0  0.46806  0.09122  0.33428  1.0000
  H   H353      1.0  0.15507  0.25055  0.34049  1.0000
  H   H354      1.0  0.99624  0.08068  0.33518  1.0000
  H   H355      1.0  0.10865  0.27979  0.59266  1.0000
  H   H356      1.0  0.12361  0.25386  0.58191  1.0000
  H   H357      1.0  0.15453  0.27199  0.59106  1.0000
  H   H358      1.0  0.13895  0.39433  0.37528  1.0000
  H   H359      1.0  0.17420  0.28755  0.39776  1.0000
  H   H360      1.0  0.14861  0.29128  0.33667  1.0000
  H   H361      1.0  0.18411  0.38463  0.58088  1.0000
  H   H362      1.0  0.21262  0.36230  0.57176  1.0000
  H   H363      1.0  0.18976  0.38237  0.55659  1.0000
  N   N14       1.0  0.17442  0.18125  0.43787  1.0000
  C   C233      1.0  0.15056  0.20138  0.44290  1.0000
  C   C234      1.0  0.18572  0.16792  0.45481  1.0000
  C   C235      1.0  0.20634  0.18996  0.42930  1.0000
  C   C236      1.0  0.15817  0.16647  0.42417  1.0000
  C   C237      1.0  0.12436  0.15613  0.43002  1.0000
  C   C238      1.0  0.13924  0.21779  0.42710  1.0000
  C   C239      1.0  0.23528  0.17186  0.42394  1.0000
  C   C240      1.0  0.15971  0.16734  0.47084  1.0000
  C   C241      1.0  0.17471  0.15277  0.48657  1.0000
  C   C242      1.0  0.10710  0.14560  0.41373  1.0000
  C   C243      1.0  0.11154  0.23550  0.43337  1.0000
  C   C244      1.0  0.26903  0.18246  0.41947  1.0000
  H   H364      1.0  0.16316  0.21148  0.45342  1.0000
  H   H365      1.0  0.12663  0.19616  0.44950  1.0000
  H   H366      1.0  0.19346  0.15015  0.45123  1.0000
  H   H367      1.0  0.20924  0.17466  0.46086  1.0000
  H   H368      1.0  0.21768  0.20219  0.43862  1.0000
  H   H369      1.0  0.19977  0.19933  0.41648  1.0000
  H   H370      1.0  0.15380  0.17549  0.41096  1.0000
  H   H371      1.0  0.17626  0.15186  0.42071  1.0000
  H   H372      1.0  0.10527  0.16869  0.43588  1.0000
  H   H373      1.0  0.13027  0.14254  0.44023  1.0000
  H   H374      1.0  0.16142  0.22697  0.42224  1.0000
  H   H375      1.0  0.12837  0.20882  0.41549  1.0000
  H   H376      1.0  0.22745  0.16275  0.41162  1.0000
  H   H377      1.0  0.24101  0.15937  0.43498  1.0000
  H   H378      1.0  0.15378  0.18444  0.47642  1.0000
  H   H379      1.0  0.13523  0.16058  0.46651  1.0000
  H   H380      1.0  0.19816  0.15989  0.49217  1.0000
  H   H381      1.0  0.15530  0.15220  0.49765  1.0000
  H   H382      1.0  0.18153  0.13533  0.48192  1.0000
  H   H383      1.0  0.09706  0.15884  0.40399  1.0000
  H   H384      1.0  0.12564  0.13375  0.40652  1.0000
  H   H385      1.0  0.22581  0.18373  0.36473  1.0000
  H   H386      1.0  0.21114  0.98735  0.58773  1.0000
  C   C245      1.0  0.08041  0.42487  0.35893  1.0000
  H   H387      1.0  0.29638  0.01360  0.61982  1.0000
  S   S59       1.0  0.33388  0.26476  0.34051  1.0000
  H   H388      1.0  0.02902  0.42675  0.37116  1.0000
  H   H389      1.0  0.08419  0.05051  0.59851  1.0000
  C   C246      1.0  0.43246  0.32121  0.36467  1.0000
  H   H390      1.0  0.07041  0.04747  0.35387  1.0000
  H   H391      1.0  0.24708  0.24430  0.38490  1.0000
  C   C247      1.0  0.47495  0.29119  0.33953  1.0000
  H   H392      1.0  0.12876  0.26846  0.36783  1.0000
  C   C248      1.0  0.08305  0.35061  0.34672  1.0000
  H   H393      1.0  0.21387  0.28865  0.36879  1.0000
  H   H394      1.0  0.28135  0.26995  0.40223  1.0000
  H   H395      1.0  0.00897  0.15334  0.42017  1.0000
  N   N15       1.0  0.17434  0.01270  0.61551  1.0000
  H   H396      1.0  0.16918  0.28927  0.50275  1.0000
  C   C249      1.0  0.23686  0.26207  0.38609  1.0000
  C   C250      1.0  0.03585  0.06622  0.37271  1.0000
  H   H397      1.0  0.06989  0.31039  0.53698  1.0000
  H   H398      1.0  0.20664  0.04085  0.61511  1.0000
  C   C251      1.0  0.27328  0.02128  0.61256  1.0000
  H   H399      1.0  0.09676  0.27973  0.39580  1.0000
  H   H400      1.0  0.11945  0.29120  0.41462  1.0000
  H   H401      1.0  0.01375  0.41395  0.45598  1.0000
  H   H402      1.0  0.16544  0.26858  0.52067  1.0000
  H   H403      1.0  0.17272  0.03339  0.63974  1.0000
  S   S60       1.0  0.26175  0.31370  0.34919  1.0000
  H   H404      1.0  0.21219  0.02311  0.59610  1.0000
  H   H405      1.0  0.13567  0.01799  0.63674  1.0000
  H   H406      1.0  0.05242  0.01774  0.36973  1.0000
  H   H407      1.0  0.05177  0.00311  0.34834  1.0000
  C   C252      1.0  0.13802  0.04972  0.60719  1.0000
  H   H408      1.0  0.01600  0.08053  0.37196  1.0000
  C   C253      1.0  0.20754  0.39615  0.36879  1.0000
  C   C254      1.0  0.24073  0.01193  0.62046  1.0000
  H   H409      1.0  0.23373  0.38843  0.36569  1.0000
  H   H410      1.0  0.44376  0.34919  0.38224  1.0000
  C   C255      1.0  0.20591  0.21846  0.36177  1.0000
  H   H411      1.0  0.04253  0.01575  0.50705  1.0000
  H   H412      1.0  0.40305  0.18042  0.34688  1.0000
  H   H413      1.0  0.16053  0.05946  0.60384  1.0000
  H   H414      1.0  0.23634  0.26628  0.35707  1.0000
  H   H415      1.0  0.10619  0.31703  0.35282  1.0000
  C   C256      1.0  0.15380  0.27476  0.37229  1.0000
  H   H416      1.0  0.02224  0.38748  0.40018  1.0000
  H   H417      1.0  0.11581  0.30648  0.39342  1.0000
  H   H418      1.0  0.05342  0.07402  0.34603  1.0000
  H   H419      1.0  0.99790  0.15779  0.45954  1.0000
  H   H420      1.0  0.40785  0.33370  0.38953  1.0000
  H   H421      1.0  0.06913  0.39163  0.36644  1.0000
  H   H422      1.0  0.20050  0.25015  0.33740  1.0000
  C   C257      1.0  0.10792  0.05918  0.59537  1.0000
  C   C258      1.0  0.20931  0.19632  0.37245  1.0000
  H   H423      1.0  0.15544  0.26080  0.40041  1.0000
  H   H424      1.0  0.12184  0.01565  0.60517  1.0000
  H   H425      1.0  0.06176  0.39775  0.34295  1.0000
  H   H426      1.0  0.27586  0.01719  0.59784  1.0000
  H   H427      1.0  0.01249  0.32469  0.54698  1.0000
  H   H428      1.0  0.20765  0.41460  0.36665  1.0000
  H   H429      1.0  0.14509  0.41486  0.35831  1.0000
  H   H430      1.0  0.05500  0.00290  0.43382  1.0000
  C   C259      1.0  0.00307  0.01899  0.43925  1.0000
  H   H431      1.0  0.18735  0.23528  0.38628  1.0000
  C   C260      1.0  0.00841  0.37788  0.42749  1.0000
  H   H432      1.0  0.36430  0.15942  0.36592  1.0000
  C   C261      1.0  0.42112  0.34045  0.37746  1.0000
  C   C262      1.0  0.21757  0.26998  0.36835  1.0000
  H   H433      1.0  0.06027  0.31846  0.34875  1.0000
  H   H434      1.0  0.11156  0.00240  0.56834  1.0000
  H   H435      1.0  0.01346  0.45132  0.44286  1.0000
  H   H436      1.0  0.18848  0.38967  0.34206  1.0000
  H   H437      1.0  0.24028  0.01589  0.63521  1.0000
  H   H438      1.0  0.18331  0.36778  0.35862  1.0000
  H   H439      1.0  0.99934  0.47043  0.39702  1.0000
  H   H440      1.0  0.08704  0.06025  0.38496  1.0000
  H   H441      1.0  0.03409  0.34728  0.53659  1.0000
  C   C263      1.0  0.16435  0.01681  0.63524  1.0000
  C   C264      1.0  0.29585  0.20322  0.33934  1.0000
  C   C265      1.0  0.17577  0.98787  0.61135  1.0000
  C   C266      1.0  0.01558  0.42842  0.46527  1.0000
  H   H442      1.0  0.19522  0.21474  0.34814  1.0000
  H   H443      1.0  0.07652  0.32837  0.37003  1.0000
  C   C267      1.0  0.20789  0.02287  0.61111  1.0000
  C   C268      1.0  0.04349  0.43544  0.36045  1.0000
  C   C269      1.0  0.00026  0.45003  0.45617  1.0000
  C   C270      1.0  0.38999  0.15156  0.36200  1.0000
  C   C271      1.0  0.17829  0.25970  0.34395  1.0000
  H   H444      1.0  0.04396  0.45343  0.36417  1.0000
  Fe  Fe31      1.0  0.30695  0.10871  0.33102  1.0000
  H   H445      1.0  0.09316  0.42692  0.37234  1.0000
  C   C272      1.0  0.08154  0.32716  0.35514  1.0000
  H   H446      1.0  0.02831  0.17938  0.41521  1.0000
  H   H447      1.0  0.40844  0.15425  0.37321  1.0000
  H   H448      1.0  0.15339  0.02291  0.58897  1.0000
  H   H449      1.0  0.23207  0.22444  0.35979  1.0000
  H   H450      1.0  0.38815  0.13316  0.36037  1.0000
  H   H451      1.0  0.40435  0.09856  0.33735  1.0000
  H   H452      1.0  0.48185  0.03118  0.35407  1.0000
  H   H453      1.0  0.11418  0.05725  0.58067  1.0000
  C   C273      1.0  0.00677  0.02714  0.35255  1.0000
  H   H454      1.0  0.39574  0.38139  0.32988  1.0000
  H   H455      1.0  0.06474  0.44078  0.53359  1.0000
  C   C274      1.0  0.14638  0.02422  0.60364  1.0000
  H   H456      1.0  0.04141  0.16342  0.43525  1.0000
  H   H457      1.0  0.06694  0.31025  0.56169  1.0000
  C   C275      1.0  0.00172  0.38756  0.41015  1.0000
  H   H458      1.0  0.03394  0.37050  0.43078  1.0000
  H   H459      1.0  0.15399  0.29228  0.36697  1.0000
  C   C276      1.0  0.03556  0.00996  0.35971  1.0000
  H   H460      1.0  0.45643  0.28287  0.34852  1.0000
  H   H461      1.0  0.45176  0.39904  0.33235  1.0000
  H   H462      1.0  0.03642  0.02521  0.40614  1.0000
  H   H463      1.0  0.00179  0.09117  0.43110  1.0000
  C   C277      1.0  0.01155  0.01888  0.47232  1.0000
  H   H464      1.0  0.04331  0.42995  0.46841  1.0000
  S   S61       1.0  0.27994  0.36374  0.33319  1.0000
  H   H465      1.0  0.02590  0.04442  0.50284  1.0000
  Fe  Fe32      1.0  0.25417  0.14935  0.33394  1.0000
  H   H466      1.0  0.00627  0.46426  0.46497  1.0000
  H   H467      1.0  0.99826  0.20451  0.51151  1.0000
  H   H468      1.0  0.09405  0.43453  0.34860  1.0000
  H   H469      1.0  0.08643  0.34852  0.33179  1.0000
  H   H470      1.0  0.00074  0.99612  0.54939  1.0000
  H   H471      1.0  0.19442  0.29401  0.33849  1.0000
  H   H472      1.0  0.02832  0.41083  0.52320  1.0000
  H   H473      1.0  0.02969  0.43444  0.34724  1.0000
  H   H474      1.0  0.00576  0.02744  0.51953  1.0000
  H   H475      1.0  0.42905  0.15472  0.34184  1.0000
  C   C278      1.0  0.02650  0.46917  0.52873  1.0000
  H   H476      1.0  0.99788  0.47155  0.52749  1.0000
  C   C279      1.0  0.03632  0.44414  0.53344  1.0000
  H   H477      1.0  0.47587  0.33620  0.35338  1.0000
  H   H478      1.0  0.00181  0.42486  0.47812  1.0000
  H   H479      1.0  0.13724  0.35285  0.35063  1.0000
  H   H480      1.0  0.00435  0.99612  0.38123  1.0000
  C   C280      1.0  0.30749  0.24267  0.33580  1.0000
  C   C281      1.0  0.01910  0.16854  0.42631  1.0000
  H   H481      1.0  0.03652  0.47187  0.51474  1.0000
  H   H482      1.0  0.43703  0.34532  0.34239  1.0000
  H   H483      1.0  0.00306  0.19605  0.44352  1.0000
  H   H484      1.0  0.14598  0.48358  0.55452  1.0000
  H   H485      1.0  0.47287  0.41336  0.99111  1.0000
  C   C282      1.0  0.00370  0.48123  0.77734  1.0000
  H   H486      1.0  0.48326  0.45400  0.88979  1.0000
  H   H487      1.0  0.44051  0.30648  0.97663  1.0000
  C   C283      1.0  0.46372  0.27453  0.96523  1.0000
  H   H488      1.0  0.38882  0.30941  0.95712  1.0000
  H   H489      1.0  0.35993  0.47385  0.67392  1.0000
  H   H490      1.0  0.46381  0.26703  0.95139  1.0000
  C   C284      1.0  0.46865  0.45338  0.87680  1.0000
  C   C285      1.0  0.44134  0.29708  0.96365  1.0000
  H   H491      1.0  0.42315  0.07473  0.99046  1.0000
  C   C286      1.0  0.44112  0.47296  0.87549  1.0000
  H   H492      1.0  0.45175  0.30796  0.95291  1.0000
  H   H493      1.0  0.02672  0.46955  0.78005  1.0000
  H   H494      1.0  0.18405  0.02272  0.67156  1.0000
  H   H495      1.0  0.45619  0.43719  0.87632  1.0000
  C   C287      1.0  0.44938  0.07865  0.99495  1.0000
  H   H496      1.0  0.39209  0.28286  0.96913  1.0000
  H   H497      1.0  0.27100  0.47850  0.69131  1.0000
  H   H498      1.0  0.46020  0.08993  0.98460  1.0000
  H   H499      1.0  0.40338  0.28420  0.94518  1.0000
  H   H500      1.0  0.02280  0.47184  0.67689  1.0000
  C   C288      1.0  0.40417  0.29304  0.95844  1.0000
  H   H501      1.0  0.39941  0.46152  0.66395  1.0000
  H   H502      1.0  0.22487  0.48026  0.66765  1.0000
  H   H503      1.0  0.42698  0.47118  0.86248  1.0000
  H   H504      1.0  0.39947  0.47235  0.68686  1.0000
  C   C289      1.0  0.17030  0.00733  0.66899  1.0000
  H   H505      1.0  0.17975  0.99427  0.67901  1.0000
  H   H506      1.0  0.46347  0.46952  0.80587  1.0000
  C   C290      1.0  0.38832  0.47502  0.67299  1.0000
  H   H507      1.0  0.45008  0.26266  0.97401  1.0000
  H   H508      1.0  0.48699  0.45385  0.86521  1.0000
  H   H509      1.0  0.14215  0.01100  0.67117  1.0000
  H   H510      1.0  0.47479  0.04930  0.98315  1.0000
  H   H511      1.0  0.42315  0.47101  0.88704  1.0000
  H   H512      1.0  0.45679  0.00365  0.99274  1.0000
  H   H513      1.0  0.49451  0.30638  0.98842  1.0000
  H   H514      1.0  0.49475  0.23411  0.95190  1.0000
  C   C291      1.0  0.47691  0.48389  0.80141  1.0000
  H   H515      1.0  0.37238  0.48468  0.22606  1.0000
  H   H516      1.0  0.05905  0.96968  0.20037  1.0000
  H   H517      1.0  0.38124  0.61759  0.02331  1.0000
  H   H518      1.0  0.25728  0.86158  0.04063  1.0000
  C   C292      1.0  0.18252  0.96055  0.21635  1.0000
  S   S62       1.0  0.41386  0.98247  0.10595  1.0000
  C   C293      1.0  0.29815  0.88761  0.00453  1.0000
  S   S63       1.0  0.34101  0.57306  0.02450  1.0000
  H   H519      1.0  0.46060  0.89345  0.12605  1.0000
  H   H520      1.0  0.31558  0.63979  0.09259  1.0000
  Fe  Fe33      1.0  0.36681  0.96274  0.10851  1.0000
  H   H521      1.0  0.27526  0.64810  0.00591  1.0000
  S   S64       1.0  0.35936  0.92914  0.09357  1.0000
  C   C294      1.0  0.37499  0.72243  0.03770  1.0000
  H   H522      1.0  0.20635  0.92285  0.23863  1.0000
  C   C295      1.0  0.31003  0.95231  0.03688  1.0000
  H   H523      1.0  0.22081  0.96822  0.19605  1.0000
  S   S65       1.0  0.36587  0.96621  0.13952  1.0000
  C   C296      1.0  0.48987  0.92998  0.11254  1.0000
  S   S66       1.0  0.39541  0.87957  0.01699  1.0000
  C   C297      1.0  0.28057  0.66611  0.00711  1.0000
  H   H524      1.0  0.00712  0.95467  0.31635  1.0000
  H   H525      1.0  0.38446  0.61299  0.04747  1.0000
  H   H526      1.0  0.06302  0.94129  0.20904  1.0000
  H   H527      1.0  0.38935  0.88362  0.14080  1.0000
  H   H528      1.0  0.33400  0.91577  0.01940  1.0000
  H   H529      1.0  0.30292  0.68840  0.02572  1.0000
  H   H530      1.0  0.38547  0.73279  0.02663  1.0000
  H   H531      1.0  0.35869  0.69792  0.01907  1.0000
  C   C298      1.0  0.34134  0.63132  0.08963  1.0000
  H   H532      1.0  0.37840  0.68412  0.05862  1.0000
  C   C299      1.0  0.48569  0.93547  0.13312  1.0000
  H   H533      1.0  0.44225  0.48658  0.02946  1.0000
  H   H534      1.0  0.16164  0.96618  0.20668  1.0000
  C   C300      1.0  0.36969  0.91585  0.07208  1.0000
  C   C301      1.0  0.35495  0.89555  0.06777  1.0000
  C   C302      1.0  0.36243  0.88425  0.05114  1.0000
  C   C303      1.0  0.38521  0.89288  0.03849  1.0000
  C   C304      1.0  0.39984  0.91324  0.04276  1.0000
  C   C305      1.0  0.39214  0.92464  0.05933  1.0000
  H   H535      1.0  0.33756  0.88848  0.07742  1.0000
  H   H536      1.0  0.35082  0.86871  0.04823  1.0000
  H   H537      1.0  0.41736  0.92026  0.03315  1.0000
  H   H538      1.0  0.40379  0.94013  0.06233  1.0000
  S   S67       1.0  0.39381  0.50811  0.09131  1.0000
  C   C306      1.0  0.07752  0.95623  0.20581  1.0000
  C   C307      1.0  0.36065  0.68295  0.04680  1.0000
  H   H539      1.0  0.40162  0.69223  0.02789  1.0000
  H   H540      1.0  0.24921  0.89399  0.01952  1.0000
  H   H541      1.0  0.18758  0.94225  0.21454  1.0000
  H   H542      1.0  0.39151  0.72372  0.04997  1.0000
  H   H543      1.0  0.40407  0.65498  0.02575  1.0000
  H   H544      1.0  0.33112  0.96208  0.03141  1.0000
  H   H545      1.0  0.33261  0.63019  0.05328  1.0000
  H   H546      1.0  0.28779  0.89519  0.03329  1.0000
  C   C308      1.0  0.43297  0.61289  0.03378  1.0000
  H   H547      1.0  0.49238  0.97207  0.01069  1.0000
  H   H548      1.0  0.45017  0.93749  0.16358  1.0000
  C   C309      1.0  0.35653  0.55389  0.04224  1.0000
  C   C310      1.0  0.39175  0.54873  0.04566  1.0000
  C   C311      1.0  0.40249  0.53453  0.06052  1.0000
  C   C312      1.0  0.37838  0.52487  0.07207  1.0000
  C   C313      1.0  0.34320  0.52954  0.06834  1.0000
  C   C314      1.0  0.33246  0.54411  0.05373  1.0000
  H   H549      1.0  0.41072  0.55604  0.03709  1.0000
  H   H550      1.0  0.42977  0.53122  0.06322  1.0000
  H   H551      1.0  0.32419  0.52245  0.07704  1.0000
  H   H552      1.0  0.30516  0.54790  0.05135  1.0000
  H   H553      1.0  0.10944  0.97928  0.21906  1.0000
  C   C315      1.0  0.27287  0.86205  0.02796  1.0000
  C   C316      1.0  0.39076  0.89771  0.13090  1.0000
  H   H554      1.0  0.38628  0.63578  0.07356  1.0000
  C   C317      1.0  0.33593  0.65662  0.02492  1.0000
  H   H555      1.0  0.35642  0.62990  0.10252  1.0000
  H   H556      1.0  0.41118  0.65189  0.04945  1.0000
  H   H557      1.0  0.32432  0.88014  0.00832  1.0000
  H   H558      1.0  0.09707  0.95193  0.19511  1.0000
  H   H559      1.0  0.33076  0.63870  0.02281  1.0000
  H   H560      1.0  0.28392  0.66485  0.03623  1.0000
  H   H561      1.0  0.34835  0.72939  0.04076  1.0000
  N   N16       1.0  0.35740  0.65868  0.04189  1.0000
  H   H562      1.0  0.44777  0.61593  0.04638  1.0000
  N   N17       1.0  0.48167  0.91574  0.14576  1.0000
  H   H563      1.0  0.40786  0.92125  0.15011  1.0000
  H   H564      1.0  0.36569  0.51058  0.02499  1.0000
  C   C318      1.0  0.39304  0.64784  0.03838  1.0000
  H   H565      1.0  0.36433  0.66147  0.08140  1.0000
  H   H566      1.0  0.27064  0.93161  0.02773  1.0000
  H   H567      1.0  0.27865  0.95462  0.01270  1.0000
  C   C319      1.0  0.31657  0.92583  0.00992  1.0000
  H   H568      1.0  0.32111  0.93942  0.04666  1.0000
  C   C320      1.0  0.39539  0.62198  0.03577  1.0000
  H   H569      1.0  0.31498  0.65654  0.06082  1.0000
  C   C321      1.0  0.14777  0.97681  0.27516  1.0000
  H   H570      1.0  0.35043  0.66154  0.01256  1.0000
  H   H571      1.0  0.20986  0.88285  0.24704  1.0000
  N   N18       1.0  0.14503  0.95358  0.24531  1.0000
  C   C322      1.0  0.11870  0.94572  0.23207  1.0000
  C   C323      1.0  0.16164  0.93348  0.25542  1.0000
  H   H572      1.0  0.43397  0.59448  0.03143  1.0000
  H   H573      1.0  0.40455  0.51731  0.01305  1.0000
  H   H574      1.0  0.46475  0.92575  0.10667  1.0000
  C   C324      1.0  0.09493  0.96460  0.22291  1.0000
  C   C325      1.0  0.33990  0.64719  0.05741  1.0000
  C   C326      1.0  0.18262  0.91571  0.24390  1.0000
  C   C327      1.0  0.37475  0.69802  0.03154  1.0000
  H   H575      1.0  0.17159  0.88680  0.26085  1.0000
  H   H576      1.0  0.41742  0.92764  0.12668  1.0000
  H   H577      1.0  0.10138  0.93426  0.23911  1.0000
  H   H578      1.0  0.13120  0.93544  0.22108  1.0000
  H   H579      1.0  0.46490  0.95313  0.19374  1.0000
  H   H580      1.0  0.14155  0.92481  0.26311  1.0000
  C   C328      1.0  0.48974  0.94273  0.19401  1.0000
  H   H581      1.0  0.36735  0.50951  0.00051  1.0000
  H   H582      1.0  0.46314  0.94795  0.13428  1.0000
  H   H583      1.0  0.48863  0.53236  0.99810  1.0000
  H   H584      1.0  0.45011  0.88756  0.14902  1.0000
  C   C329      1.0  0.19428  0.89514  0.25551  1.0000
  C   C330      1.0  0.27573  0.88643  0.02188  1.0000
  H   H585      1.0  0.29889  0.85377  0.03081  1.0000
  H   H586      1.0  0.10422  0.95931  0.26537  1.0000
  C   C331      1.0  0.36058  0.64473  0.07553  1.0000
  H   H587      1.0  0.16739  0.90970  0.23237  1.0000
  H   H588      1.0  0.38731  0.98363  0.04186  1.0000
  H   H589      1.0  0.15487  0.96293  0.28493  1.0000
  H   H590      1.0  0.21051  0.90003  0.26711  1.0000
  H   H591      1.0  0.33798  0.61405  0.08461  1.0000
  H   H592      1.0  0.23753  0.96542  0.21895  1.0000
  C   C332      1.0  0.47243  0.92466  0.16447  1.0000
  C   C333      1.0  0.29117  0.94111  0.02147  1.0000
  H   H593      1.0  0.04432  0.96326  0.29045  1.0000
  H   H594      1.0  0.36481  0.90677  0.13002  1.0000
  C   C334      1.0  0.41718  0.91396  0.13701  1.0000
  H   H595      1.0  0.43073  0.97193  0.04588  1.0000
  C   C335      1.0  0.45343  0.90160  0.13926  1.0000
  H   H596      1.0  0.33540  0.69084  0.05150  1.0000
  C   C336      1.0  0.30019  0.67006  0.02474  1.0000
  H   H597      1.0  0.48655  0.92743  0.20240  1.0000
  H   H598      1.0  0.07418  0.97048  0.23253  1.0000
  H   H599      1.0  0.33420  0.93738  0.00340  1.0000
  H   H600      1.0  0.24752  0.92268  0.00036  1.0000
  C   C337      1.0  0.21502  0.97184  0.21062  1.0000
  H   H601      1.0  0.45448  0.48489  0.06169  1.0000
  H   H602      1.0  0.07865  0.48711  0.16791  1.0000
  H   H603      1.0  0.18022  0.93886  0.26578  1.0000
  C   C338      1.0  0.12583  0.96822  0.25925  1.0000
  H   H604      1.0  0.39752  0.89090  0.11720  1.0000
  H   H605      1.0  0.23115  0.98298  0.14522  1.0000
  H   H606      1.0  0.44527  0.62101  0.02199  1.0000
  C   C339      1.0  0.38268  0.50623  0.01318  1.0000
  H   H607      1.0  0.46332  0.91109  0.17339  1.0000
  C   C340      1.0  0.17191  0.96702  0.23617  1.0000
  H   H608      1.0  0.17130  0.98144  0.15711  1.0000
  H   H609      1.0  0.25549  0.67628  0.00712  1.0000
  H   H610      1.0  0.19580  0.96640  0.24463  1.0000
  C   C341      1.0  0.00099  0.96973  0.30833  1.0000
  H   H611      1.0  0.26010  0.85247  0.01725  1.0000
  H   H612      1.0  0.33324  0.49416  0.23771  1.0000
  H   H613      1.0  0.29165  0.96392  0.04443  1.0000
  C   C342      1.0  0.02219  0.97462  0.29355  1.0000
  Fe  Fe34      1.0  0.35984  0.58793  0.99723  1.0000
  H   H614      1.0  0.48516  0.96543  0.10445  1.0000
  H   H615      1.0  0.11333  0.98340  0.25256  1.0000
  H   H616      1.0  0.17172  0.98381  0.27008  1.0000
  H   H617      1.0  0.40503  0.48450  0.04299  1.0000
  Fe  Fe35      1.0  0.38543  0.85105  0.99643  1.0000
  S   S68       1.0  0.11259  0.52753  0.63161  1.0000
  Fe  Fe36      1.0  0.15555  0.50054  0.62841  1.0000
  C   C343      1.0  0.13623  0.50005  0.54864  1.0000
  Fe  Fe37      1.0  0.11421  0.94466  0.63084  1.0000
  S   S69       1.0  0.17220  0.93462  0.63557  1.0000
  Fe  Fe38      1.0  0.04483  0.92800  0.61692  1.0000
  S   S70       1.0  0.08884  0.94381  0.60274  1.0000
  S   S71       1.0  0.07273  0.92561  0.64393  1.0000
  H   H618      1.0  0.08899  0.52033  0.54527  1.0000
  H   H619      1.0  0.37528  0.56967  0.62657  1.0000
  H   H620      1.0  0.06072  0.57608  0.62757  1.0000
  H   H621      1.0  0.05063  0.58022  0.55675  1.0000
  C   C344      1.0  0.44325  0.53011  0.61593  1.0000
  C   C345      1.0  0.00540  0.98308  0.45555  1.0000
  H   H622      1.0  0.01746  0.52685  0.59061  1.0000
  Fe  Fe39      1.0  0.04630  0.95942  0.64969  1.0000
  C   C346      1.0  0.37736  0.58669  0.65200  1.0000
  S   S72       1.0  0.20967  0.51191  0.63679  1.0000
  C   C347      1.0  0.38279  0.54423  0.64861  1.0000
  C   C348      1.0  0.03826  0.55290  0.57446  1.0000
  H   H623      1.0  0.03002  0.96773  0.53377  1.0000
  H   H624      1.0  0.03172  0.55358  0.52306  1.0000
  H   H625      1.0  0.14851  0.51355  0.55612  1.0000
  C   C349      1.0  0.02314  0.88916  0.57367  1.0000
  S   S73       1.0  0.08099  0.54836  0.58280  1.0000
  H   H626      1.0  0.20960  0.94790  0.59868  1.0000
  C   C350      1.0  0.01964  0.54184  0.51372  1.0000
  C   C351      1.0  0.23380  0.92497  0.65422  1.0000
  C   C352      1.0  0.18588  0.98111  0.59157  1.0000
  H   H627      1.0  0.01540  0.88128  0.65955  1.0000
  H   H628      1.0  0.01505  0.49803  0.39929  1.0000
  H   H629      1.0  0.04812  0.89571  0.57580  1.0000
  S   S74       1.0  0.14150  0.49542  0.59863  1.0000
  H   H630      1.0  0.02465  0.50715  0.50627  1.0000
  Fe  Fe40      1.0  0.09608  0.52034  0.60315  1.0000
  Fe  Fe41      1.0  0.06156  0.97706  0.61028  1.0000
  C   C353      1.0  0.01075  0.56271  0.63177  1.0000
  C   C354      1.0  0.99908  0.88978  0.58787  1.0000
  C   C355      1.0  0.03054  0.56981  0.56131  1.0000
  H   H631      1.0  0.37859  0.53908  0.61044  1.0000
  H   H632      1.0  0.02489  0.59707  0.62718  1.0000
  Fe  Fe42      1.0  0.07862  0.50039  0.64057  1.0000
  H   H633      1.0  0.34961  0.58605  0.65551  1.0000
  H   H634      1.0  0.32257  0.54378  0.62911  1.0000
  H   H635      1.0  0.14378  0.50093  0.53407  1.0000
  C   C356      1.0  0.48273  0.52815  0.61607  1.0000
  H   H636      1.0  0.07064  0.97145  0.56041  1.0000
  H   H637      1.0  0.03249  0.60396  0.48428  1.0000
  H   H638      1.0  0.43458  0.52096  0.60380  1.0000
  H   H639      1.0  0.01318  0.96191  0.56835  1.0000
  H   H640      1.0  0.38097  0.60287  0.64489  1.0000
  H   H641      1.0  0.19421  0.97811  0.62043  1.0000
  C   C357      1.0  0.07268  0.95669  0.55127  1.0000
  H   H642      1.0  0.02493  0.54705  0.49948  1.0000
  H   H643      1.0  0.03120  0.52182  0.54644  1.0000
  C   C358      1.0  0.02461  0.50917  0.53623  1.0000
  H   H644      1.0  0.99847  0.90872  0.65163  1.0000
  C   C359      1.0  0.09704  0.50334  0.55066  1.0000
  H   H645      1.0  0.41738  0.56833  0.63740  1.0000
  S   S75       1.0  0.05991  0.49485  0.61196  1.0000
  C   C360      1.0  0.01728  0.62035  0.48555  1.0000
  H   H646      1.0  0.09182  0.95977  0.54045  1.0000
  H   H647      1.0  0.44349  0.52577  0.64534  1.0000
  H   H648      1.0  0.04130  0.93794  0.53392  1.0000
  H   H649      1.0  0.16315  0.98348  0.64787  1.0000
  S   S76       1.0  0.01642  0.96108  0.62345  1.0000
  C   C361      1.0  0.03477  0.51780  0.51708  1.0000
  H   H650      1.0  0.35585  0.54501  0.65371  1.0000
  C   C362      1.0  0.03355  0.57971  0.62306  1.0000
  H   H651      1.0  0.15030  0.98113  0.61428  1.0000
  H   H652      1.0  0.38136  0.48828  0.63857  1.0000
  C   C363      1.0  0.18906  0.95556  0.58954  1.0000
  H   H653      1.0  0.19582  0.95111  0.57525  1.0000
  H   H654      1.0  0.03408  0.87892  0.54596  1.0000
  H   H655      1.0  0.03551  0.63381  0.48687  1.0000
  C   C364      1.0  0.38933  0.56714  0.63966  1.0000
  H   H656      1.0  0.06317  0.51781  0.51554  1.0000
  H   H657      1.0  0.32216  0.54780  0.59538  1.0000
  C   C365      1.0  0.01515  0.87959  0.55679  1.0000
  H   H658      1.0  0.26285  0.54105  0.64648  1.0000
  S   S77       1.0  0.00784  0.90127  0.60949  1.0000
  C   C366      1.0  0.03768  0.95307  0.54264  1.0000
  H   H659      1.0  0.24215  0.91647  0.64185  1.0000
  C   C367      1.0  0.24050  0.51069  0.65520  1.0000
  H   H660      1.0  0.38530  0.84275  0.64169  1.0000
  H   H661      1.0  0.03257  0.94008  0.46386  1.0000
  C   C368      1.0  0.33028  0.52882  0.62079  1.0000
  C   C369      1.0  0.01205  0.53964  0.58033  1.0000
  H   H662      1.0  0.43474  0.54808  0.61418  1.0000
  H   H663      1.0  0.16427  0.94831  0.59298  1.0000
  H   H664      1.0  0.08210  0.94159  0.55929  1.0000
  H   H665      1.0  0.01721  0.93298  0.56409  1.0000
  C   C370      1.0  0.31346  0.53239  0.60205  1.0000
  N   N19       1.0  0.03993  0.48611  0.54162  1.0000
  S   S78       1.0  0.08900  0.97879  0.63755  1.0000
  C   C371      1.0  0.37838  0.50354  0.64729  1.0000
  H   H666      1.0  0.01005  0.94628  0.39500  1.0000
  C   C372      1.0  0.19996  0.93518  0.65517  1.0000
  H   H667      1.0  0.03278  0.57858  0.60796  1.0000
  H   H668      1.0  0.37608  0.50964  0.61118  1.0000
  C   C373      1.0  0.00456  0.94287  0.46689  1.0000
  H   H669      1.0  0.02346  0.64453  0.41506  1.0000
  H   H670      1.0  0.00151  0.61988  0.49815  1.0000
  C   C374      1.0  0.37022  0.52525  0.61921  1.0000
  H   H671      1.0  0.02226  0.54568  0.62832  1.0000
  C   C375      1.0  0.01000  0.94947  0.55742  1.0000
  H   H672      1.0  0.00967  0.97137  0.48387  1.0000
  H   H673      1.0  0.28492  0.53439  0.60363  1.0000
  H   H674      1.0  0.09117  0.50288  0.56544  1.0000
  H   H675      1.0  0.36558  0.86071  0.65890  1.0000
  H   H676      1.0  0.01189  0.62543  0.45691  1.0000
  C   C376      1.0  0.26445  0.52740  0.65631  1.0000
  H   H677      1.0  0.49263  0.53542  0.60327  1.0000
  N   N20       1.0  0.39005  0.52371  0.63697  1.0000
  H   H678      1.0  0.04107  0.97804  0.37425  1.0000
  H   H679      1.0  0.01209  0.56468  0.64677  1.0000
  C   C377      1.0  0.42854  0.51977  0.63355  1.0000
  C   C378      1.0  0.99699  0.57325  0.55393  1.0000
  H   H680      1.0  0.31914  0.51390  0.62697  1.0000
  H   H681      1.0  0.00137  0.62641  0.40015  1.0000
  H   H682      1.0  0.34429  0.83633  0.65127  1.0000
  H   H683      1.0  0.99856  0.93208  0.47872  1.0000
  C   C379      1.0  0.36967  0.84297  0.65437  1.0000
  H   H684      1.0  0.49274  0.53751  0.62777  1.0000
  H   H685      1.0  0.03749  0.49504  0.57010  1.0000
  C   C380      1.0  0.99785  0.64111  0.40934  1.0000
  H   H686      1.0  0.00346  0.98132  0.35978  1.0000
  H   H687      1.0  0.31984  0.51766  0.59319  1.0000
  H   H688      1.0  0.35049  0.50579  0.65075  1.0000
  H   H689      1.0  0.03405  0.98105  0.45480  1.0000
  C   C381      1.0  0.99518  0.96755  0.47137  1.0000
  H   H690      1.0  0.39901  0.54302  0.66116  1.0000
  H   H691      1.0  0.43616  0.50142  0.63265  1.0000
  H   H692      1.0  0.99593  0.50966  0.53633  1.0000
  C   C382      1.0  0.07885  0.48475  0.54048  1.0000
  H   H693      1.0  0.99624  0.97600  0.44255  1.0000
  H   H694      1.0  0.49266  0.51025  0.61709  1.0000
  H   H695      1.0  0.08759  0.48464  0.52603  1.0000
  H   H696      1.0  0.17869  0.54272  0.66277  1.0000
  Fe  Fe43      1.0  0.38982  0.62888  0.97790  1.0000
  H   H697      1.0  0.41698  0.51464  0.81105  1.0000
  H   H698      1.0  0.22604  0.92197  0.76980  1.0000
  Fe  Fe44      1.0  0.40298  0.58106  0.96231  1.0000
  S   S79       1.0  0.34983  0.57161  0.97033  1.0000
  S   S80       1.0  0.43218  0.55050  0.94974  1.0000
  Fe  Fe45      1.0  0.33191  0.60562  0.95922  1.0000
  S   S81       1.0  0.28293  0.61420  0.94265  1.0000
  S   S82       1.0  0.38433  0.61440  0.94967  1.0000
  H   H699      1.0  0.47883  0.58408  0.93725  1.0000
  Fe  Fe46      1.0  0.16124  0.63350  0.83235  1.0000
  S   S83       1.0  0.15802  0.60560  0.85310  1.0000
  S   S84       1.0  0.14197  0.66810  0.84187  1.0000
  Fe  Fe47      1.0  0.19295  0.60224  0.80362  1.0000
  S   S85       1.0  0.19283  0.57254  0.82235  1.0000
  S   S86       1.0  0.20847  0.59318  0.77483  1.0000
  Fe  Fe48      1.0  0.13891  0.58562  0.82950  1.0000
  S   S87       1.0  0.09866  0.55944  0.82970  1.0000
  Fe  Fe49      1.0  0.21195  0.59527  0.84388  1.0000
  S   S88       1.0  0.26015  0.58449  0.86041  1.0000
  S   S89       1.0  0.13800  0.61435  0.80958  1.0000
  S   S90       1.0  0.21626  0.62425  0.82438  1.0000
  Fe  Fe50      1.0  0.43427  0.53214  0.73585  1.0000
  S   S91       1.0  0.43978  0.56760  0.72596  1.0000
  Fe  Fe51      1.0  0.37144  0.52750  0.70924  1.0000
  S   S92       1.0  0.37486  0.56248  0.69839  1.0000
  Fe  Fe52      1.0  0.43277  0.55472  0.69779  1.0000
  S   S93       1.0  0.46516  0.56270  0.67270  1.0000
  Fe  Fe53      1.0  0.38208  0.57162  0.72773  1.0000
  S   S94       1.0  0.35641  0.60247  0.74108  1.0000
  S   S95       1.0  0.42948  0.51884  0.70715  1.0000
  S   S96       1.0  0.37637  0.53707  0.73901  1.0000
  Fe  Fe54      1.0  0.39150  0.92926  0.74047  1.0000
  S   S97       1.0  0.41063  0.89306  0.73749  1.0000
  C   C383      1.0  0.30950  0.65202  0.80721  1.0000
  Fe  Fe55      1.0  0.32884  0.92392  0.71411  1.0000
  S   S98       1.0  0.34501  0.88747  0.71005  1.0000
  H   H700      1.0  0.27950  0.61620  0.69033  1.0000
  Fe  Fe56      1.0  0.35488  0.88597  0.74017  1.0000
  S   S99       1.0  0.34062  0.85549  0.75629  1.0000
  Fe  Fe57      1.0  0.39964  0.89787  0.70766  1.0000
  S   S100      1.0  0.43263  0.87956  0.68581  1.0000
  S   S101      1.0  0.33596  0.92183  0.74481  1.0000
  S   S102      1.0  0.38326  0.93482  0.70998  1.0000
  Fe  Fe58      1.0  0.18767  0.81679  0.86169  1.0000
  S   S103      1.0  0.22672  0.81203  0.83923  1.0000
  S   S104      1.0  0.20229  0.80929  0.89135  1.0000
  Fe  Fe59      1.0  0.12622  0.82223  0.83420  1.0000
  S   S105      1.0  0.16141  0.81757  0.81011  1.0000
  Fe  Fe60      1.0  0.18918  0.78973  0.82647  1.0000
  S   S106      1.0  0.20718  0.75643  0.81362  1.0000
  Fe  Fe61      1.0  0.19526  0.84018  0.82518  1.0000
  S   S107      1.0  0.21592  0.87055  0.81164  1.0000
  S   S108      1.0  0.15176  0.79282  0.84961  1.0000
  S   S109      1.0  0.15836  0.84668  0.84860  1.0000
  H   H701      1.0  0.01798  0.48868  0.74994  1.0000
  Fe  Fe62      1.0  0.34129  0.84413  0.96187  1.0000
  S   S110      1.0  0.37348  0.81365  0.95328  1.0000
  S   S111      1.0  0.30021  0.86160  0.94357  1.0000
  Fe  Fe63      1.0  0.37294  0.80269  0.98271  1.0000
  H   H702      1.0  0.10732  0.51881  0.78049  1.0000
  Fe  Fe64      1.0  0.41923  0.83278  0.96075  1.0000
  C   C384      1.0  0.35053  0.72134  0.98128  1.0000
  C   C385      1.0  0.18980  0.94607  0.67134  1.0000
  S   S112      1.0  0.38709  0.86403  0.96740  1.0000
  H   H703      1.0  0.46818  0.77423  0.88114  1.0000
  C   C386      1.0  0.40350  0.51325  0.82432  1.0000
  H   H704      1.0  0.13342  0.76998  0.80770  1.0000
  H   H705      1.0  0.39299  0.50286  0.85910  1.0000
  C   C387      1.0  0.42052  0.72737  0.93380  1.0000
  C   C388      1.0  0.48547  0.51278  0.77849  1.0000
  H   H706      1.0  0.39245  0.50238  0.89094  1.0000
  H   H707      1.0  0.42516  0.95109  0.92225  1.0000
  C   C389      1.0  0.24498  0.94879  0.75438  1.0000
  H   H708      1.0  0.45820  0.77426  0.98114  1.0000
  C   C390      1.0  0.29022  0.52675  0.67005  1.0000
  C   C391      1.0  0.23231  0.82348  0.90452  1.0000
  C   C392      1.0  0.24757  0.81255  0.91989  1.0000
  C   C393      1.0  0.26958  0.82373  0.93151  1.0000
  C   C394      1.0  0.27584  0.84621  0.92814  1.0000
  C   C395      1.0  0.26084  0.85711  0.91269  1.0000
  C   C396      1.0  0.23955  0.84573  0.90078  1.0000
  H   H709      1.0  0.24194  0.79542  0.92298  1.0000
  H   H710      1.0  0.28066  0.81522  0.94345  1.0000
  H   H711      1.0  0.26544  0.87451  0.90999  1.0000
  H   H712      1.0  0.22783  0.85438  0.88907  1.0000
  S   S113      1.0  0.04353  0.51570  0.66330  1.0000
  C   C397      1.0  0.47846  0.87207  0.86715  1.0000
  H   H713      1.0  0.12205  0.61089  0.73065  1.0000
  C   C398      1.0  0.30601  0.85967  0.77174  1.0000
  C   C399      1.0  0.28996  0.84108  0.77879  1.0000
  C   C400      1.0  0.26224  0.84416  0.79108  1.0000
  C   C401      1.0  0.25069  0.86585  0.79646  1.0000
  C   C402      1.0  0.26689  0.88436  0.78950  1.0000
  C   C403      1.0  0.29441  0.88129  0.77718  1.0000
  H   H714      1.0  0.29898  0.82428  0.77479  1.0000
  H   H715      1.0  0.24994  0.82978  0.79646  1.0000
  H   H716      1.0  0.25849  0.90112  0.79391  1.0000
  H   H717      1.0  0.30709  0.89565  0.77226  1.0000
  H   H718      1.0  0.36012  0.76504  0.94950  1.0000
  C   C404      1.0  0.06789  0.74645  0.84910  1.0000
  H   H719      1.0  0.32831  0.54937  0.82873  1.0000
  C   C405      1.0  0.01594  0.50750  0.68124  1.0000
  H   H720      1.0  0.01687  0.94061  0.71295  1.0000
  H   H721      1.0  0.22352  0.93407  0.95967  1.0000
  H   H722      1.0  0.39335  0.49631  0.82526  1.0000
  H   H723      1.0  0.38168  0.52623  0.82465  1.0000
  H   H724      1.0  0.40193  0.55261  0.89790  1.0000
  H   H725      1.0  0.34435  0.68580  0.97719  1.0000
  H   H726      1.0  0.37494  0.57433  0.86417  1.0000
  S   S114      1.0  0.02881  0.96417  0.67929  1.0000
  H   H727      1.0  0.37766  0.55974  0.79939  1.0000
  H   H728      1.0  0.07607  0.89879  0.88695  1.0000
  H   H729      1.0  0.16104  0.53792  0.78174  1.0000
  C   C406      1.0  0.16245  0.69187  0.83438  1.0000
  C   C407      1.0  0.15593  0.71209  0.84375  1.0000
  C   C408      1.0  0.17046  0.73171  0.83775  1.0000
  C   C409      1.0  0.19091  0.73149  0.82210  1.0000
  C   C410      1.0  0.19805  0.71113  0.81292  1.0000
  C   C411      1.0  0.18404  0.69129  0.81911  1.0000
  H   H730      1.0  0.13951  0.71258  0.85567  1.0000
  H   H731      1.0  0.16576  0.74703  0.84527  1.0000
  H   H732      1.0  0.21407  0.71078  0.80084  1.0000
  H   H733      1.0  0.18915  0.67574  0.81179  1.0000
  C   C412      1.0  0.25137  0.59538  0.76792  1.0000
  C   C413      1.0  0.26963  0.57655  0.76049  1.0000
  C   C414      1.0  0.30198  0.57854  0.75235  1.0000
  C   C415      1.0  0.31624  0.59941  0.75157  1.0000
  C   C416      1.0  0.29814  0.61821  0.75921  1.0000
  C   C417      1.0  0.26579  0.61621  0.76743  1.0000
  H   H734      1.0  0.25843  0.56044  0.76075  1.0000
  H   H735      1.0  0.31549  0.56401  0.74637  1.0000
  H   H736      1.0  0.30893  0.63445  0.75852  1.0000
  H   H737      1.0  0.25144  0.63092  0.77277  1.0000
  C   C418      1.0  0.36892  0.57706  0.79482  1.0000
  H   H738      1.0  0.13457  0.90319  0.73490  1.0000
  C   C419      1.0  0.39695  0.69158  0.98380  1.0000
  C   C420      1.0  0.37329  0.73807  0.98532  1.0000
  S   S115      1.0  0.46171  0.83144  0.93931  1.0000
  C   C421      1.0  0.36228  0.69834  0.98028  1.0000
  H   H739      1.0  0.37982  0.78547  0.69116  1.0000
  H   H740      1.0  0.41404  0.76206  0.95789  1.0000
  C   C422      1.0  0.27699  0.60547  0.91987  1.0000
  C   C423      1.0  0.30336  0.59374  0.91015  1.0000
  C   C424      1.0  0.29761  0.58706  0.89207  1.0000
  C   C425      1.0  0.26575  0.59250  0.88339  1.0000
  C   C426      1.0  0.23947  0.60437  0.89307  1.0000
  C   C427      1.0  0.24502  0.61067  0.91126  1.0000
  H   H741      1.0  0.32808  0.58975  0.91664  1.0000
  H   H742      1.0  0.31788  0.57763  0.88478  1.0000
  H   H743      1.0  0.21471  0.60841  0.88662  1.0000
  H   H744      1.0  0.22431  0.61942  0.91877  1.0000
  H   H745      1.0  0.26889  0.93738  0.98344  1.0000
  H   H746      1.0  0.25934  0.49848  0.72163  1.0000
  H   H747      1.0  0.31935  0.59908  0.68831  1.0000
  C   C428      1.0  0.46836  0.54925  0.93515  1.0000
  H   H748      1.0  0.38168  0.53103  0.92483  1.0000
  C   C429      1.0  0.21667  0.88004  0.73876  1.0000
  H   H749      1.0  0.04558  0.93225  0.86725  1.0000
  H   H750      1.0  0.46805  0.74021  0.96171  1.0000
  C   C430      1.0  0.01709  0.89115  0.85283  1.0000
  H   H751      1.0  0.12348  0.52352  0.75776  1.0000
  N   N21       1.0  0.43123  0.89726  0.88454  1.0000
  C   C431      1.0  0.42061  0.87477  0.89138  1.0000
  H   H752      1.0  0.49198  0.51898  0.96616  1.0000
  C   C432      1.0  0.43233  0.91253  0.90085  1.0000
  C   C433      1.0  0.40568  0.90802  0.87103  1.0000
  C   C434      1.0  0.39927  0.89441  0.85363  1.0000
  C   C435      1.0  0.38528  0.87473  0.90128  1.0000
  H   H753      1.0  0.38760  0.51081  0.67590  1.0000
  H   H754      1.0  0.42483  0.68093  0.93260  1.0000
  H   H755      1.0  0.04478  0.82833  0.89998  1.0000
  C   C436      1.0  0.37149  0.90653  0.84163  1.0000
  C   C437      1.0  0.37672  0.85077  0.90618  1.0000
  H   H756      1.0  0.43688  0.55236  0.87040  1.0000
  C   C438      1.0  0.46710  0.89485  0.87625  1.0000
  H   H757      1.0  0.41976  0.86252  0.88013  1.0000
  H   H758      1.0  0.42605  0.51269  0.90435  1.0000
  H   H759      1.0  0.02126  0.90598  0.67299  1.0000
  H   H760      1.0  0.44825  0.90402  0.91188  1.0000
  H   H761      1.0  0.40610  0.91608  0.90666  1.0000
  H   H762      1.0  0.38041  0.91241  0.87770  1.0000
  H   H763      1.0  0.41461  0.92433  0.86607  1.0000
  H   H764      1.0  0.39055  0.87756  0.85697  1.0000
  H   H765      1.0  0.42313  0.89268  0.84533  1.0000
  H   H766      1.0  0.38571  0.88411  0.91428  1.0000
  H   H767      1.0  0.36406  0.88223  0.89257  1.0000
  H   H768      1.0  0.13644  0.89018  0.69275  1.0000
  H   H769      1.0  0.13415  0.91911  0.68543  1.0000
  H   H770      1.0  0.06451  0.50030  0.77000  1.0000
  H   H771      1.0  0.06662  0.91117  0.83408  1.0000
  C   C439      1.0  0.24715  0.93703  0.68508  1.0000
  H   H772      1.0  0.40101  0.72049  0.92460  1.0000
  H   H773      1.0  0.13880  0.86893  0.75212  1.0000
  H   H774      1.0  0.34651  0.90856  0.84902  1.0000
  H   H775      1.0  0.37946  0.92334  0.83736  1.0000
  H   H776      1.0  0.36764  0.89656  0.82915  1.0000
  H   H777      1.0  0.30828  0.81558  0.70564  1.0000
  H   H778      1.0  0.41063  0.72492  0.94790  1.0000
  H   H779      1.0  0.44918  0.50273  0.83917  1.0000
  C   C440      1.0  0.04611  0.58334  0.81062  1.0000
  C   C441      1.0  0.47995  0.78132  0.89344  1.0000
  C   C442      1.0  0.21335  0.94728  0.68601  1.0000
  H   H780      1.0  0.35437  0.90713  0.94557  1.0000
  H   H781      1.0  0.47212  0.93435  0.89075  1.0000
  C   C443      1.0  0.46762  0.49461  0.78469  1.0000
  H   H782      1.0  0.34885  0.55061  0.91558  1.0000
  C   C444      1.0  0.35870  0.81877  0.71876  1.0000
  C   C445      1.0  0.01687  0.54619  0.75239  1.0000
  C   C446      1.0  0.25708  0.92565  0.66908  1.0000
  H   H783      1.0  0.47050  0.90857  0.86611  1.0000
  C   C447      1.0  0.04326  0.86049  0.87148  1.0000
  C   C448      1.0  0.45572  0.78016  0.90978  1.0000
  H   H784      1.0  0.15013  0.87624  0.79306  1.0000
  H   H785      1.0  0.39242  0.53240  0.85830  1.0000
  C   C449      1.0  0.30513  0.80390  0.73316  1.0000
  C   C450      1.0  0.02070  0.57145  0.74798  1.0000
  C   C451      1.0  0.46880  0.75713  0.95534  1.0000
  H   H786      1.0  0.16390  0.95387  0.67248  1.0000
  C   C452      1.0  0.44231  0.76487  0.68728  1.0000
  H   H787      1.0  0.35008  0.83658  0.72171  1.0000
  H   H788      1.0  0.37051  0.81182  0.73163  1.0000
  H   H789      1.0  0.14190  0.55678  0.67388  1.0000
  C   C453      1.0  0.01089  0.77281  0.81717  1.0000
  C   C454      1.0  0.45289  0.53767  0.87601  1.0000
  N   N22       1.0  0.42353  0.75217  0.92989  1.0000
  H   H790      1.0  0.03767  0.84970  0.85966  1.0000
  C   C455      1.0  0.49462  0.85855  0.67483  1.0000
  C   C456      1.0  0.03542  0.92421  0.87955  1.0000
  H   H791      1.0  0.30182  0.76530  0.93713  1.0000
  C   C457      1.0  0.13295  0.90783  0.69752  1.0000
  C   C458      1.0  0.48890  0.53685  0.86666  1.0000
  H   H792      1.0  0.03577  0.51919  0.78211  1.0000
  H   H793      1.0  0.47269  0.96651  0.97878  1.0000
  H   H794      1.0  0.44760  0.91213  0.81617  1.0000
  H   H795      1.0  0.28117  0.79536  0.73039  1.0000
  C   C459      1.0  0.41331  0.83249  0.70902  1.0000
  H   H796      1.0  0.46927  0.93918  0.92428  1.0000
  H   H797      1.0  0.25361  0.84583  0.72024  1.0000
  H   H798      1.0  0.36833  0.54174  0.88425  1.0000
  H   H799      1.0  0.38269  0.75586  0.90968  1.0000
  H   H800      1.0  0.39454  0.59352  0.82538  1.0000
  H   H801      1.0  0.43238  0.55684  0.78268  1.0000
  C   C460      1.0  0.38655  0.53786  0.89567  1.0000
  C   C461      1.0  0.44647  0.93591  0.89733  1.0000
  H   H802      1.0  0.15186  0.60035  0.74801  1.0000
  H   H803      1.0  0.21831  0.87938  0.70890  1.0000
  H   H804      1.0  0.13250  0.74532  0.79380  1.0000
  H   H805      1.0  0.01786  0.78574  0.80713  1.0000
  H   H806      1.0  0.41678  0.91854  0.78663  1.0000
  H   H807      1.0  0.12468  0.58144  0.73655  1.0000
  H   H808      1.0  0.11264  0.88623  0.77989  1.0000
  C   C462      1.0  0.40173  0.58824  0.78806  1.0000
  H   H809      1.0  0.47307  0.97683  0.77699  1.0000
  H   H810      1.0  0.42457  0.76039  0.67620  1.0000
  H   H811      1.0  0.39453  0.60389  0.78024  1.0000
  H   H812      1.0  0.35958  0.93689  0.94396  1.0000
  S   S116      1.0  0.41314  0.66265  0.98416  1.0000
  H   H813      1.0  0.48971  0.75686  0.94507  1.0000
  N   N23       1.0  0.23091  0.68728  0.88599  1.0000
  C   C463      1.0  0.24688  0.66626  0.87717  1.0000
  C   C464      1.0  0.19244  0.68531  0.88749  1.0000
  C   C465      1.0  0.23637  0.70688  0.87332  1.0000
  C   C466      1.0  0.24662  0.69191  0.90438  1.0000
  C   C467      1.0  0.26038  0.67134  0.91607  1.0000
  C   C468      1.0  0.28510  0.66726  0.87126  1.0000
  C   C469      1.0  0.21901  0.73002  0.87910  1.0000
  C   C470      1.0  0.18041  0.66596  0.89960  1.0000
  C   C471      1.0  0.14153  0.66395  0.89768  1.0000
  C   C472      1.0  0.27156  0.67870  0.93499  1.0000
  C   C473      1.0  0.30261  0.64377  0.86867  1.0000
  C   C474      1.0  0.23396  0.74936  0.86860  1.0000
  H   H814      1.0  0.23195  0.66218  0.86474  1.0000
  H   H815      1.0  0.24517  0.65141  0.88622  1.0000
  H   H816      1.0  0.17945  0.70090  0.89319  1.0000
  H   H817      1.0  0.18126  0.68344  0.87364  1.0000
  H   H818      1.0  0.22704  0.70333  0.85930  1.0000
  H   H819      1.0  0.26440  0.70929  0.87188  1.0000
  H   H820      1.0  0.26894  0.70254  0.90278  1.0000
  H   H821      1.0  0.22765  0.70208  0.91286  1.0000
  H   H822      1.0  0.28325  0.66251  0.90959  1.0000
  H   H823      1.0  0.24078  0.65897  0.91795  1.0000
  H   H824      1.0  0.28627  0.67643  0.85803  1.0000
  H   H825      1.0  0.30016  0.67618  0.88144  1.0000
  H   H826      1.0  0.22255  0.73315  0.89385  1.0000
  H   H827      1.0  0.19088  0.73072  0.87623  1.0000
  H   H828      1.0  0.19315  0.64946  0.89586  1.0000
  H   H829      1.0  0.18560  0.66939  0.91416  1.0000
  H   H830      1.0  0.13493  0.65964  0.88343  1.0000
  H   H831      1.0  0.13339  0.65034  0.90681  1.0000
  H   H832      1.0  0.12699  0.67993  0.90147  1.0000
  H   H833      1.0  0.24916  0.68654  0.94259  1.0000
  H   H834      1.0  0.28220  0.66384  0.94290  1.0000
  H   H835      1.0  0.29195  0.69082  0.93389  1.0000
  H   H836      1.0  0.28797  0.63410  0.85877  1.0000
  H   H837      1.0  0.32923  0.64516  0.86351  1.0000
  H   H838      1.0  0.30421  0.63454  0.88190  1.0000
  H   H839      1.0  0.23283  0.74661  0.85366  1.0000
  H   H840      1.0  0.21886  0.76538  0.87171  1.0000
  H   H841      1.0  0.26122  0.75109  0.87264  1.0000
  H   H842      1.0  0.03430  0.93101  0.90876  1.0000
  H   H843      1.0  0.48427  0.82825  0.71843  1.0000
  H   H844      1.0  0.03422  0.95564  0.89433  1.0000
  H   H845      1.0  0.44746  0.48836  0.77633  1.0000
  H   H846      1.0  0.48481  0.79915  0.89058  1.0000
  H   H847      1.0  0.32062  0.79384  0.74347  1.0000
  C   C475      1.0  0.27937  0.54477  0.81650  1.0000
  H   H848      1.0  0.08282  0.67919  0.80401  1.0000
  S   S117      1.0  0.33651  0.62154  0.98681  1.0000
  H   H849      1.0  0.29753  0.58687  0.82197  1.0000
  H   H850      1.0  0.04151  0.89282  0.79632  1.0000
  C   C476      1.0  0.47812  0.94084  0.81352  1.0000
  C   C477      1.0  0.05870  0.56261  0.81789  1.0000
  H   H851      1.0  0.18639  0.91033  0.70400  1.0000
  H   H852      1.0  0.25369  0.95279  0.74039  1.0000
  S   S118      1.0  0.35630  0.76660  0.98818  1.0000
  H   H853      1.0  0.47456  0.74705  0.91764  1.0000
  H   H854      1.0  0.28109  0.52629  0.81872  1.0000
  S   S119      1.0  0.42121  0.82018  0.98993  1.0000
  H   H855      1.0  0.07599  0.72825  0.84956  1.0000
  H   H856      1.0  0.08416  0.50798  0.74065  1.0000
  H   H857      1.0  0.28293  0.91775  0.66801  1.0000
  C   C478      1.0  0.41023  0.51700  0.85856  1.0000
  H   H858      1.0  0.04217  0.51169  0.73142  1.0000
  C   C479      1.0  0.16132  0.91280  0.71109  1.0000
  C   C480      1.0  0.09375  0.68952  0.79304  1.0000
  H   H859      1.0  0.15734  0.93084  0.71478  1.0000
  H   H860      1.0  0.07515  0.77609  0.83250  1.0000
  C   C481      1.0  0.15607  0.87241  0.76364  1.0000
  C   C482      1.0  0.24281  0.49333  0.66823  1.0000
  H   H861      1.0  0.30766  0.54002  0.67091  1.0000
  N   N24       1.0  0.43307  0.51669  0.87523  1.0000
  N   N25       1.0  0.22073  0.56521  0.71163  1.0000
  C   C483      1.0  0.19298  0.57180  0.72540  1.0000
  C   C484      1.0  0.24367  0.54537  0.71859  1.0000
  C   C485      1.0  0.24276  0.58500  0.70940  1.0000
  C   C486      1.0  0.20581  0.56027  0.69321  1.0000
  C   C487      1.0  0.18062  0.54132  0.69254  1.0000
  C   C488      1.0  0.16762  0.59212  0.72016  1.0000
  C   C489      1.0  0.27615  0.58090  0.69785  1.0000
  C   C490      1.0  0.22664  0.52755  0.73048  1.0000
  C   C491      1.0  0.25199  0.50733  0.73445  1.0000
  C   C492      1.0  0.44881  0.75545  0.91458  1.0000
  C   C493      1.0  0.13990  0.59636  0.73477  1.0000
  C   C494      1.0  0.29578  0.60223  0.69672  1.0000
  H   H862      1.0  0.20520  0.57574  0.73862  1.0000
  H   H863      1.0  0.17683  0.55769  0.72858  1.0000
  H   H864      1.0  0.25705  0.53653  0.70702  1.0000
  H   H865      1.0  0.26476  0.55119  0.72728  1.0000
  H   H866      1.0  0.25069  0.59106  0.72304  1.0000
  H   H867      1.0  0.22775  0.59944  0.70282  1.0000
  H   H868      1.0  0.19300  0.57579  0.68702  1.0000
  H   H869      1.0  0.22671  0.55505  0.68347  1.0000
  H   H870      1.0  0.16125  0.54269  0.70357  1.0000
  H   H871      1.0  0.19548  0.52474  0.69358  1.0000
  H   H872      1.0  0.18134  0.60775  0.71884  1.0000
  H   H873      1.0  0.15418  0.58905  0.70716  1.0000
  H   H874      1.0  0.27007  0.57614  0.68370  1.0000
  H   H875      1.0  0.29389  0.56743  0.70389  1.0000
  H   H876      1.0  0.21869  0.53490  0.74384  1.0000
  H   H877      1.0  0.20358  0.52134  0.72385  1.0000
  H   H878      1.0  0.08887  0.72289  0.78192  1.0000
  H   H879      1.0  0.46928  0.76224  0.68226  1.0000
  C   C495      1.0  0.35724  0.75757  0.93591  1.0000
  H   H880      1.0  0.43993  0.74723  0.90199  1.0000
  H   H881      1.0  0.46018  0.96530  0.91222  1.0000
  H   H882      1.0  0.15874  0.77634  0.77781  1.0000
  H   H883      1.0  0.36523  0.62312  0.80797  1.0000
  H   H884      1.0  0.31182  0.65503  0.79230  1.0000
  H   H885      1.0  0.38850  0.78072  0.92225  1.0000
  H   H886      1.0  0.34039  0.61536  0.78905  1.0000
  C   C496      1.0  0.00594  0.54613  0.80766  1.0000
  H   H887      1.0  0.20450  0.90763  0.95669  1.0000
  H   H888      1.0  0.42586  0.74372  0.99203  1.0000
  H   H889      1.0  0.30470  0.92965  0.95891  1.0000
  H   H890      1.0  0.37471  0.84051  0.89370  1.0000
  S   S120      1.0  0.27571  0.93955  0.70413  1.0000
  C   C497      1.0  0.45038  0.94858  0.91516  1.0000
  H   H891      1.0  0.35242  0.57501  0.78256  1.0000
  C   C498      1.0  0.46650  0.83632  0.72869  1.0000
  S   S121      1.0  0.42231  0.95281  0.75792  1.0000
  C   C499      1.0  0.13018  0.77639  0.77896  1.0000
  H   H892      1.0  0.30542  0.62470  0.82611  1.0000
  H   H893      1.0  0.27768  0.86350  0.70565  1.0000
  H   H894      1.0  0.44203  0.85566  0.76582  1.0000
  H   H895      1.0  0.45824  0.54205  0.89045  1.0000
  C   C500      1.0  0.04073  0.84252  0.81870  1.0000
  H   H896      1.0  0.48529  0.88260  0.79188  1.0000
  C   C501      1.0  0.35316  0.59843  0.84409  1.0000
  C   C502      1.0  0.08298  0.72472  0.81189  1.0000
  C   C503      1.0  0.34246  0.61376  0.80415  1.0000
  H   H897      1.0  0.40283  0.85030  0.70996  1.0000
  H   H898      1.0  0.28495  0.66074  0.81198  1.0000
  C   C504      1.0  0.15983  0.89781  0.72848  1.0000
  H   H899      1.0  0.33130  0.65926  0.81440  1.0000
  H   H900      1.0  0.28408  0.86406  0.72998  1.0000
  H   H901      1.0  0.32093  0.89223  0.97244  1.0000
  C   C505      1.0  0.30918  0.62687  0.81128  1.0000
  C   C506      1.0  0.40812  0.73132  0.98838  1.0000
  H   H902      1.0  0.12542  0.91855  0.82506  1.0000
  H   H903      1.0  0.08317  0.55927  0.75629  1.0000
  C   C507      1.0  0.48507  0.95909  0.80230  1.0000
  C   C508      1.0  0.44315  0.94784  0.77949  1.0000
  C   C509      1.0  0.07652  0.54474  0.76475  1.0000
  H   H904      1.0  0.06119  0.59782  0.81189  1.0000
  C   C510      1.0  0.45767  0.49590  0.87610  1.0000
  H   H905      1.0  0.42653  0.88023  0.77839  1.0000
  C   C511      1.0  0.36485  0.53488  0.91279  1.0000
  H   H906      1.0  0.11940  0.88908  0.82273  1.0000
  N   N26       1.0  0.34827  0.58925  0.80967  1.0000
  H   H907      1.0  0.02903  0.58015  0.76043  1.0000
  H   H908      1.0  0.33283  0.94307  0.97413  1.0000
  H   H909      1.0  0.12213  0.68950  0.79503  1.0000
  H   H910      1.0  0.07129  0.71389  0.82228  1.0000
  H   H911      1.0  0.26481  0.54866  0.80366  1.0000
  H   H912      1.0  0.34730  0.52112  0.91098  1.0000
  H   H913      1.0  0.43168  0.79041  0.90630  1.0000
  H   H914      1.0  0.30376  0.60735  0.71054  1.0000
  C   C512      1.0  0.03856  0.54399  0.81625  1.0000
  H   H915      1.0  0.29777  0.82074  0.73889  1.0000
  H   H916      1.0  0.39682  0.84267  0.91535  1.0000
  C   C513      1.0  0.32648  0.90717  0.98068  1.0000
  C   C514      1.0  0.36895  0.58662  0.82709  1.0000
  C   C515      1.0  0.12101  0.90286  0.83271  1.0000
  H   H917      1.0  0.23593  0.87898  0.75006  1.0000
  H   H918      1.0  0.46421  0.85473  0.72604  1.0000
  C   C516      1.0  0.05387  0.86113  0.81013  1.0000
  H   H919      1.0  0.08882  0.68161  0.77971  1.0000
  S   S122      1.0  0.06755  0.82273  0.83140  1.0000
  H   H920      1.0  0.10317  0.88064  0.86335  1.0000
  H   H921      1.0  0.14314  0.56048  0.76743  1.0000
  H   H922      1.0  0.20534  0.86342  0.73888  1.0000
  H   H923      1.0  0.35156  0.85118  0.91340  1.0000
  C   C517      1.0  0.11124  0.53174  0.76986  1.0000
  H   H924      1.0  0.37488  0.56855  0.83044  1.0000
  H   H925      1.0  0.01714  0.77876  0.83100  1.0000
  C   C518      1.0  0.26461  0.86248  0.71906  1.0000
  H   H926      1.0  0.36368  0.60197  0.87295  1.0000
  C   C519      1.0  0.37489  0.59257  0.86109  1.0000
  H   H927      1.0  0.25630  0.91325  0.75210  1.0000
  H   H928      1.0  0.35279  0.61690  0.84219  1.0000
  H   H929      1.0  0.28618  0.62079  0.80437  1.0000
  H   H930      1.0  0.24848  0.89754  0.71899  1.0000
  C   C520      1.0  0.08768  0.90607  0.84380  1.0000
  C   C521      1.0  0.41973  0.70832  0.98772  1.0000
  H   H931      1.0  0.14356  0.89887  0.84181  1.0000
  H   H932      1.0  0.06551  0.55222  0.77757  1.0000
  H   H933      1.0  0.07166  0.74917  0.87853  1.0000
  N   N27       1.0  0.04979  0.53144  0.75552  1.0000
  H   H934      1.0  0.09655  0.84531  0.87238  1.0000
  H   H935      1.0  0.32671  0.59349  0.84676  1.0000
  S   S123      1.0  0.32624  0.50670  0.70003  1.0000
  H   H936      1.0  0.04807  0.52792  0.82190  1.0000
  C   C522      1.0  0.23618  0.88141  0.72046  1.0000
  C   C523      1.0  0.04170  0.51249  0.76829  1.0000
  C   C524      1.0  0.35843  0.92249  0.95358  1.0000
  H   H937      1.0  0.48717  0.89713  0.88679  1.0000
  C   C525      1.0  0.42876  0.51657  0.83989  1.0000
  H   H938      1.0  0.34459  0.81845  0.68299  1.0000
  H   H939      1.0  0.05151  0.54692  0.71719  1.0000
  H   H940      1.0  0.19762  0.92280  0.97770  1.0000
  H   H941      1.0  0.44020  0.53286  0.83738  1.0000
  C   C526      1.0  0.13673  0.54762  0.77768  1.0000
  C   C527      1.0  0.42312  0.57256  0.77543  1.0000
  H   H942      1.0  0.40187  0.59724  0.85919  1.0000
  H   H943      1.0  0.32952  0.54339  0.80454  1.0000
  H   H944      1.0  0.08298  0.85937  0.89313  1.0000
  H   H945      1.0  0.19473  0.89403  0.77162  1.0000
  H   H946      1.0  0.06902  0.75927  0.78532  1.0000
  H   H947      1.0  0.29926  0.58160  0.79826  1.0000
  C   C528      1.0  0.20342  0.92147  0.74209  1.0000
  H   H948      1.0  0.26694  0.95057  0.76386  1.0000
  H   H949      1.0  0.41388  0.83603  0.67125  1.0000
  C   C529      1.0  0.08041  0.88428  0.85430  1.0000
  C   C530      1.0  0.07455  0.84877  0.88182  1.0000
  C   C531      1.0  0.31404  0.57873  0.81122  1.0000
  H   H950      1.0  0.43918  0.75357  0.69920  1.0000
  H   H951      1.0  0.43194  0.78279  0.94439  1.0000
  C   C532      1.0  0.06276  0.52098  0.73794  1.0000
  C   C533      1.0  0.32561  0.80613  0.71551  1.0000
  C   C534      1.0  0.29332  0.50894  0.68266  1.0000
  H   H952      1.0  0.12577  0.55623  0.78998  1.0000
  H   H953      1.0  0.47781  0.83312  0.74246  1.0000
  H   H954      1.0  0.38351  0.92015  0.96091  1.0000
  C   C535      1.0  0.07720  0.71356  0.79322  1.0000
  H   H955      1.0  0.21330  0.92580  0.72840  1.0000
  H   H956      1.0  0.03401  0.89249  0.89326  1.0000
  H   H957      1.0  0.00331  0.60183  0.79728  1.0000
  H   H958      1.0  0.08136  0.86292  0.81019  1.0000
  C   C536      1.0  0.43609  0.92967  0.79077  1.0000
  H   H959      1.0  0.47658  0.49554  0.86478  1.0000
  C   C537      1.0  0.13414  0.87297  0.78095  1.0000
  H   H960      1.0  0.02058  0.85976  0.88069  1.0000
  C   C538      1.0  0.04905  0.89920  0.88174  1.0000
  C   C539      1.0  0.45349  0.92619  0.80760  1.0000
  H   H961      1.0  0.03933  0.74847  0.84993  1.0000
  C   C540      1.0  0.21666  0.91846  0.96676  1.0000
  H   H962      1.0  0.32498  0.78650  0.92582  1.0000
  H   H963      1.0  0.15565  0.90903  0.76464  1.0000
  H   H964      1.0  0.17578  0.85804  0.76499  1.0000
  H   H965      1.0  0.40744  0.56827  0.76349  1.0000
  C   C541      1.0  0.17424  0.89466  0.76098  1.0000
  N   N28       1.0  0.04729  0.88438  0.86515  1.0000
  N   N29       1.0  0.18903  0.89854  0.74222  1.0000
  H   H966      1.0  0.15721  0.88022  0.72394  1.0000
  H   H967      1.0  0.11999  0.76896  0.76639  1.0000
  H   H968      1.0  0.44049  0.86735  0.90107  1.0000
  C   C542      1.0  0.36713  0.82794  0.68675  1.0000
  C   C543      1.0  0.07441  0.53717  0.72299  1.0000
  H   H969      1.0  0.08897  0.81780  0.89649  1.0000
  C   C544      1.0  0.38884  0.82868  0.66908  1.0000
  C   C545      1.0  0.08232  0.75701  0.86616  1.0000
  C   C546      1.0  0.31561  0.55316  0.81540  1.0000
  H   H970      1.0  0.09299  0.54883  0.72822  1.0000
  H   H971      1.0  0.08125  0.87039  0.84421  1.0000
  H   H972      1.0  0.03996  0.57388  0.73718  1.0000
  H   H973      1.0  0.35285  0.90300  0.98639  1.0000
  H   H974      1.0  0.00121  0.53912  0.74138  1.0000
  C   C547      1.0  0.26918  0.49237  0.68167  1.0000
  S   S124      1.0  0.47842  0.52518  0.75652  1.0000
  C   C548      1.0  0.01329  0.58555  0.80232  1.0000
  H   H975      1.0  0.46523  0.51382  0.93065  1.0000
  C   C549      1.0  0.45337  0.71129  0.93120  1.0000
  C   C550      1.0  0.46760  0.96258  0.78546  1.0000
  H   H976      1.0  0.18236  0.93459  0.74507  1.0000
  C   C551      1.0  0.12097  0.76266  0.79573  1.0000
  H   H977      1.0  0.48673  0.90331  0.70318  1.0000
  H   H978      1.0  0.26502  0.55273  0.82812  1.0000
  N   N30       1.0  0.38497  0.81784  0.70353  1.0000
  H   H979      1.0  0.07556  0.51092  0.70233  1.0000
  H   H980      1.0  0.04923  0.71275  0.79041  1.0000
  H   H981      1.0  0.27571  0.51273  0.74115  1.0000
  H   H982      1.0  0.44526  0.68823  0.95370  1.0000
  H   H983      1.0  0.12293  0.85649  0.78294  1.0000
  H   H984      1.0  0.11112  0.72310  0.81487  1.0000
  H   H985      1.0  0.35419  0.73934  0.93781  1.0000
  H   H986      1.0  0.07509  0.77537  0.86640  1.0000
  H   H987      1.0  0.41882  0.59252  0.79940  1.0000
  H   H988      1.0  0.22348  0.96107  0.75827  1.0000
  H   H989      1.0  0.11949  0.79409  0.78017  1.0000
  C   C552      1.0  0.01147  0.49829  0.76250  1.0000
  H   H990      1.0  0.11717  0.51586  0.71184  1.0000
  H   H991      1.0  0.10701  0.91077  0.70381  1.0000
  C   C553      1.0  0.03121  0.87799  0.80219  1.0000
  C   C554      1.0  0.41010  0.51623  0.89187  1.0000
  C   C555      1.0  0.16079  0.54191  0.67450  1.0000
  N   N31       1.0  0.06889  0.74883  0.81373  1.0000
  C   C556      1.0  0.38858  0.76212  0.92354  1.0000
  H   H992      1.0  0.02005  0.73689  0.82251  1.0000
  C   C557      1.0  0.23360  0.92479  0.75547  1.0000
  H   H993      1.0  0.44657  0.70340  0.99057  1.0000
  H   H994      1.0  0.43423  0.80834  0.73011  1.0000
  H   H995      1.0  0.07308  0.78137  0.80094  1.0000
  H   H996      1.0  0.20524  0.95620  0.69822  1.0000
  C   C558      1.0  0.08130  0.76339  0.79849  1.0000
  H   H997      1.0  0.43367  0.83262  0.69845  1.0000
  H   H998      1.0  0.10987  0.75573  0.83225  1.0000
  H   H999      1.0  0.44595  0.58098  0.77039  1.0000
  C   C559      1.0  0.08133  0.75769  0.83158  1.0000
  H   H1000     1.0  0.41482  0.83426  0.73882  1.0000
  C   C560      1.0  0.32358  0.76808  0.92773  1.0000
  C   C561      1.0  0.26643  0.92021  0.98912  1.0000
  H   H1001     1.0  0.42867  0.94645  0.88843  1.0000
  C   C562      1.0  0.24892  0.90583  0.97469  1.0000
  H   H1002     1.0  0.47722  0.92769  0.74091  1.0000
  H   H1003     1.0  0.39748  0.78385  0.71342  1.0000
  H   H1004     1.0  0.48056  0.88131  0.74976  1.0000
  H   H1005     1.0  0.09642  0.53569  0.69579  1.0000
  H   H1006     1.0  0.07353  0.93810  0.89733  1.0000
  C   C563      1.0  0.04502  0.93800  0.89604  1.0000
  H   H1007     1.0  0.48888  0.52955  0.85286  1.0000
  H   H1008     1.0  0.02125  0.74476  0.79927  1.0000
  H   H1009     1.0  0.47628  0.71738  0.93805  1.0000
  H   H1010     1.0  0.46401  0.87576  0.95571  1.0000
  C   C564      1.0  0.43100  0.82674  0.72762  1.0000
  C   C565      1.0  0.02999  0.74962  0.81304  1.0000
  H   H1011     1.0  0.32346  0.72619  0.97908  1.0000
  C   C566      1.0  0.39782  0.79366  0.70043  1.0000
  H   H1012     1.0  0.43955  0.79999  0.68059  1.0000
  C   C567      1.0  0.99961  0.52436  0.69220  1.0000
  H   H1013     1.0  0.33192  0.78898  0.71019  1.0000
  H   H1014     1.0  0.31817  0.76037  0.91439  1.0000
  C   C568      1.0  0.48369  0.85555  0.93337  1.0000
  C   C569      1.0  0.44811  0.68777  0.93866  1.0000
  C   C570      1.0  0.00490  0.84031  0.81832  1.0000
  H   H1015     1.0  0.35657  0.84540  0.68969  1.0000
  H   H1016     1.0  0.47094  0.67623  0.93542  1.0000
  H   H1017     1.0  0.23977  0.49533  0.74367  1.0000
  C   C571      1.0  0.43318  0.76433  0.94691  1.0000
  H   H1018     1.0  0.46842  0.78806  0.92140  1.0000
  H   H1019     1.0  0.24077  0.89005  0.98098  1.0000
  H   H1020     1.0  0.11091  0.75422  0.86657  1.0000
  C   C572      1.0  0.48705  0.56796  0.93147  1.0000
  H   H1021     1.0  0.48069  0.79043  0.96455  1.0000
  H   H1022     1.0  0.44147  0.85498  0.79037  1.0000
  H   H1023     1.0  0.48551  0.57108  0.85578  1.0000
  H   H1024     1.0  0.09148  0.91983  0.85347  1.0000
  C   C573      1.0  0.47844  0.87567  0.68558  1.0000
  C   C574      1.0  0.48033  0.87513  0.94375  1.0000
  H   H1025     1.0  0.01919  0.88141  0.84000  1.0000
  H   H1026     1.0  0.47353  0.49619  0.88876  1.0000
  C   C575      1.0  0.43500  0.78944  0.69269  1.0000
  H   H1027     1.0  0.99569  0.48994  0.79015  1.0000
  H   H1028     1.0  0.14653  0.52648  0.67318  1.0000
  C   C576      1.0  0.44596  0.86567  0.77825  1.0000
  H   H1029     1.0  0.05760  0.81495  0.87868  1.0000
  C   C577      1.0  0.06575  0.82609  0.88973  1.0000
  C   C578      1.0  0.47819  0.77332  0.97031  1.0000
  H   H1030     1.0  0.45446  0.79324  0.70310  1.0000
  H   H1031     1.0  0.45919  0.86680  0.85723  1.0000
  C   C579      1.0  0.47946  0.52837  0.92768  1.0000
  H   H1032     1.0  0.42525  0.49818  0.66473  1.0000
  C   C580      1.0  0.09201  0.52408  0.70733  1.0000
  C   C581      1.0  0.32878  0.92711  0.96705  1.0000
  H   H1033     1.0  0.48218  0.85867  0.87773  1.0000
  H   H1034     1.0  0.26640  0.90130  0.96318  1.0000
  S   S125      1.0  0.41385  0.59595  0.98973  1.0000
  S   S126      1.0  0.33714  0.83279  0.99112  1.0000
  H   H1035     1.0  0.45927  0.70960  0.91642  1.0000
  H   H1036     1.0  0.00017  0.54629  0.76476  1.0000
  H   H1037     1.0  0.00401  0.54178  0.68950  1.0000
  C   C582      1.0  0.01034  0.48503  0.68510  1.0000
  C   C583      1.0  0.39677  0.49811  0.66573  1.0000
  H   H1038     1.0  0.47206  0.90461  0.76437  1.0000
  H   H1039     1.0  0.01738  0.90894  0.84834  1.0000
  H   H1040     1.0  0.47897  0.84766  0.66714  1.0000
  H   H1041     1.0  0.29563  0.67114  0.99506  1.0000
  H   H1042     1.0  0.48599  0.55512  0.98177  1.0000
  C   C584      1.0  0.00315  0.89778  0.66385  1.0000
  C   C585      1.0  0.48955  0.88926  0.76243  1.0000
  C   C586      1.0  0.48259  0.87353  0.77885  1.0000
  H   H1043     1.0  0.00684  0.92554  0.87843  1.0000
  H   H1044     1.0  0.49486  0.96227  0.72696  1.0000
  H   H1045     1.0  0.39299  0.58624  0.66470  1.0000
  C   C587      1.0  0.99527  0.87606  0.80217  1.0000
  N   N32       1.0  0.30096  0.91061  0.99614  1.0000
  H   H1046     1.0  0.28872  0.87571  0.99436  1.0000
  H   H1047     1.0  0.47811  0.65070  0.66335  1.0000
  H   H1048     1.0  0.39357  0.81144  0.66360  1.0000
  Fe  Fe65      1.0  0.79400  0.33734  0.13754  1.0000
  S   S127      1.0  0.75096  0.32995  0.15641  1.0000
  S   S128      1.0  0.78164  0.34465  0.10757  1.0000
  Fe  Fe66      1.0  0.84836  0.33517  0.16867  1.0000
  S   S129      1.0  0.80800  0.32755  0.18943  1.0000
  S   S130      1.0  0.90261  0.33421  0.18108  1.0000
  Fe  Fe67      1.0  0.78900  0.30389  0.16859  1.0000
  S   S131      1.0  0.77062  0.27030  0.17754  1.0000
  Fe  Fe68      1.0  0.77436  0.35411  0.17513  1.0000
  S   S132      1.0  0.74209  0.38269  0.18773  1.0000
  S   S133      1.0  0.83115  0.30954  0.14854  1.0000
  S   S134      1.0  0.81556  0.36347  0.15564  1.0000
  Fe  Fe69      1.0  0.53886  0.34580  0.02788  1.0000
  S   S135      1.0  0.58195  0.36832  0.03183  1.0000
  H   H1049     1.0  0.97802  0.39654  0.27742  1.0000
  Fe  Fe70      1.0  0.58725  0.30634  0.01393  1.0000
  H   H1050     1.0  0.90611  0.37952  0.16529  1.0000
  Fe  Fe71      1.0  0.61137  0.33769  0.04382  1.0000
  S   S136      1.0  0.63275  0.33475  0.07293  1.0000
  S   S137      1.0  0.56648  0.31585  0.04155  1.0000
  Fe  Fe72      1.0  0.60192  0.39074  0.25859  1.0000
  S   S138      1.0  0.61920  0.42484  0.25211  1.0000
  S   S139      1.0  0.62874  0.35998  0.24560  1.0000
  Fe  Fe73      1.0  0.54822  0.40935  0.28565  1.0000
  S   S140      1.0  0.56297  0.44496  0.28083  1.0000
  C   C588      1.0  0.87886  0.44527  0.27426  1.0000
  Fe  Fe74      1.0  0.56258  0.43551  0.25106  1.0000
  S   S141      1.0  0.54446  0.45790  0.22695  1.0000
  Fe  Fe75      1.0  0.61860  0.43062  0.28236  1.0000
  S   S142      1.0  0.66564  0.44820  0.29344  1.0000
  S   S143      1.0  0.54511  0.40082  0.25584  1.0000
  S   S144      1.0  0.60371  0.39570  0.28895  1.0000
  Fe  Fe76      1.0  0.54212  0.06260  0.27969  1.0000
  C   C589      1.0  0.54080  0.21743  0.02026  1.0000
  Fe  Fe77      1.0  0.58227  0.07014  0.24449  1.0000
  S   S145      1.0  0.59059  0.09278  0.22028  1.0000
  S   S146      1.0  0.52671  0.06432  0.25021  1.0000
  S   S147      1.0  0.59670  0.07219  0.27415  1.0000
  Fe  Fe78      1.0  0.54877  0.09093  0.03471  1.0000
  S   S148      1.0  0.59140  0.07196  0.01947  1.0000
  H   H1051     1.0  0.78076  0.42080  0.12176  1.0000
  Fe  Fe79      1.0  0.55884  0.13453  0.01220  1.0000
  C   C590      1.0  0.65805  0.37000  0.13940  1.0000
  Fe  Fe80      1.0  0.62036  0.10285  0.02228  1.0000
  S   S149      1.0  0.67561  0.10251  0.03260  1.0000
  H   H1052     1.0  0.98873  0.42779  0.24797  1.0000
  S   S150      1.0  0.57951  0.12100  0.03903  1.0000
  Fe  Fe81      1.0  0.74052  0.11235  0.13555  1.0000
  S   S151      1.0  0.73465  0.14419  0.15191  1.0000
  S   S152      1.0  0.69353  0.10419  0.11896  1.0000
  Fe  Fe82      1.0  0.81196  0.09868  0.15214  1.0000
  S   S153      1.0  0.81129  0.12960  0.16920  1.0000
  S   S154      1.0  0.85518  0.07089  0.15445  1.0000
  Fe  Fe83      1.0  0.75624  0.12306  0.17521  1.0000
  S   S155      1.0  0.73910  0.12589  0.20454  1.0000
  Fe  Fe84      1.0  0.78987  0.14796  0.14441  1.0000
  S   S156      1.0  0.80943  0.18062  0.13409  1.0000
  S   S157      1.0  0.75783  0.09081  0.15975  1.0000
  S   S158      1.0  0.79473  0.11744  0.12643  1.0000
  C   C591      1.0  0.91410  0.05480  0.17265  1.0000
  C   C592      1.0  0.89283  0.07396  0.16767  1.0000
  H   H1053     1.0  0.90672  0.03834  0.16876  1.0000
  H   H1054     1.0  0.76264  0.01393  0.19991  1.0000
  C   C593      1.0  0.68112  0.10212  0.05660  1.0000
  C   C594      1.0  0.65332  0.09902  0.06823  1.0000
  C   C595      1.0  0.65773  0.09968  0.08724  1.0000
  C   C596      1.0  0.69001  0.10330  0.09490  1.0000
  C   C597      1.0  0.71808  0.10604  0.08332  1.0000
  C   C598      1.0  0.71362  0.10541  0.06422  1.0000
  H   H1055     1.0  0.62839  0.09589  0.06262  1.0000
  H   H1056     1.0  0.63597  0.09728  0.09607  1.0000
  H   H1057     1.0  0.74316  0.10860  0.08907  1.0000
  H   H1058     1.0  0.73539  0.10752  0.05533  1.0000
  Fe  Fe85      1.0  0.60035  0.35623  0.00402  1.0000
  H   H1059     1.0  0.55552  0.03562  0.11140  1.0000
  H   H1060     1.0  0.54651  0.37789  0.18547  1.0000
  H   H1061     1.0  0.63851  0.17891  0.02438  1.0000
  H   H1062     1.0  0.50719  0.10670  0.08575  1.0000
  C   C599      1.0  0.63160  0.10251  0.21622  1.0000
  C   C600      1.0  0.65308  0.10801  0.23058  1.0000
  C   C601      1.0  0.68554  0.11607  0.22684  1.0000
  C   C602      1.0  0.69719  0.11770  0.20880  1.0000
  C   C603      1.0  0.67572  0.11217  0.19446  1.0000
  C   C604      1.0  0.64274  0.10500  0.19817  1.0000
  H   H1063     1.0  0.64443  0.10640  0.24452  1.0000
  H   H1064     1.0  0.70195  0.12061  0.23795  1.0000
  H   H1065     1.0  0.68444  0.11351  0.18051  1.0000
  H   H1066     1.0  0.62607  0.10095  0.18701  1.0000
  H   H1067     1.0  0.55046  0.10759  0.09478  1.0000
  H   H1068     1.0  0.50070  0.39517  0.00532  1.0000
  H   H1069     1.0  0.92973  0.16755  0.13141  1.0000
  S   S159      1.0  0.63370  0.32712  0.01660  1.0000
  C   C605      1.0  0.58345  0.24227  0.00873  1.0000
  H   H1070     1.0  0.88573  0.20915  0.20498  1.0000
  H   H1071     1.0  0.77770  0.32895  0.23555  1.0000
  C   C606      1.0  0.94472  0.05678  0.18273  1.0000
  H   H1072     1.0  0.97179  0.47809  0.21740  1.0000
  H   H1073     1.0  0.67058  0.25085  0.04972  1.0000
  C   C607      1.0  0.50690  0.45592  0.21338  1.0000
  C   C608      1.0  0.70171  0.44062  0.30805  1.0000
  C   C609      1.0  0.73143  0.45287  0.30683  1.0000
  H   H1074     1.0  0.59409  0.39135  0.08136  1.0000
  S   S160      1.0  0.53872  0.17204  0.01283  1.0000
  C   C610      1.0  0.55805  0.19851  0.01205  1.0000
  H   H1075     1.0  0.86976  0.42201  0.25289  1.0000
  C   C611      1.0  0.90513  0.16000  0.13476  1.0000
  C   C612      1.0  0.65101  0.04355  0.18883  1.0000
  C   C613      1.0  0.52888  0.06996  0.14763  1.0000
  C   C614      1.0  0.52811  0.44652  0.14546  1.0000
  H   H1076     1.0  0.51024  0.03402  0.08099  1.0000
  H   H1077     1.0  0.52065  0.35002  0.29656  1.0000
  C   C615      1.0  0.99407  0.40679  0.12404  1.0000
  H   H1078     1.0  0.96888  0.05473  0.31301  1.0000
  H   H1079     1.0  0.52557  0.01199  0.04827  1.0000
  S   S161      1.0  0.50799  0.40327  0.30756  1.0000
  C   C616      1.0  0.78234  0.24548  0.16549  1.0000
  C   C617      1.0  0.80399  0.24556  0.15026  1.0000
  C   C618      1.0  0.81215  0.22553  0.14073  1.0000
  C   C619      1.0  0.79861  0.20538  0.14630  1.0000
  C   C620      1.0  0.77687  0.20530  0.16147  1.0000
  C   C621      1.0  0.76897  0.22527  0.17111  1.0000
  H   H1080     1.0  0.81453  0.26100  0.14586  1.0000
  H   H1081     1.0  0.82903  0.22567  0.12900  1.0000
  H   H1082     1.0  0.76613  0.18986  0.16577  1.0000
  H   H1083     1.0  0.75220  0.22509  0.18288  1.0000
  C   C622      1.0  0.74061  0.34104  0.09769  1.0000
  C   C623      1.0  0.71414  0.33215  0.10775  1.0000
  C   C624      1.0  0.68164  0.32984  0.09974  1.0000
  C   C625      1.0  0.67514  0.33637  0.08154  1.0000
  C   C626      1.0  0.70169  0.34497  0.07132  1.0000
  C   C627      1.0  0.73429  0.34729  0.07938  1.0000
  H   H1084     1.0  0.71860  0.32726  0.12178  1.0000
  H   H1085     1.0  0.66122  0.32324  0.10776  1.0000
  H   H1086     1.0  0.69700  0.35011  0.05729  1.0000
  H   H1087     1.0  0.75464  0.35409  0.07142  1.0000
  C   C628      1.0  0.70929  0.37524  0.20258  1.0000
  C   C629      1.0  0.70899  0.35360  0.21009  1.0000
  C   C630      1.0  0.68359  0.34877  0.22295  1.0000
  C   C631      1.0  0.65844  0.36551  0.22822  1.0000
  C   C632      1.0  0.65792  0.38669  0.21991  1.0000
  C   C633      1.0  0.68339  0.39162  0.20729  1.0000
  H   H1088     1.0  0.72880  0.34079  0.20636  1.0000
  H   H1089     1.0  0.68392  0.33221  0.22913  1.0000
  H   H1090     1.0  0.63801  0.39940  0.22321  1.0000
  H   H1091     1.0  0.68330  0.40831  0.20139  1.0000
  H   H1092     1.0  0.78531  0.17991  0.21824  1.0000
  H   H1093     1.0  0.84768  0.18516  0.21621  1.0000
  C   C634      1.0  0.53957  0.41260  0.17389  1.0000
  H   H1094     1.0  0.96053  0.04191  0.18671  1.0000
  H   H1095     1.0  0.63756  0.98741  0.31563  1.0000
  C   C635      1.0  0.95342  0.39186  0.17581  1.0000
  C   C636      1.0  0.92828  0.37600  0.17407  1.0000
  C   C637      1.0  0.93231  0.35540  0.18339  1.0000
  H   H1096     1.0  0.95026  0.40761  0.16837  1.0000
  H   H1097     1.0  0.62290  0.10781  0.30767  1.0000
  H   H1098     1.0  0.57575  0.03355  0.04232  1.0000
  N   N33       1.0  0.67795  0.18033  0.05617  1.0000
  C   C638      1.0  0.66113  0.20344  0.05198  1.0000
  C   C639      1.0  0.65547  0.16741  0.06880  1.0000
  C   C640      1.0  0.71154  0.18367  0.06600  1.0000
  C   C641      1.0  0.68654  0.16723  0.03907  1.0000
  C   C642      1.0  0.65611  0.16368  0.02599  1.0000
  C   C643      1.0  0.67997  0.21770  0.03779  1.0000
  C   C644      1.0  0.73055  0.16226  0.07452  1.0000
  C   C645      1.0  0.61571  0.17071  0.06628  1.0000
  C   C646      1.0  0.59714  0.15465  0.07863  1.0000
  C   C647      1.0  0.75991  0.44834  0.31868  1.0000
  C   C648      1.0  0.58616  0.44057  0.99923  1.0000
  C   C649      1.0  0.76358  0.16791  0.08435  1.0000
  H   H1099     1.0  0.65771  0.21322  0.06482  1.0000
  H   H1100     1.0  0.63460  0.20263  0.04651  1.0000
  H   H1101     1.0  0.66289  0.14903  0.06801  1.0000
  H   H1102     1.0  0.65991  0.17208  0.08326  1.0000
  H   H1103     1.0  0.70715  0.19611  0.07714  1.0000
  H   H1104     1.0  0.73052  0.19086  0.05667  1.0000
  H   H1105     1.0  0.70705  0.17524  0.03125  1.0000
  H   H1106     1.0  0.69796  0.15008  0.04249  1.0000
  H   H1107     1.0  0.50821  0.38634  0.09506  1.0000
  H   H1108     1.0  0.64108  0.14986  0.03126  1.0000
  H   H1109     1.0  0.70775  0.21850  0.04089  1.0000
  H   H1110     1.0  0.53303  0.47870  0.13199  1.0000
  H   H1111     1.0  0.73806  0.14986  0.06382  1.0000
  H   H1112     1.0  0.71423  0.15416  0.08471  1.0000
  H   H1113     1.0  0.60636  0.18805  0.07017  1.0000
  H   H1114     1.0  0.60769  0.16792  0.05205  1.0000
  H   H1115     1.0  0.60507  0.13692  0.07532  1.0000
  H   H1116     1.0  0.60306  0.15762  0.09320  1.0000
  H   H1117     1.0  0.56879  0.15731  0.07655  1.0000
  C   C650      1.0  0.53739  0.01051  0.03449  1.0000
  C   C651      1.0  0.66915  0.15714  0.00697  1.0000
  H   H1118     1.0  0.56395  0.03161  0.13539  1.0000
  H   H1119     1.0  0.94166  0.01414  0.30497  1.0000
  C   C652      1.0  0.60889  0.98793  0.31529  1.0000
  H   H1120     1.0  0.67755  0.21045  0.02398  1.0000
  H   H1121     1.0  0.78190  0.17511  0.07466  1.0000
  H   H1122     1.0  0.75772  0.18003  0.09554  1.0000
  H   H1123     1.0  0.77633  0.15234  0.09045  1.0000
  H   H1124     1.0  0.97680  0.43757  0.32552  1.0000
  H   H1125     1.0  0.73239  0.46604  0.29664  1.0000
  C   C653      1.0  0.54449  0.39556  0.18999  1.0000
  N   N34       1.0  0.69912  0.25529  0.12751  1.0000
  C   C654      1.0  0.70950  0.23093  0.12349  1.0000
  C   C655      1.0  0.72923  0.26959  0.12402  1.0000
  C   C656      1.0  0.68981  0.25680  0.14751  1.0000
  C   C657      1.0  0.66781  0.26387  0.11665  1.0000
  C   C658      1.0  0.67177  0.26473  0.09568  1.0000
  C   C659      1.0  0.68345  0.21351  0.12906  1.0000
  C   C660      1.0  0.68453  0.28078  0.15564  1.0000
  C   C661      1.0  0.75450  0.26220  0.10838  1.0000
  C   C662      1.0  0.77959  0.28018  0.10424  1.0000
  C   C663      1.0  0.63729  0.27203  0.08655  1.0000
  C   C664      1.0  0.69618  0.18987  0.12311  1.0000
  C   C665      1.0  0.67497  0.27964  0.17585  1.0000
  H   H1126     1.0  0.73410  0.22586  0.13076  1.0000
  H   H1127     1.0  0.71518  0.22843  0.10881  1.0000
  H   H1128     1.0  0.71976  0.28738  0.12156  1.0000
  H   H1129     1.0  0.74596  0.26994  0.13634  1.0000
  H   H1130     1.0  0.71015  0.24746  0.15587  1.0000
  H   H1131     1.0  0.66543  0.24858  0.15023  1.0000
  H   H1132     1.0  0.64523  0.25413  0.12002  1.0000
  H   H1133     1.0  0.65986  0.28142  0.12053  1.0000
  H   H1134     1.0  0.68078  0.24815  0.09007  1.0000
  H   H1135     1.0  0.69012  0.27744  0.09183  1.0000
  H   H1136     1.0  0.68057  0.21283  0.14412  1.0000
  H   H1137     1.0  0.65776  0.21754  0.12278  1.0000
  H   H1138     1.0  0.66344  0.29091  0.14862  1.0000
  H   H1139     1.0  0.70839  0.28988  0.15461  1.0000
  H   H1140     1.0  0.77015  0.24666  0.11244  1.0000
  H   H1141     1.0  0.74098  0.25861  0.09557  1.0000
  H   H1142     1.0  0.79313  0.28500  0.11682  1.0000
  H   H1143     1.0  0.79924  0.27368  0.09426  1.0000
  H   H1144     1.0  0.76557  0.29531  0.09822  1.0000
  H   H1145     1.0  0.61831  0.25915  0.08866  1.0000
  H   H1146     1.0  0.62656  0.28836  0.09207  1.0000
  H   H1147     1.0  0.69639  0.18872  0.10806  1.0000
  H   H1148     1.0  0.72268  0.18546  0.12838  1.0000
  H   H1149     1.0  0.67876  0.17740  0.12854  1.0000
  H   H1150     1.0  0.67324  0.29679  0.18171  1.0000
  H   H1151     1.0  0.64966  0.27229  0.17761  1.0000
  H   H1152     1.0  0.69497  0.26928  0.18361  1.0000
  C   C666      1.0  0.66272  0.36633  0.16018  1.0000
  C   C667      1.0  0.65062  0.34360  0.16617  1.0000
  H   H1153     1.0  0.69011  0.36656  0.16422  1.0000
  H   H1154     1.0  0.64695  0.37936  0.16777  1.0000
  H   H1155     1.0  0.65387  0.34160  0.18117  1.0000
  H   H1156     1.0  0.62295  0.34232  0.16274  1.0000
  H   H1157     1.0  0.66642  0.32985  0.15943  1.0000
  H   H1158     1.0  0.64358  0.02715  0.19430  1.0000
  C   C668      1.0  0.57690  0.39951  0.20098  1.0000
  H   H1159     1.0  0.52322  0.08785  0.15149  1.0000
  H   H1160     1.0  0.56500  0.41412  0.16714  1.0000
  H   H1161     1.0  0.54490  0.00547  0.19989  1.0000
  H   H1162     1.0  0.52455  0.35355  0.12484  1.0000
  H   H1163     1.0  0.66374  0.35608  0.29344  1.0000
  C   C669      1.0  0.50879  0.03907  0.12844  1.0000
  H   H1164     1.0  0.57577  0.41697  0.20626  1.0000
  H   H1165     1.0  0.57891  0.38774  0.21282  1.0000
  H   H1166     1.0  0.60036  0.39650  0.19245  1.0000
  H   H1167     1.0  0.85334  0.45444  0.27191  1.0000
  H   H1168     1.0  0.50424  0.06988  0.10279  1.0000
  C   C670      1.0  0.53474  0.34278  0.30866  1.0000
  N   N35       1.0  0.94383  0.40861  0.24394  1.0000
  C   C671      1.0  0.92032  0.40358  0.22828  1.0000
  C   C672      1.0  0.96975  0.42452  0.23717  1.0000
  C   C673      1.0  0.52272  0.11243  0.09734  1.0000
  C   C674      1.0  0.92464  0.41802  0.26044  1.0000
  H   H1169     1.0  0.54658  0.05389  0.19299  1.0000
  C   C675      1.0  0.89644  0.38411  0.23146  1.0000
  N   N36       1.0  0.51224  0.40841  0.15980  1.0000
  C   C676      1.0  0.95511  0.44811  0.23077  1.0000
  C   C677      1.0  0.89064  0.43275  0.25699  1.0000
  C   C678      1.0  0.86709  0.38487  0.21749  1.0000
  H   H1170     1.0  0.80864  0.15436  0.21103  1.0000
  H   H1171     1.0  0.93590  0.39914  0.21590  1.0000
  H   H1172     1.0  0.90381  0.41865  0.22413  1.0000
  H   H1173     1.0  0.56505  0.37024  0.15755  1.0000
  H   H1174     1.0  0.94121  0.11358  0.18607  1.0000
  H   H1175     1.0  0.52422  0.36774  0.06580  1.0000
  H   H1176     1.0  0.94587  0.37424  0.25398  1.0000
  H   H1177     1.0  0.91737  0.40420  0.26969  1.0000
  H   H1178     1.0  0.94208  0.42797  0.26878  1.0000
  H   H1179     1.0  0.96481  0.33520  0.20191  1.0000
  H   H1180     1.0  0.70495  0.03310  0.18778  1.0000
  H   H1181     1.0  0.91156  0.36771  0.22984  1.0000
  H   H1182     1.0  0.88512  0.38467  0.24535  1.0000
  H   H1183     1.0  0.53781  0.99268  0.03048  1.0000
  C   C679      1.0  0.74706  0.02207  0.32957  1.0000
  H   H1184     1.0  0.93404  0.44719  0.22068  1.0000
  C   C680      1.0  0.91384  0.16667  0.21520  1.0000
  H   H1185     1.0  0.90830  0.06851  0.31747  1.0000
  C   C681      1.0  0.98587  0.00821  0.28692  1.0000
  C   C682      1.0  0.51084  0.10217  0.11525  1.0000
  H   H1186     1.0  0.85214  0.36981  0.21913  1.0000
  H   H1187     1.0  0.84937  0.40011  0.21938  1.0000
  H   H1188     1.0  0.87754  0.38484  0.20339  1.0000
  H   H1189     1.0  0.82326  0.20284  0.20043  1.0000
  N   N37       1.0  0.74311  0.38634  0.26654  1.0000
  C   C683      1.0  0.75422  0.36372  0.25855  1.0000
  C   C684      1.0  0.71127  0.38388  0.27804  1.0000
  C   C685      1.0  0.73292  0.40200  0.25084  1.0000
  C   C686      1.0  0.77118  0.39645  0.27747  1.0000
  C   C687      1.0  0.78225  0.36379  0.24346  1.0000
  C   C688      1.0  0.71733  0.42573  0.25602  1.0000
  C   C689      1.0  0.71554  0.36801  0.29485  1.0000
  H   H1190     1.0  0.68015  0.40766  0.16702  1.0000
  C   C690      1.0  0.71335  0.44115  0.23930  1.0000
  H   H1191     1.0  0.73153  0.35604  0.25243  1.0000
  H   H1192     1.0  0.70152  0.40035  0.28370  1.0000
  H   H1193     1.0  0.68993  0.37819  0.26936  1.0000
  H   H1194     1.0  0.71386  0.39428  0.24195  1.0000
  H   H1195     1.0  0.75563  0.40472  0.24205  1.0000
  H   H1196     1.0  0.78709  0.40686  0.26855  1.0000
  H   H1197     1.0  0.75939  0.40846  0.28767  1.0000
  H   H1198     1.0  0.77058  0.37027  0.23043  1.0000
  H   H1199     1.0  0.80321  0.37463  0.24717  1.0000
  H   H1200     1.0  0.73359  0.43380  0.26617  1.0000
  H   H1201     1.0  0.69120  0.42459  0.26178  1.0000
  C   C691      1.0  0.57478  0.01661  0.03627  1.0000
  H   H1202     1.0  0.53290  0.02875  0.00856  1.0000
  H   H1203     1.0  0.83407  0.40522  0.29298  1.0000
  C   C692      1.0  0.96438  0.00327  0.30198  1.0000
  H   H1204     1.0  0.80423  0.40095  0.31140  1.0000
  H   H1205     1.0  0.78262  0.45774  0.31732  1.0000
  N   N38       1.0  0.72982  0.04826  0.22197  1.0000
  C   C693      1.0  0.75349  0.05884  0.20854  1.0000
  C   C694      1.0  0.69329  0.04926  0.21457  1.0000
  C   C695      1.0  0.72976  0.06192  0.23926  1.0000
  C   C696      1.0  0.74221  0.02445  0.22690  1.0000
  C   C697      1.0  0.74638  0.00765  0.21098  1.0000
  C   C698      1.0  0.79157  0.06013  0.21468  1.0000
  C   C699      1.0  0.70208  0.05680  0.25375  1.0000
  C   C700      1.0  0.68856  0.04713  0.19364  1.0000
  H   H1206     1.0  0.85394  0.26056  0.18041  1.0000
  C   C701      1.0  0.51787  0.00418  0.19678  1.0000
  C   C702      1.0  0.81300  0.07025  0.19962  1.0000
  C   C703      1.0  0.70358  0.07255  0.27001  1.0000
  H   H1207     1.0  0.74308  0.07629  0.20523  1.0000
  H   H1208     1.0  0.75424  0.05002  0.19530  1.0000
  H   H1209     1.0  0.67817  0.03644  0.22149  1.0000
  H   H1210     1.0  0.67963  0.06575  0.21780  1.0000
  H   H1211     1.0  0.72641  0.08015  0.23588  1.0000
  H   H1212     1.0  0.75511  0.05954  0.24637  1.0000
  H   H1213     1.0  0.76711  0.02413  0.23447  1.0000
  H   H1214     1.0  0.72395  0.01713  0.23660  1.0000
  H   H1215     1.0  0.58775  0.01632  0.02277  1.0000
  H   H1216     1.0  0.69629  0.43394  0.22903  1.0000
  H   H1217     1.0  0.79333  0.07102  0.22678  1.0000
  H   H1218     1.0  0.80366  0.04316  0.21792  1.0000
  H   H1219     1.0  0.70641  0.03934  0.25899  1.0000
  H   H1220     1.0  0.67548  0.05900  0.24817  1.0000
  H   H1221     1.0  0.69550  0.06289  0.18676  1.0000
  H   H1222     1.0  0.59716  0.45094  0.01000  1.0000
  H   H1223     1.0  0.88337  0.17028  0.12835  1.0000
  C   C704      1.0  0.89834  0.18220  0.16419  1.0000
  C   C705      1.0  0.55360  0.23904  0.01885  1.0000
  H   H1224     1.0  0.88533  0.22842  0.16609  1.0000
  C   C706      1.0  0.89310  0.20702  0.19048  1.0000
  H   H1225     1.0  0.59901  0.11278  0.32851  1.0000
  H   H1226     1.0  0.81272  0.05988  0.18711  1.0000
  H   H1227     1.0  0.80271  0.08766  0.19632  1.0000
  H   H1228     1.0  0.84022  0.07083  0.20417  1.0000
  H   H1229     1.0  0.68246  0.06925  0.27964  1.0000
  H   H1230     1.0  0.72863  0.06966  0.27728  1.0000
  H   H1231     1.0  0.70005  0.09039  0.26550  1.0000
  C   C707      1.0  0.60093  0.22332  0.00070  1.0000
  S   S162      1.0  0.66121  0.01710  0.28501  1.0000
  H   H1232     1.0  0.73889  0.44360  0.23306  1.0000
  H   H1233     1.0  0.55651  0.06878  0.14342  1.0000
  H   H1234     1.0  0.54508  0.07254  0.11264  1.0000
  H   H1235     1.0  0.52168  0.36078  0.15796  1.0000
  H   H1236     1.0  0.83762  0.17868  0.17484  1.0000
  H   H1237     1.0  0.89763  0.45772  0.27799  1.0000
  H   H1238     1.0  0.98505  0.10559  0.15148  1.0000
  H   H1239     1.0  0.67126  0.47898  0.32700  1.0000
  H   H1240     1.0  0.52789  0.99933  0.11027  1.0000
  H   H1241     1.0  0.55985  0.33864  0.13677  1.0000
  H   H1242     1.0  0.57594  0.06415  0.17638  1.0000
  C   C708      1.0  0.62697  0.38844  0.10536  1.0000
  S   S163      1.0  0.50680  0.00541  0.23439  1.0000
  H   H1243     1.0  0.66173  0.44519  0.17852  1.0000
  H   H1244     1.0  0.89337  0.25368  0.19285  1.0000
  H   H1245     1.0  0.94132  0.15101  0.23834  1.0000
  H   H1246     1.0  0.53954  0.08209  0.18422  1.0000
  C   C709      1.0  0.94398  0.15190  0.22327  1.0000
  H   H1247     1.0  0.57164  0.99594  0.11869  1.0000
  H   H1248     1.0  0.63341  0.05717  0.19459  1.0000
  H   H1249     1.0  0.67872  0.05343  0.31020  1.0000
  H   H1250     1.0  0.91433  0.18349  0.22146  1.0000
  Fe  Fe86      1.0  0.61109  0.03500  0.27236  1.0000
  H   H1251     1.0  0.51714  0.21536  0.02768  1.0000
  H   H1252     1.0  0.64106  0.27440  0.07167  1.0000
  C   C710      1.0  0.51247  0.46732  0.13539  1.0000
  H   H1253     1.0  0.87641  0.14997  0.15810  1.0000
  S   S164      1.0  0.59989  0.03362  0.24192  1.0000
  H   H1254     1.0  0.94300  0.17257  0.19056  1.0000
  C   C711      1.0  0.69667  0.03914  0.31260  1.0000
  C   C712      1.0  0.96477  0.46062  0.30333  1.0000
  H   H1255     1.0  0.71844  0.98670  0.29715  1.0000
  H   H1256     1.0  0.92062  0.21123  0.18989  1.0000
  H   H1257     1.0  0.87849  0.19250  0.15618  1.0000
  H   H1258     1.0  0.66771  0.38005  0.30813  1.0000
  H   H1259     1.0  0.88985  0.15885  0.21921  1.0000
  C   C713      1.0  0.95469  0.07804  0.18753  1.0000
  H   H1260     1.0  0.90581  0.14286  0.12889  1.0000
  H   H1261     1.0  0.81103  0.33284  0.25236  1.0000
  H   H1262     1.0  0.72232  0.37223  0.12899  1.0000
  H   H1263     1.0  0.73137  0.40271  0.10814  1.0000
  C   C714      1.0  0.79802  0.34002  0.23992  1.0000
  H   H1264     1.0  0.54726  0.43789  0.13626  1.0000
  C   C715      1.0  0.66502  0.39099  0.11103  1.0000
  H   H1265     1.0  0.53525  0.03810  0.16303  1.0000
  H   H1266     1.0  0.66951  0.35478  0.13241  1.0000
  C   C716      1.0  0.54556  0.02856  0.12425  1.0000
  C   C717      1.0  0.90037  0.15852  0.15541  1.0000
  H   H1267     1.0  0.62217  0.06684  0.31204  1.0000
  H   H1268     1.0  0.92280  0.14787  0.16072  1.0000
  H   H1269     1.0  0.54852  0.40156  0.13781  1.0000
  H   H1270     1.0  0.52555  0.10942  0.12648  1.0000
  C   C718      1.0  0.49802  0.37463  0.06797  1.0000
  H   H1271     1.0  0.78241  0.39107  0.12628  1.0000
  N   N39       1.0  0.67249  0.39075  0.13131  1.0000
  C   C719      1.0  0.96139  0.35110  0.19470  1.0000
  H   H1272     1.0  0.76370  0.35162  0.26925  1.0000
  H   H1273     1.0  0.62975  0.37019  0.13712  1.0000
  H   H1274     1.0  0.58446  0.03475  0.31586  1.0000
  C   C720      1.0  0.98263  0.38741  0.18699  1.0000
  C   C721      1.0  0.98633  0.36702  0.19658  1.0000
  H   H1275     1.0  0.71896  0.38968  0.14812  1.0000
  H   H1276     1.0  0.53993  0.25327  0.02525  1.0000
  C   C722      1.0  0.50006  0.47150  0.19909  1.0000
  H   H1277     1.0  0.62091  0.37057  0.10687  1.0000
  H   H1278     1.0  0.72776  0.35130  0.29134  1.0000
  C   C723      1.0  0.52670  0.39375  0.14455  1.0000
  H   H1279     1.0  0.67463  0.25094  0.02527  1.0000
  H   H1280     1.0  0.53602  0.99503  0.13439  1.0000
  H   H1281     1.0  0.89319  0.44543  0.24609  1.0000
  C   C724      1.0  0.71129  0.38900  0.13358  1.0000
  C   C725      1.0  0.71941  0.00178  0.30517  1.0000
  H   H1282     1.0  0.68104  0.37737  0.10410  1.0000
  C   C726      1.0  0.49968  0.43078  0.15138  1.0000
  H   H1283     1.0  0.81750  0.34041  0.22889  1.0000
  C   C727      1.0  0.68066  0.36398  0.30342  1.0000
  C   C728      1.0  0.66415  0.24188  0.03712  1.0000
  H   H1284     1.0  0.51470  0.04305  0.02764  1.0000
  C   C729      1.0  0.96379  0.38688  0.24938  1.0000
  Fe  Fe87      1.0  0.54453  0.02780  0.24868  1.0000
  H   H1285     1.0  0.62387  0.41316  0.08317  1.0000
  C   C730      1.0  0.74551  0.00291  0.31869  1.0000
  H   H1286     1.0  0.69625  0.42926  0.15328  1.0000
  H   H1287     1.0  0.73118  0.37584  0.30544  1.0000
  C   C731      1.0  0.82013  0.39246  0.30056  1.0000
  C   C732      1.0  0.87200  0.22533  0.17919  1.0000
  H   H1288     1.0  0.76407  0.98876  0.32089  1.0000
  C   C733      1.0  0.67246  0.42098  0.15699  1.0000
  H   H1289     1.0  0.83943  0.38043  0.30723  1.0000
  H   H1290     1.0  0.76932  0.41081  0.14409  1.0000
  H   H1291     1.0  0.91488  0.15021  0.18976  1.0000
  C   C734      1.0  0.79736  0.37990  0.28768  1.0000
  H   H1292     1.0  0.67271  0.40692  0.10470  1.0000
  C   C735      1.0  0.65534  0.41182  0.13963  1.0000
  H   H1293     1.0  0.85230  0.24587  0.20187  1.0000
  C   C736      1.0  0.76804  0.40739  0.12924  1.0000
  H   H1294     1.0  0.68449  0.35255  0.31539  1.0000
  C   C737      1.0  0.54058  0.36964  0.14978  1.0000
  C   C738      1.0  0.72230  0.04014  0.32630  1.0000
  S   S165      1.0  0.55684  0.02543  0.27896  1.0000
  C   C739      1.0  0.73066  0.40685  0.12289  1.0000
  H   H1295     1.0  0.84604  0.21991  0.17597  1.0000
  H   H1296     1.0  0.65408  0.42602  0.12962  1.0000
  H   H1297     1.0  0.78424  0.17187  0.19467  1.0000
  H   H1298     1.0  0.97962  0.02293  0.27852  1.0000
  H   H1299     1.0  0.81467  0.37069  0.27784  1.0000
  H   H1300     1.0  0.57293  0.42676  0.00589  1.0000
  H   H1301     1.0  0.62787  0.40920  0.14285  1.0000
  C   C740      1.0  0.91652  0.16786  0.19417  1.0000
  H   H1302     1.0  0.54204  0.45256  0.15749  1.0000
  C   C741      1.0  0.58848  0.20164  0.00239  1.0000
  H   H1303     1.0  0.71772  0.42390  0.12440  1.0000
  H   H1304     1.0  0.98516  0.41663  0.22578  1.0000
  H   H1305     1.0  0.72062  0.00431  0.20549  1.0000
  C   C742      1.0  0.60360  0.10098  0.31699  1.0000
  S   S166      1.0  0.52384  0.10561  0.00917  1.0000
  C   C743      1.0  0.97452  0.46720  0.28570  1.0000
  C   C744      1.0  0.54857  0.35560  0.13275  1.0000
  H   H1306     1.0  0.51922  0.13105  0.09795  1.0000
  S   S167      1.0  0.51212  0.07770  0.30419  1.0000
  C   C745      1.0  0.69449  0.01981  0.30202  1.0000
  H   H1307     1.0  0.96005  0.48105  0.27895  1.0000
  C   C746      1.0  0.64823  0.43837  0.16663  1.0000
  H   H1308     1.0  0.85567  0.15655  0.18869  1.0000
  N   N40       1.0  0.50591  0.06399  0.13202  1.0000
  H   H1309     1.0  0.98512  0.35484  0.27651  1.0000
  H   H1310     1.0  0.64030  0.45253  0.15725  1.0000
  C   C747      1.0  0.90256  0.09515  0.17279  1.0000
  C   C748      1.0  0.54844  0.06459  0.18059  1.0000
  C   C749      1.0  0.86778  0.24767  0.18928  1.0000
  H   H1311     1.0  0.63910  0.38507  0.07640  1.0000
  C   C750      1.0  0.85403  0.17518  0.18715  1.0000
  H   H1312     1.0  0.51014  0.42402  0.00211  1.0000
  H   H1313     1.0  0.88656  0.10998  0.16896  1.0000
  H   H1314     1.0  0.99311  0.45226  0.20933  1.0000
  H   H1315     1.0  0.92340  0.18970  0.16151  1.0000
  C   C751      1.0  0.80084  0.17200  0.20700  1.0000
  N   N41       1.0  0.88983  0.18315  0.18433  1.0000
  H   H1316     1.0  0.60878  0.39906  0.11383  1.0000
  H   H1317     1.0  0.62494  0.43051  0.17172  1.0000
  H   H1318     1.0  0.53316  0.42899  0.18077  1.0000
  H   H1319     1.0  0.78453  0.36726  0.29586  1.0000
  C   C752      1.0  0.62074  0.39497  0.08536  1.0000
  H   H1320     1.0  0.64776  0.04367  0.17378  1.0000
  C   C753      1.0  0.83259  0.18519  0.20342  1.0000
  H   H1321     1.0  0.68357  0.17079  0.00087  1.0000
  C   C754      1.0  0.93348  0.09715  0.18249  1.0000
  S   S168      1.0  0.53072  0.07031  0.05886  1.0000
  C   C755      1.0  0.52609  0.05583  0.16538  1.0000
  H   H1322     1.0  0.58915  0.00436  0.04546  1.0000
  H   H1323     1.0  0.70139  0.45780  0.24344  1.0000
  C   C756      1.0  0.70100  0.42372  0.32137  1.0000
  H   H1324     1.0  0.50709  0.39263  0.13354  1.0000
  C   C757      1.0  0.98398  0.44284  0.31197  1.0000
  H   H1325     1.0  0.97056  0.40128  0.13093  1.0000
  H   H1326     1.0  0.78988  0.98726  0.22270  1.0000
  H   H1327     1.0  0.87656  0.43341  0.28589  1.0000
  H   H1328     1.0  0.94554  0.45802  0.24272  1.0000
  H   H1329     1.0  0.64691  0.15438  0.99797  1.0000
  C   C758      1.0  0.54516  0.00315  0.12177  1.0000
  C   C759      1.0  0.51659  0.02636  0.02085  1.0000
  C   C760      1.0  0.50970  0.33853  0.32420  1.0000
  H   H1330     1.0  0.63565  0.24231  0.03564  1.0000
  H   H1331     1.0  0.50725  0.29043  0.02793  1.0000
  H   H1332     1.0  0.94422  0.13451  0.21787  1.0000
  H   H1333     1.0  0.57913  0.09988  0.30929  1.0000
  H   H1334     1.0  0.52214  0.39771  0.19946  1.0000
  H   H1335     1.0  0.56730  0.36369  0.12386  1.0000
  H   H1336     1.0  0.59973  0.99384  0.30163  1.0000
  C   C761      1.0  0.51697  0.07618  0.11511  1.0000
  H   H1337     1.0  0.97791  0.37941  0.23738  1.0000
  H   H1338     1.0  0.96900  0.15898  0.22003  1.0000
  C   C762      1.0  0.92849  0.07422  0.32676  1.0000
  C   C763      1.0  0.99013  0.38844  0.26522  1.0000
  H   H1339     1.0  0.62829  0.02835  0.32104  1.0000
  H   H1340     1.0  0.67818  0.41447  0.32283  1.0000
  H   H1341     1.0  0.68618  0.14139  0.00759  1.0000
  C   C764      1.0  0.95926  0.05679  0.32718  1.0000
  S   S169      1.0  0.59848  0.26959  0.00433  1.0000
  C   C765      1.0  0.61711  0.07779  0.32400  1.0000
  C   C766      1.0  0.98294  0.46119  0.22165  1.0000
  H   H1342     1.0  0.93651  0.09069  0.32175  1.0000
  C   C767      1.0  0.76342  0.98511  0.21750  1.0000
  S   S170      1.0  0.99381  0.08209  0.19917  1.0000
  S   S171      1.0  0.92921  0.47547  0.31422  1.0000
  C   C768      1.0  0.60199  0.02824  0.32702  1.0000
  S   S172      1.0  0.55552  0.33480  0.99959  1.0000
  H   H1343     1.0  0.55335  0.35498  0.31312  1.0000
  H   H1344     1.0  0.54944  0.32692  0.30473  1.0000
  C   C769      1.0  0.50743  0.99997  0.17873  1.0000
  H   H1345     1.0  0.52673  0.99811  0.16815  1.0000
  H   H1346     1.0  0.56592  0.06873  0.32923  1.0000
  H   H1347     1.0  0.98664  0.42198  0.11567  1.0000
  H   H1348     1.0  0.50016  0.46240  0.12249  1.0000
  H   H1349     1.0  0.49957  0.46126  0.07890  1.0000
  H   H1350     1.0  0.49898  0.06205  0.00067  1.0000
  H   H1351     1.0  0.49917  0.05624  0.17045  1.0000
  H   H1352     1.0  0.49793  0.02969  0.14005  1.0000
  H   H1353     1.0  0.53062  0.98435  0.00198  1.0000
  H   H1354     1.0  0.49771  0.35509  0.32854  1.0000
  H   H1355     1.0  0.54096  0.46276  0.99659  1.0000
  S   S173      1.0  0.86424  0.44164  0.38463  1.0000
  S   S174      1.0  0.89595  0.42862  0.34475  1.0000
  Fe  Fe88      1.0  0.84418  0.44194  0.35554  1.0000
  S   S175      1.0  0.79326  0.42590  0.34833  1.0000
  Fe  Fe89      1.0  0.91683  0.43196  0.37326  1.0000
  S   S176      1.0  0.96160  0.40830  0.38332  1.0000
  C   C770      1.0  0.94897  0.38720  0.43591  1.0000
  S   S177      1.0  0.92981  0.05653  0.38572  1.0000
  H   H1356     1.0  0.84245  0.44507  0.44863  1.0000
  C   C771      1.0  0.90218  0.18261  0.44136  1.0000
  C   C772      1.0  0.63304  0.04320  0.35353  1.0000
  C   C773      1.0  0.93978  0.06435  0.40828  1.0000
  C   C774      1.0  0.91861  0.05979  0.42309  1.0000
  C   C775      1.0  0.92703  0.06704  0.44070  1.0000
  H   H1357     1.0  0.89540  0.05112  0.42090  1.0000
  H   H1358     1.0  0.91022  0.06379  0.45203  1.0000
  C   C776      1.0  0.94234  0.39701  0.41856  1.0000
  C   C777      1.0  0.96872  0.39717  0.40559  1.0000
  H   H1359     1.0  0.92543  0.01470  0.55445  1.0000
  H   H1360     1.0  0.98142  0.46468  0.55678  1.0000
  H   H1361     1.0  0.98652  0.00226  0.49563  1.0000
  S   S178      1.0  0.87907  0.02578  0.34878  1.0000
  S   S179      1.0  0.77784  0.02423  0.34788  1.0000
  Fe  Fe90      1.0  0.87723  0.47759  0.37984  1.0000
  H   H1362     1.0  0.92823  0.47680  0.64719  1.0000
  H   H1363     1.0  0.94947  0.04067  0.33181  1.0000
  H   H1364     1.0  0.86302  0.21066  0.43975  1.0000
  H   H1365     1.0  0.50903  0.30527  0.36013  1.0000
  C   C778      1.0  0.51948  0.26955  0.35939  1.0000
  C   C779      1.0  0.98200  0.37753  0.44043  1.0000
  C   C780      1.0  0.95481  0.01115  0.45903  1.0000
  H   H1366     1.0  0.88819  0.99462  0.46023  1.0000
  C   C781      1.0  0.50832  0.02791  0.35972  1.0000
  C   C782      1.0  0.92464  0.19375  0.45580  1.0000
  Fe  Fe91      1.0  0.90718  0.46473  0.34158  1.0000
  Fe  Fe92      1.0  0.90442  0.99097  0.35020  1.0000
  H   H1367     1.0  0.77138  0.46548  0.36632  1.0000
  N   N42       1.0  0.99348  0.00764  0.45688  1.0000
  H   H1368     1.0  0.90192  0.43049  0.44056  1.0000
  H   H1369     1.0  0.96363  0.03009  0.55527  1.0000
  H   H1370     1.0  0.90041  0.44760  0.42018  1.0000
  C   C783      1.0  0.50975  0.29191  0.34971  1.0000
  N   N43       1.0  0.94201  0.46994  0.44530  1.0000
  H   H1371     1.0  0.91954  0.11803  0.48854  1.0000
  S   S180      1.0  0.84587  0.01598  0.38924  1.0000
  C   C784      1.0  0.93260  0.00193  0.44352  1.0000
  H   H1372     1.0  0.87875  0.99932  0.43642  1.0000
  H   H1373     1.0  0.88424  0.17146  0.44814  1.0000
  H   H1374     1.0  0.65503  0.00871  0.34988  1.0000
  H   H1375     1.0  0.94706  0.48377  0.62557  1.0000
  H   H1376     1.0  0.53239  0.03536  0.33415  1.0000
  H   H1377     1.0  0.91168  0.16879  0.48443  1.0000
  C   C785      1.0  0.95735  0.07806  0.44377  1.0000
  C   C786      1.0  0.95205  0.47326  0.42550  1.0000
  H   H1378     1.0  0.95833  0.45670  0.41887  1.0000
  H   H1379     1.0  0.94917  0.44451  0.46650  1.0000
  H   H1380     1.0  0.84067  0.46238  0.42819  1.0000
  H   H1381     1.0  0.52431  0.05897  0.34885  1.0000
  C   C787      1.0  0.99113  0.18159  0.43733  1.0000
  N   N44       1.0  0.59915  0.04361  0.34334  1.0000
  H   H1382     1.0  0.94742  0.02944  0.46028  1.0000
  C   C788      1.0  0.97690  0.21604  0.50604  1.0000
  H   H1383     1.0  0.94600  0.00367  0.47194  1.0000
  H   H1384     1.0  0.78941  0.43252  0.38840  1.0000
  H   H1385     1.0  0.96261  0.22396  0.51770  1.0000
  H   H1386     1.0  0.62860  0.01240  0.37018  1.0000
  H   H1387     1.0  0.91667  0.40387  0.41503  1.0000
  H   H1388     1.0  0.92836  0.38687  0.44580  1.0000
  S   S181      1.0  0.93083  0.46767  0.36950  1.0000
  C   C789      1.0  0.89415  0.00492  0.44809  1.0000
  C   C790      1.0  0.64750  0.02021  0.36126  1.0000
  C   C791      1.0  0.97848  0.08260  0.42897  1.0000
  H   H1389     1.0  0.76520  0.43026  0.40914  1.0000
  C   C792      1.0  0.53359  0.04091  0.34853  1.0000
  C   C793      1.0  0.90379  0.46659  0.44588  1.0000
  H   H1390     1.0  0.88626  0.02287  0.45070  1.0000
  H   H1391     1.0  0.97440  0.99218  0.56887  1.0000
  H   H1392     1.0  0.93719  0.20802  0.44930  1.0000
  H   H1393     1.0  0.97537  0.06781  0.35346  1.0000
  H   H1394     1.0  0.71777  0.47077  0.35015  1.0000
  C   C794      1.0  0.95205  0.01547  0.54905  1.0000
  H   H1395     1.0  0.54501  0.27029  0.36614  1.0000
  H   H1396     1.0  0.73162  0.46545  0.40273  1.0000
  H   H1397     1.0  0.91576  0.13715  0.50765  1.0000
  N   N45       1.0  0.95111  0.17819  0.46545  1.0000
  C   C795      1.0  0.75978  0.47520  0.37784  1.0000
  H   H1398     1.0  0.84445  0.43215  0.42648  1.0000
  S   S182      1.0  0.98958  0.36547  0.46239  1.0000
  H   H1399     1.0  0.86391  0.19193  0.42056  1.0000
  C   C796      1.0  0.96938  0.07610  0.41131  1.0000
  H   H1400     1.0  0.72807  0.40647  0.34376  1.0000
  C   C797      1.0  0.77560  0.44231  0.39930  1.0000
  H   H1401     1.0  0.97080  0.03078  0.49133  1.0000
  C   C798      1.0  0.97193  0.19190  0.47806  1.0000
  H   H1402     1.0  0.91804  0.17239  0.43152  1.0000
  Fe  Fe93      1.0  0.89515  0.02864  0.37818  1.0000
  C   C799      1.0  0.97386  0.99388  0.55384  1.0000
  H   H1403     1.0  0.89518  0.46331  0.46003  1.0000
  H   H1404     1.0  0.96326  0.15260  0.44500  1.0000
  C   C800      1.0  0.68008  0.02274  0.37259  1.0000
  C   C801      1.0  0.72930  0.41937  0.33337  1.0000
  H   H1405     1.0  0.60356  0.99635  0.34333  1.0000
  H   H1406     1.0  0.52505  0.33141  0.33581  1.0000
  Fe  Fe94      1.0  0.83131  0.01025  0.35944  1.0000
  C   C802      1.0  0.85237  0.44665  0.43451  1.0000
  H   H1407     1.0  0.94121  0.19042  0.50334  1.0000
  H   H1408     1.0  0.91935  0.14982  0.46622  1.0000
  H   H1409     1.0  0.65387  0.04858  0.34450  1.0000
  C   C803      1.0  0.93261  0.16072  0.47585  1.0000
  H   H1410     1.0  0.93131  0.21530  0.48965  1.0000
  C   C804      1.0  0.88023  0.20033  0.43051  1.0000
  C   C805      1.0  0.99091  0.47885  0.56458  1.0000
  H   H1411     1.0  0.70039  0.03009  0.36421  1.0000
  H   H1412     1.0  0.53059  0.29473  0.33976  1.0000
  C   C806      1.0  0.89172  0.44674  0.43454  1.0000
  C   C807      1.0  0.93412  0.12800  0.49825  1.0000
  H   H1413     1.0  0.98816  0.22950  0.49786  1.0000
  H   H1414     1.0  0.63105  0.05546  0.36494  1.0000
  H   H1415     1.0  0.93628  0.01112  0.43052  1.0000
  S   S183      1.0  0.92275  0.99461  0.37890  1.0000
  H   H1416     1.0  0.79406  0.45248  0.40659  1.0000
  H   H1417     1.0  0.57516  0.02044  0.36166  1.0000
  S   S184      1.0  0.96868  0.08523  0.46626  1.0000
  H   H1418     1.0  0.64178  0.08016  0.33112  1.0000
  H   H1419     1.0  0.58667  0.07898  0.34878  1.0000
  H   H1420     1.0  0.95639  0.47164  0.58684  1.0000
  H   H1421     1.0  0.72316  0.05517  0.33439  1.0000
  H   H1422     1.0  0.95790  0.43446  0.44428  1.0000
  H   H1423     1.0  0.52123  0.25553  0.34948  1.0000
  C   C808      1.0  0.74608  0.45747  0.39119  1.0000
  H   H1424     1.0  0.72886  0.44642  0.38390  1.0000
  C   C809      1.0  0.75885  0.43178  0.33229  1.0000
  H   H1425     1.0  0.89697  0.21149  0.42285  1.0000
  C   C810      1.0  0.95237  0.20312  0.49439  1.0000
  C   C811      1.0  0.95573  0.14444  0.48798  1.0000
  S   S185      1.0  0.85437  0.47826  0.35131  1.0000
  C   C812      1.0  0.96093  0.44915  0.45327  1.0000
  H   H1426     1.0  0.90611  0.20169  0.46577  1.0000
  H   H1427     1.0  0.69051  0.00597  0.37756  1.0000
  C   C813      1.0  0.59064  0.06754  0.33690  1.0000
  H   H1428     1.0  0.95087  0.01811  0.53404  1.0000
  H   H1429     1.0  0.67427  0.03363  0.38456  1.0000
  H   H1430     1.0  0.50821  0.03336  0.37416  1.0000
  C   C814      1.0  0.57092  0.03785  0.35636  1.0000
  H   H1431     1.0  0.57149  0.04852  0.36875  1.0000
  H   H1432     1.0  0.50007  0.26613  0.37001  1.0000
  H   H1433     1.0  0.51536  0.00955  0.35905  1.0000
  H   H1434     1.0  0.99426  0.18145  0.48373  1.0000
  H   H1435     1.0  0.95142  0.11613  0.50639  1.0000
  C   C815      1.0  0.98415  0.47430  0.58477  1.0000
  H   H1436     1.0  0.97018  0.15356  0.49828  1.0000
  C   C816      1.0  0.70586  0.48208  0.36078  1.0000
  H   H1437     1.0  0.64440  0.47065  0.34567  1.0000
  H   H1438     1.0  0.92979  0.48112  0.41753  1.0000
  H   H1439     1.0  0.97448  0.13439  0.47942  1.0000
  H   H1440     1.0  0.95168  0.47593  0.48382  1.0000
  H   H1441     1.0  0.91708  0.07627  0.34060  1.0000
  H   H1442     1.0  0.97092  0.18822  0.42762  1.0000
  H   H1443     1.0  0.99133  0.03654  0.43884  1.0000
  C   C817      1.0  0.98802  0.06417  0.34007  1.0000
  H   H1444     1.0  0.98550  0.08013  0.39995  1.0000
  C   C818      1.0  0.97567  0.16640  0.45209  1.0000
  C   C819      1.0  0.59362  0.00333  0.33020  1.0000
  H   H1445     1.0  0.99012  0.01756  0.34351  1.0000
  H   H1446     1.0  0.98357  0.20563  0.47039  1.0000
  H   H1447     1.0  0.88875  0.48222  0.44124  1.0000
  H   H1448     1.0  0.69208  0.47073  0.36991  1.0000
  H   H1449     1.0  0.98981  0.03227  0.36427  1.0000
  H   H1450     1.0  0.99236  0.01047  0.42728  1.0000
  H   H1451     1.0  0.99358  0.43153  0.51804  1.0000
  H   H1452     1.0  0.78179  0.48297  0.38459  1.0000
  C   C820      1.0  0.99432  0.01900  0.49144  1.0000
  H   H1453     1.0  0.56523  0.00204  0.33021  1.0000
  C   C821      1.0  0.67175  0.03587  0.95261  1.0000
  H   H1454     1.0  0.55796  0.47231  0.92902  1.0000
  H   H1455     1.0  0.60296  0.30565  0.94963  1.0000
  S   S186      1.0  0.60804  0.45848  0.85493  1.0000
  C   C822      1.0  0.59375  0.44063  0.79495  1.0000
  H   H1456     1.0  0.53062  0.20681  0.97153  1.0000
  Fe  Fe95      1.0  0.59999  0.45991  0.88573  1.0000
  S   S187      1.0  0.59334  0.42869  0.90429  1.0000
  H   H1457     1.0  0.54495  0.43885  0.80941  1.0000
  H   H1458     1.0  0.64145  0.00617  0.91793  1.0000
  H   H1459     1.0  0.83060  0.02887  0.75732  1.0000
  S   S188      1.0  0.61934  0.38349  0.98420  1.0000
  H   H1460     1.0  0.56322  0.39213  0.92309  1.0000
  H   H1461     1.0  0.59861  0.98760  0.95060  1.0000
  H   H1462     1.0  0.50885  0.30773  0.95826  1.0000
  H   H1463     1.0  0.66156  0.47331  0.80112  1.0000
  S   S189      1.0  0.58155  0.01509  0.89374  1.0000
  C   C823      1.0  0.98861  0.47958  0.69971  1.0000
  C   C824      1.0  0.57173  0.43098  0.80996  1.0000
  C   C825      1.0  0.82161  0.98669  0.77118  1.0000
  H   H1464     1.0  0.79042  0.04380  0.72170  1.0000
  C   C826      1.0  0.81854  0.04585  0.72307  1.0000
  S   S190      1.0  0.55494  0.05924  0.97322  1.0000
  C   C827      1.0  0.57331  0.02716  0.91588  1.0000
  C   C828      1.0  0.58745  0.04762  0.92025  1.0000
  C   C829      1.0  0.58213  0.05772  0.93756  1.0000
  C   C830      1.0  0.56235  0.04758  0.95087  1.0000
  C   C831      1.0  0.54806  0.02717  0.94647  1.0000
  C   C832      1.0  0.55346  0.01705  0.92918  1.0000
  C   C833      1.0  0.68153  0.48327  0.77492  1.0000
  H   H1465     1.0  0.59320  0.07343  0.94053  1.0000
  H   H1466     1.0  0.53266  0.01908  0.95652  1.0000
  H   H1467     1.0  0.54216  0.00143  0.92612  1.0000
  H   H1468     1.0  0.98225  0.47121  0.77275  1.0000
  H   H1469     1.0  0.51450  0.28404  0.94398  1.0000
  H   H1470     1.0  0.80947  0.01924  0.78449  1.0000
  H   H1471     1.0  0.56376  0.32361  0.94957  1.0000
  C   C834      1.0  0.57459  0.30609  0.94742  1.0000
  H   H1472     1.0  0.66531  0.04499  0.93963  1.0000
  H   H1473     1.0  0.86557  0.02659  0.72942  1.0000
  H   H1474     1.0  0.60265  0.05579  0.91014  1.0000
  H   H1475     1.0  0.50284  0.24302  0.98412  1.0000
  Fe  Fe96      1.0  0.56003  0.48187  0.85242  1.0000
  H   H1476     1.0  0.56072  0.44959  0.94558  1.0000
  H   H1477     1.0  0.68891  0.00957  0.88606  1.0000
  C   C835      1.0  0.83774  0.02362  0.72871  1.0000
  H   H1478     1.0  0.67730  0.48115  0.76012  1.0000
  S   S191      1.0  0.51540  0.47659  0.83278  1.0000
  H   H1479     1.0  0.90940  0.48104  0.81076  1.0000
  H   H1480     1.0  0.58139  0.43679  0.78182  1.0000
  H   H1481     1.0  0.56896  0.21991  0.96411  1.0000
  C   C836      1.0  0.56067  0.45492  0.98734  1.0000
  N   N46       1.0  0.61731  0.47768  0.78294  1.0000
  N   N47       1.0  0.84049  0.99298  0.75409  1.0000
  H   H1482     1.0  0.88901  0.47275  0.83161  1.0000
  C   C837      1.0  0.87833  0.99441  0.75896  1.0000
  H   H1483     1.0  0.71103  0.99506  0.96236  1.0000
  H   H1484     1.0  0.58290  0.43384  0.82360  1.0000
  C   C838      1.0  0.60080  0.41669  0.92671  1.0000
  C   C839      1.0  0.62480  0.42457  0.93898  1.0000
  C   C840      1.0  0.63006  0.41419  0.95634  1.0000
  C   C841      1.0  0.61116  0.39595  0.96197  1.0000
  C   C842      1.0  0.58674  0.38832  0.94981  1.0000
  C   C843      1.0  0.58184  0.39849  0.93235  1.0000
  H   H1485     1.0  0.63993  0.43833  0.93495  1.0000
  H   H1486     1.0  0.64931  0.42019  0.96541  1.0000
  H   H1487     1.0  0.57198  0.37435  0.95375  1.0000
  H   H1488     1.0  0.65003  0.99459  0.88542  1.0000
  H   H1489     1.0  0.94933  0.98463  0.76295  1.0000
  H   H1490     1.0  0.82839  0.05145  0.70968  1.0000
  C   C844      1.0  0.80807  0.99319  0.80469  1.0000
  H   H1491     1.0  0.72467  0.00197  0.94004  1.0000
  H   H1492     1.0  0.56145  0.45806  0.75224  1.0000
  H   H1493     1.0  0.61974  0.43164  0.79552  1.0000
  H   H1494     1.0  0.60169  0.18751  0.99561  1.0000
  H   H1495     1.0  0.85105  0.00616  0.79078  1.0000
  H   H1496     1.0  0.61000  0.47883  0.93873  1.0000
  H   H1497     1.0  0.54781  0.44346  0.97805  1.0000
  C   C845      1.0  0.56916  0.47384  0.75856  1.0000
  H   H1498     1.0  0.70023  0.03355  0.95371  1.0000
  H   H1499     1.0  0.68189  0.01742  0.91981  1.0000
  C   C846      1.0  0.55879  0.29000  0.96086  1.0000
  C   C847      1.0  0.51916  0.28983  0.95810  1.0000
  C   C848      1.0  0.51373  0.45293  0.93017  1.0000
  C   C849      1.0  0.54212  0.21649  0.96031  1.0000
  H   H1500     1.0  0.57174  0.27303  0.95875  1.0000
  C   C850      1.0  0.51720  0.25293  0.97413  1.0000
  H   H1501     1.0  0.54312  0.20600  0.94786  1.0000
  H   H1502     1.0  0.62391  0.22551  0.99273  1.0000
  H   H1503     1.0  0.67097  0.06751  0.96718  1.0000
  H   H1504     1.0  0.59789  0.48060  0.98520  1.0000
  H   H1505     1.0  0.79651  0.46606  0.82731  1.0000
  H   H1506     1.0  0.60760  0.43287  0.99088  1.0000
  H   H1507     1.0  0.79634  0.01570  0.74711  1.0000
  H   H1508     1.0  0.72226  0.45610  0.77481  1.0000
  C   C851      1.0  0.71839  0.47391  0.77912  1.0000
  H   H1509     1.0  0.72391  0.47486  0.79393  1.0000
  C   C852      1.0  0.82502  0.01550  0.74747  1.0000
  H   H1510     1.0  0.96066  0.98733  0.73925  1.0000
  H   H1511     1.0  0.55167  0.47694  0.77031  1.0000
  H   H1512     1.0  0.82264  0.05910  0.73326  1.0000
  H   H1513     1.0  0.88322  0.01164  0.76361  1.0000
  H   H1514     1.0  0.52394  0.44133  0.91937  1.0000
  C   C853      1.0  0.66865  0.00166  0.92193  1.0000
  H   H1515     1.0  0.80901  0.00533  0.81605  1.0000
  H   H1516     1.0  0.49909  0.44309  0.94005  1.0000
  C   C854      1.0  0.65408  0.01323  0.95305  1.0000
  H   H1517     1.0  0.62305  0.47971  0.75362  1.0000
  H   H1518     1.0  0.57064  0.41258  0.80808  1.0000
  C   C855      1.0  0.54371  0.46342  0.93966  1.0000
  H   H1519     1.0  0.56973  0.30109  0.93314  1.0000
  C   C856      1.0  0.65924  0.05108  0.96830  1.0000
  H   H1520     1.0  0.83342  0.01133  0.71782  1.0000
  C   C857      1.0  0.53028  0.48002  0.95450  1.0000
  C   C858      1.0  0.52058  0.23852  0.95663  1.0000
  H   H1521     1.0  0.93473  0.46657  0.82839  1.0000
  C   C859      1.0  0.68486  0.98477  0.90793  1.0000
  C   C860      1.0  0.77843  0.48015  0.82402  1.0000
  H   H1522     1.0  0.61698  0.45271  0.76168  1.0000
  H   H1523     1.0  0.65222  0.00759  0.96754  1.0000
  H   H1524     1.0  0.62711  0.01759  0.94848  1.0000
  C   C861      1.0  0.90559  0.98752  0.74417  1.0000
  C   C862      1.0  0.82394  0.00292  0.78754  1.0000
  H   H1525     1.0  0.59628  0.46208  0.96650  1.0000
  C   C863      1.0  0.65499  0.47095  0.78647  1.0000
  N   N48       1.0  0.67085  0.99444  0.94169  1.0000
  C   C864      1.0  0.94180  0.99321  0.74988  1.0000
  C   C865      1.0  0.59633  0.46631  0.79724  1.0000
  H   H1526     1.0  0.89973  0.99572  0.73083  1.0000
  H   H1527     1.0  0.66034  0.45265  0.78407  1.0000
  H   H1528     1.0  0.63077  0.05427  0.96790  1.0000
  C   C866      1.0  0.70820  0.99057  0.94771  1.0000
  H   H1529     1.0  0.94298  0.01166  0.75141  1.0000
  C   C867      1.0  0.60817  0.47065  0.76392  1.0000
  H   H1530     1.0  0.60721  0.46874  0.81110  1.0000
  N   N49       1.0  0.50018  0.27630  0.97185  1.0000
  S   S192      1.0  0.54988  0.48106  0.88263  1.0000
  H   H1531     1.0  0.56969  0.47429  0.79813  1.0000
  C   C868      1.0  0.74564  0.48179  0.83254  1.0000
  H   H1532     1.0  0.54333  0.25368  0.98011  1.0000
  C   C869      1.0  0.57970  0.47240  0.97602  1.0000
  H   H1533     1.0  0.79357  0.98563  0.76851  1.0000
  H   H1534     1.0  0.53324  0.24742  0.94543  1.0000
  H   H1535     1.0  0.73888  0.46905  0.84223  1.0000
  H   H1536     1.0  0.78067  0.98976  0.80226  1.0000
  C   C870      1.0  0.91284  0.47917  0.82573  1.0000
  H   H1537     1.0  0.51179  0.47151  0.96334  1.0000
  H   H1538     1.0  0.66679  0.04328  0.98165  1.0000
  H   H1539     1.0  0.56502  0.29555  0.97475  1.0000
  H   H1540     1.0  0.98452  0.46214  0.70259  1.0000
  S   S193      1.0  0.60120  0.11712  0.99512  1.0000
  Fe  Fe97      1.0  0.56784  0.08716  0.99374  1.0000
  C   C871      1.0  0.50088  0.28798  0.99004  1.0000
  H   H1541     1.0  0.49611  0.46615  0.92367  1.0000
  H   H1542     1.0  0.49643  0.01484  0.98721  1.0000
  C   C872      1.0  0.67814  0.99301  0.88836  1.0000
  H   H1543     1.0  0.73719  0.48383  0.77171  1.0000
  H   H1544     1.0  0.52747  0.28653  0.99580  1.0000
  H   H1545     1.0  0.78388  0.98657  0.73071  1.0000
  H   H1546     1.0  0.93271  0.93106  0.31407  1.0000
  H   H1547     1.0  0.52896  0.95329  0.10595  1.0000
  H   H1548     1.0  0.56025  0.86277  0.14696  1.0000
  H   H1549     1.0  0.97196  0.91433  0.30924  1.0000
  C   C873      1.0  0.51519  0.90129  0.14613  1.0000
  H   H1550     1.0  0.50190  0.94651  0.08704  1.0000
  C   C874      1.0  0.55367  0.86984  0.16059  1.0000
  H   H1551     1.0  0.93289  0.90068  0.31402  1.0000
  C   C875      1.0  0.51757  0.88183  0.16040  1.0000
  C   C876      1.0  0.97192  0.98385  0.31273  1.0000
  H   H1552     1.0  0.52538  0.92542  0.17601  1.0000
  H   H1553     1.0  0.76539  0.97317  0.20594  1.0000
  H   H1554     1.0  0.52002  0.89314  0.13272  1.0000
  C   C877      1.0  0.50219  0.95006  0.10188  1.0000
  H   H1555     1.0  0.55461  0.85580  0.17068  1.0000
  C   C878      1.0  0.94804  0.91516  0.31757  1.0000
  H   H1556     1.0  0.79550  0.50930  0.31725  1.0000
  H   H1557     1.0  0.53746  0.91183  0.14816  1.0000
  H   H1558     1.0  0.74785  0.97778  0.22847  1.0000
  H   H1559     1.0  0.60092  0.97059  0.31748  1.0000
  C   C879      1.0  0.50276  0.98242  0.99964  1.0000
  H   H1560     1.0  0.57326  0.88164  0.16454  1.0000
  H   H1561     1.0  0.50889  0.91563  0.11011  1.0000
  H   H1562     1.0  0.50830  0.94472  0.13733  1.0000
  H   H1563     1.0  0.76937  0.53221  0.32720  1.0000
  H   H1564     1.0  0.49902  0.86913  0.15708  1.0000
  H   H1565     1.0  0.50947  0.95263  0.20059  1.0000
  H   H1566     1.0  0.51207  0.88790  0.17441  1.0000
  H   H1567     1.0  0.50742  0.95191  0.16740  1.0000
  C   C880      1.0  0.50124  0.93635  0.17470  1.0000
  H   H1568     1.0  0.51798  0.48426  0.19646  1.0000
  H   H1569     1.0  0.94002  0.92562  0.60103  1.0000
  H   H1570     1.0  0.93210  0.87749  0.36163  1.0000
  H   H1571     1.0  0.90979  0.80792  0.57796  1.0000
  N   N50       1.0  0.92978  0.91236  0.37010  1.0000
  H   H1572     1.0  0.93299  0.50556  0.44983  1.0000
  Fe  Fe98      1.0  0.90668  0.58690  0.52858  1.0000
  S   S194      1.0  0.86792  0.57183  0.51023  1.0000
  S   S195      1.0  0.92865  0.56263  0.55059  1.0000
  Fe  Fe99      1.0  0.89563  0.63399  0.51034  1.0000
  S   S196      1.0  0.85683  0.62164  0.49056  1.0000
  S   S197      1.0  0.91647  0.66953  0.51141  1.0000
  Fe  Fe100     1.0  0.83579  0.60405  0.51517  1.0000
  S   S198      1.0  0.77762  0.60602  0.51833  1.0000
  Fe  Fe101     1.0  0.89213  0.59000  0.48711  1.0000
  S   S199      1.0  0.91226  0.57368  0.46013  1.0000
  S   S200      1.0  0.87247  0.61798  0.53507  1.0000
  S   S201      1.0  0.93293  0.60355  0.50533  1.0000
  H   H1573     1.0  0.78019  0.77257  0.61724  1.0000
  S   S202      1.0  0.68798  0.57802  0.63876  1.0000
  Fe  Fe102     1.0  0.69994  0.64225  0.63621  1.0000
  S   S203      1.0  0.65117  0.62734  0.62729  1.0000
  S   S204      1.0  0.70900  0.67836  0.62890  1.0000
  H   H1574     1.0  0.89747  0.64900  0.42817  1.0000
  H   H1575     1.0  0.67817  0.55719  0.40078  1.0000
  Fe  Fe103     1.0  0.68707  0.60091  0.61417  1.0000
  S   S205      1.0  0.67754  0.59050  0.58519  1.0000
  S   S206      1.0  0.73510  0.61710  0.62143  1.0000
  H   H1576     1.0  0.63195  0.97466  0.60520  1.0000
  S   S207      1.0  0.67885  0.85616  0.65049  1.0000
  C   C881      1.0  0.57328  0.70640  0.65920  1.0000
  S   S208      1.0  0.63158  0.81319  0.64932  1.0000
  H   H1577     1.0  0.98256  0.52496  0.64071  1.0000
  Fe  Fe104     1.0  0.67827  0.82454  0.63416  1.0000
  S   S209      1.0  0.68482  0.82337  0.60328  1.0000
  H   H1578     1.0  0.67754  0.92174  0.62169  1.0000
  H   H1579     1.0  0.94491  0.84496  0.40556  1.0000
  C   C882      1.0  0.87152  0.61958  0.43578  1.0000
  H   H1580     1.0  0.96517  0.97565  0.52946  1.0000
  H   H1581     1.0  0.91310  0.93483  0.34786  1.0000
  S   S210      1.0  0.88690  0.95763  0.41379  1.0000
  H   H1582     1.0  0.90139  0.94177  0.59344  1.0000
  H   H1583     1.0  0.69671  0.90669  0.54085  1.0000
  C   C883      1.0  0.98664  0.94510  0.40355  1.0000
  H   H1584     1.0  0.66921  0.97086  0.61989  1.0000
  H   H1585     1.0  0.68800  0.51182  0.34408  1.0000
  Fe  Fe105     1.0  0.92042  0.84825  0.52501  1.0000
  S   S211      1.0  0.87686  0.87493  0.52482  1.0000
  H   H1586     1.0  0.90633  0.51468  0.63698  1.0000
  Fe  Fe106     1.0  0.87427  0.81094  0.51246  1.0000
  S   S212      1.0  0.82784  0.83628  0.51123  1.0000
  S   S213      1.0  0.86075  0.77413  0.50700  1.0000
  Fe  Fe107     1.0  0.86267  0.86072  0.49764  1.0000
  S   S214      1.0  0.84340  0.88335  0.47304  1.0000
  Fe  Fe108     1.0  0.84629  0.84851  0.53823  1.0000
  S   S215      1.0  0.81958  0.85666  0.56543  1.0000
  S   S216      1.0  0.90778  0.83462  0.49716  1.0000
  S   S217      1.0  0.89110  0.82261  0.54003  1.0000
  H   H1587     1.0  0.79180  0.90895  0.63102  1.0000
  H   H1588     1.0  0.90900  0.68018  0.44859  1.0000
  C   C884      1.0  0.95878  0.87153  0.56802  1.0000
  H   H1589     1.0  0.93151  0.51548  0.65778  1.0000
  N   N51       1.0  0.57301  0.68145  0.65570  1.0000
  S   S218      1.0  0.97382  0.85920  0.53231  1.0000
  H   H1590     1.0  0.69661  0.49619  0.39340  1.0000
  H   H1591     1.0  0.93393  0.86475  0.56597  1.0000
  H   H1592     1.0  0.94837  0.88084  0.59596  1.0000
  H   H1593     1.0  0.55648  0.68623  0.62758  1.0000
  H   H1594     1.0  0.78249  0.48420  0.34240  1.0000
  H   H1595     1.0  0.95886  0.53219  0.57715  1.0000
  C   C885      1.0  0.87413  0.93715  0.43027  1.0000
  C   C886      1.0  0.89862  0.92791  0.44302  1.0000
  C   C887      1.0  0.88993  0.91158  0.45615  1.0000
  C   C888      1.0  0.85645  0.90408  0.45680  1.0000
  C   C889      1.0  0.83207  0.91335  0.44404  1.0000
  C   C890      1.0  0.84071  0.92970  0.43097  1.0000
  H   H1596     1.0  0.92455  0.93342  0.44275  1.0000
  H   H1597     1.0  0.90914  0.90475  0.46575  1.0000
  H   H1598     1.0  0.80608  0.90787  0.44432  1.0000
  H   H1599     1.0  0.82133  0.93662  0.42150  1.0000
  C   C891      1.0  0.72419  0.82987  0.59289  1.0000
  C   C892      1.0  0.72698  0.82983  0.57377  1.0000
  C   C893      1.0  0.75688  0.83682  0.56508  1.0000
  C   C894      1.0  0.78422  0.84393  0.57548  1.0000
  C   C895      1.0  0.78186  0.84319  0.59459  1.0000
  C   C896      1.0  0.75206  0.83621  0.60328  1.0000
  H   H1600     1.0  0.70548  0.82504  0.56562  1.0000
  H   H1601     1.0  0.75813  0.83772  0.55036  1.0000
  H   H1602     1.0  0.80287  0.84861  0.60272  1.0000
  H   H1603     1.0  0.75034  0.83623  0.61801  1.0000
  H   H1604     1.0  0.94334  0.92524  0.40651  1.0000
  C   C897      1.0  0.69834  0.72295  0.63672  1.0000
  C   C898      1.0  0.97192  0.93399  0.53490  1.0000
  H   H1605     1.0  0.82626  0.92647  0.38783  1.0000
  C   C899      1.0  0.94619  0.56131  0.65431  1.0000
  H   H1606     1.0  0.79441  0.66879  0.55697  1.0000
  H   H1607     1.0  0.70743  0.72573  0.62304  1.0000
  C   C900      1.0  0.68615  0.53904  0.40253  1.0000
  C   C901      1.0  0.98217  0.48850  0.42156  1.0000
  H   H1608     1.0  0.75027  0.79836  0.54075  1.0000
  C   C902      1.0  0.90004  0.69848  0.51046  1.0000
  C   C903      1.0  0.92222  0.71545  0.51477  1.0000
  C   C904      1.0  0.91080  0.73854  0.51392  1.0000
  C   C905      1.0  0.87694  0.74517  0.50855  1.0000
  C   C906      1.0  0.85473  0.72819  0.50428  1.0000
  C   C907      1.0  0.86612  0.70510  0.50520  1.0000
  H   H1609     1.0  0.94856  0.71070  0.51881  1.0000
  H   H1610     1.0  0.92835  0.75123  0.51726  1.0000
  H   H1611     1.0  0.82855  0.73297  0.50000  1.0000
  H   H1612     1.0  0.84889  0.69247  0.50139  1.0000
  C   C908      1.0  0.75276  0.59954  0.53767  1.0000
  C   C909      1.0  0.71759  0.59710  0.53484  1.0000
  C   C910      1.0  0.69557  0.59355  0.54952  1.0000
  C   C911      1.0  0.70797  0.59315  0.56743  1.0000
  C   C912      1.0  0.74338  0.59529  0.57048  1.0000
  C   C913      1.0  0.76590  0.59821  0.55556  1.0000
  H   H1613     1.0  0.70721  0.59799  0.52113  1.0000
  H   H1614     1.0  0.66847  0.59164  0.54698  1.0000
  H   H1615     1.0  0.75338  0.59456  0.58425  1.0000
  H   H1616     1.0  0.79310  0.59992  0.55790  1.0000
  C   C914      1.0  0.89691  0.55329  0.44468  1.0000
  C   C915      1.0  0.91725  0.54665  0.42944  1.0000
  C   C916      1.0  0.90629  0.53072  0.41680  1.0000
  C   C917      1.0  0.87454  0.52122  0.41907  1.0000
  C   C918      1.0  0.85426  0.52784  0.43432  1.0000
  C   C919      1.0  0.86535  0.54360  0.44705  1.0000
  H   H1617     1.0  0.94167  0.55396  0.42734  1.0000
  H   H1618     1.0  0.92218  0.52608  0.40514  1.0000
  H   H1619     1.0  0.82966  0.52072  0.43634  1.0000
  H   H1620     1.0  0.84927  0.54840  0.45861  1.0000
  H   H1621     1.0  0.79511  0.67034  0.50709  1.0000
  H   H1622     1.0  0.75102  0.88983  0.56912  1.0000
  H   H1623     1.0  0.95465  0.57877  0.65513  1.0000
  C   C920      1.0  0.97104  0.55963  0.55956  1.0000
  Fe  Fe109     1.0  0.73420  0.59633  0.64699  1.0000
  C   C921      1.0  0.61590  0.68104  0.60715  1.0000
  C   C922      1.0  0.92638  0.67432  0.46001  1.0000
  H   H1624     1.0  0.88924  0.60742  0.42833  1.0000
  C   C923      1.0  0.92609  0.71673  0.46419  1.0000
  H   H1625     1.0  0.75405  0.68553  0.53038  1.0000
  N   N52       1.0  0.94678  0.65271  0.45497  1.0000
  H   H1626     1.0  0.61093  0.65302  0.65868  1.0000
  C   C924      1.0  0.97150  0.64672  0.47047  1.0000
  H   H1627     1.0  0.84035  0.89938  0.39765  1.0000
  H   H1628     1.0  0.87018  0.55350  0.58380  1.0000
  H   H1629     1.0  0.94571  0.84219  0.38110  1.0000
  C   C925      1.0  0.94255  0.88798  0.37257  1.0000
  C   C926      1.0  0.93267  0.51254  0.64287  1.0000
  N   N53       1.0  0.97315  0.95013  0.55068  1.0000
  C   C927      1.0  0.89573  0.91805  0.37947  1.0000
  S   S219      1.0  0.71728  0.80489  0.65153  1.0000
  C   C928      1.0  0.94793  0.69439  0.46503  1.0000
  C   C929      1.0  0.86415  0.90684  0.37154  1.0000
  H   H1630     1.0  0.91148  0.63054  0.46712  1.0000
  H   H1631     1.0  0.98509  0.91737  0.53863  1.0000
  C   C930      1.0  0.76546  0.49966  0.34061  1.0000
  H   H1632     1.0  0.95694  0.64592  0.48353  1.0000
  H   H1633     1.0  0.73795  0.50515  0.39898  1.0000
  C   C931      1.0  0.97877  0.54283  0.57277  1.0000
  H   H1634     1.0  0.90589  0.90609  0.34408  1.0000
  C   C932      1.0  0.55912  0.58361  0.65727  1.0000
  C   C933      1.0  0.93773  0.49028  0.47663  1.0000
  C   C934      1.0  0.61229  0.68657  0.62740  1.0000
  H   H1635     1.0  0.93188  0.52671  0.47983  1.0000
  H   H1636     1.0  0.81947  0.64135  0.57793  1.0000
  H   H1637     1.0  0.63502  0.67859  0.63468  1.0000
  H   H1638     1.0  0.95790  0.69217  0.47920  1.0000
  H   H1639     1.0  0.68829  0.53340  0.37370  1.0000
  C   C935      1.0  0.99239  0.48795  0.40146  1.0000
  H   H1640     1.0  0.94123  0.73041  0.46951  1.0000
  H   H1641     1.0  0.97469  0.51432  0.48492  1.0000
  H   H1642     1.0  0.57935  0.65982  0.63212  1.0000
  H   H1643     1.0  0.61567  0.66269  0.60486  1.0000
  H   H1644     1.0  0.90899  0.67144  0.47178  1.0000
  C   C936      1.0  0.95964  0.97326  0.54423  1.0000
  H   H1645     1.0  0.97839  0.60986  0.46731  1.0000
  H   H1646     1.0  0.68013  0.88333  0.61541  1.0000
  H   H1647     1.0  0.90252  0.71594  0.47265  1.0000
  C   C937      1.0  0.97278  0.63597  0.42462  1.0000
  C   C938      1.0  0.70782  0.72902  0.57929  1.0000
  C   C939      1.0  0.95585  0.92793  0.37706  1.0000
  N   N54       1.0  0.94656  0.55333  0.63469  1.0000
  H   H1648     1.0  0.91867  0.94517  0.52642  1.0000
  C   C940      1.0  0.66550  0.94498  0.59922  1.0000
  H   H1649     1.0  0.98985  0.66003  0.47233  1.0000
  H   H1650     1.0  0.80002  0.75789  0.53108  1.0000
  H   H1651     1.0  0.76015  0.70134  0.56245  1.0000
  H   H1652     1.0  0.63378  0.49654  0.33337  1.0000
  H   H1653     1.0  0.70292  0.53701  0.41481  1.0000
  H   H1654     1.0  0.62668  0.86294  0.60915  1.0000
  H   H1655     1.0  0.89106  0.55063  0.63296  1.0000
  H   H1656     1.0  0.64082  0.68672  0.60208  1.0000
  H   H1657     1.0  0.95881  0.92364  0.56876  1.0000
  H   H1658     1.0  0.92489  0.56336  0.59672  1.0000
  H   H1659     1.0  0.77034  0.75946  0.54992  1.0000
  H   H1660     1.0  0.55404  0.71582  0.65020  1.0000
  C   C941      1.0  0.73542  0.69345  0.56510  1.0000
  H   H1661     1.0  0.62988  0.90416  0.60277  1.0000
  H   H1662     1.0  0.90543  0.87394  0.39155  1.0000
  H   H1663     1.0  0.85550  0.91557  0.35870  1.0000
  C   C942      1.0  0.94958  0.95456  0.58380  1.0000
  H   H1664     1.0  0.84480  0.81037  0.57462  1.0000
  H   H1665     1.0  0.64285  0.89753  0.57959  1.0000
  H   H1666     1.0  0.88285  0.70335  0.54786  1.0000
  H   H1667     1.0  0.90955  0.48909  0.47838  1.0000
  S   S220      1.0  0.94630  0.97523  0.33143  1.0000
  H   H1668     1.0  0.78196  0.79778  0.52256  1.0000
  C   C943      1.0  0.81265  0.64640  0.59207  1.0000
  H   H1669     1.0  0.97484  0.56042  0.60999  1.0000
  H   H1670     1.0  0.85400  0.72298  0.58389  1.0000
  C   C944      1.0  0.93538  0.92939  0.52780  1.0000
  H   H1671     1.0  0.90487  0.57737  0.62691  1.0000
  H   H1672     1.0  0.99475  0.94244  0.41797  1.0000
  H   H1673     1.0  0.74713  0.77936  0.52196  1.0000
  H   H1674     1.0  0.75196  0.75452  0.60551  1.0000
  H   H1675     1.0  0.80478  0.63142  0.59972  1.0000
  H   H1676     1.0  0.88928  0.93650  0.37888  1.0000
  H   H1677     1.0  0.84223  0.79650  0.59659  1.0000
  C   C945      1.0  0.74964  0.65800  0.58349  1.0000
  C   C946      1.0  0.78359  0.66514  0.59238  1.0000
  H   H1678     1.0  0.95343  0.90191  0.50995  1.0000
  H   H1679     1.0  0.75050  0.63930  0.58286  1.0000
  H   H1680     1.0  0.72883  0.66209  0.59345  1.0000
  C   C947      1.0  0.67728  0.49795  0.35191  1.0000
  H   H1681     1.0  0.79280  0.68060  0.58609  1.0000
  H   H1682     1.0  0.77838  0.66923  0.60694  1.0000
  H   H1683     1.0  0.67834  0.65650  0.58310  1.0000
  H   H1684     1.0  0.63318  0.95342  0.62285  1.0000
  C   C948      1.0  0.95065  0.94153  0.56563  1.0000
  H   H1685     1.0  0.87087  0.65200  0.44814  1.0000
  C   C949      1.0  0.96705  0.88067  0.58501  1.0000
  Fe  Fe110     1.0  0.65640  0.60594  0.65272  1.0000
  C   C950      1.0  0.96614  0.65649  0.43742  1.0000
  H   H1686     1.0  0.52584  0.64837  0.64001  1.0000
  C   C951      1.0  0.87153  0.55749  0.59855  1.0000
  H   H1687     1.0  0.85379  0.54687  0.60607  1.0000
  H   H1688     1.0  0.91615  0.53491  0.60298  1.0000
  H   H1689     1.0  0.96708  0.96918  0.47415  1.0000
  H   H1690     1.0  0.94768  0.92916  0.49875  1.0000
  H   H1691     1.0  0.74105  0.70435  0.59348  1.0000
  H   H1692     1.0  0.71215  0.93724  0.61400  1.0000
  C   C952      1.0  0.95727  0.52856  0.63379  1.0000
  H   H1693     1.0  0.68908  0.75835  0.64232  1.0000
  H   H1694     1.0  0.69899  0.69575  0.58860  1.0000
  H   H1695     1.0  0.90486  0.87519  0.63077  1.0000
  C   C953      1.0  0.95250  0.85307  0.39261  1.0000
  H   H1696     1.0  0.72847  0.90690  0.63464  1.0000
  C   C954      1.0  0.69060  0.92740  0.60909  1.0000
  H   H1697     1.0  0.57329  0.58493  0.64465  1.0000
  H   H1698     1.0  0.85944  0.85756  0.61383  1.0000
  H   H1699     1.0  0.66259  0.52978  0.40467  1.0000
  C   C955      1.0  0.91187  0.55898  0.62576  1.0000
  C   C956      1.0  0.79961  0.66615  0.52172  1.0000
  H   H1700     1.0  0.78160  0.88724  0.64696  1.0000
  H   H1701     1.0  0.77642  0.64283  0.55285  1.0000
  H   H1702     1.0  0.90469  0.79633  0.60060  1.0000
  S   S221      1.0  0.78281  0.57553  0.65507  1.0000
  H   H1703     1.0  0.65977  0.50517  0.36264  1.0000
  H   H1704     1.0  0.86192  0.61125  0.44820  1.0000
  C   C957      1.0  0.93349  0.87631  0.39084  1.0000
  H   H1705     1.0  0.93094  0.97490  0.54523  1.0000
  H   H1706     1.0  0.67987  0.95447  0.58896  1.0000
  H   H1707     1.0  0.68622  0.72997  0.56931  1.0000
  C   C958      1.0  0.64904  0.96199  0.61267  1.0000
  H   H1708     1.0  0.88608  0.69014  0.56999  1.0000
  C   C959      1.0  0.64423  0.89169  0.59396  1.0000
  H   H1709     1.0  0.97521  0.49481  0.45571  1.0000
  H   H1710     1.0  0.61282  0.70508  0.62836  1.0000
  H   H1711     1.0  0.88701  0.82437  0.59506  1.0000
  H   H1712     1.0  0.72814  0.54082  0.38377  1.0000
  H   H1713     1.0  0.89271  0.73064  0.57250  1.0000
  H   H1714     1.0  0.84437  0.69527  0.55937  1.0000
  H   H1715     1.0  0.98261  0.90981  0.39959  1.0000
  H   H1716     1.0  0.83980  0.84882  0.63481  1.0000
  H   H1717     1.0  0.97518  0.49439  0.56071  1.0000
  H   H1718     1.0  0.86278  0.57548  0.60032  1.0000
  C   C960      1.0  0.53210  0.64899  0.65478  1.0000
  C   C961      1.0  0.52594  0.57521  0.65722  1.0000
  C   C962      1.0  0.98290  0.87082  0.55385  1.0000
  C   C963      1.0  0.94777  0.49079  0.45616  1.0000
  H   H1719     1.0  0.51485  0.57023  0.64448  1.0000
  C   C964      1.0  0.96602  0.92555  0.39745  1.0000
  H   H1720     1.0  0.55549  0.63757  0.65720  1.0000
  H   H1721     1.0  0.94833  0.63163  0.41811  1.0000
  H   H1722     1.0  0.78861  0.79402  0.58888  1.0000
  H   H1723     1.0  0.74797  0.65651  0.52531  1.0000
  H   H1724     1.0  0.93977  0.51117  0.50074  1.0000
  H   H1725     1.0  0.73945  0.78392  0.60829  1.0000
  C   C965      1.0  0.88081  0.87173  0.63812  1.0000
  H   H1726     1.0  0.97019  0.69568  0.45570  1.0000
  H   H1727     1.0  0.72902  0.73880  0.57399  1.0000
  S   S222      1.0  0.85640  0.97459  0.35958  1.0000
  H   H1728     1.0  0.99069  0.48886  0.59312  1.0000
  C   C966      1.0  0.92843  0.94284  0.59814  1.0000
  C   C967      1.0  0.72354  0.90254  0.54567  1.0000
  C   C968      1.0  0.62544  0.87005  0.59508  1.0000
  N   N55       1.0  0.83240  0.76424  0.56753  1.0000
  C   C969      1.0  0.81568  0.77964  0.55312  1.0000
  C   C970      1.0  0.86391  0.77468  0.57486  1.0000
  C   C971      1.0  0.84487  0.74255  0.55832  1.0000
  C   C972      1.0  0.80799  0.75888  0.58282  1.0000
  C   C973      1.0  0.77895  0.77712  0.58768  1.0000
  C   C974      1.0  0.78754  0.76932  0.54141  1.0000
  C   C975      1.0  0.86625  0.72513  0.57038  1.0000
  C   C976      1.0  0.85781  0.79789  0.58402  1.0000
  C   C977      1.0  0.89198  0.80708  0.58975  1.0000
  C   C978      1.0  0.76168  0.77159  0.60576  1.0000
  C   C979      1.0  0.76541  0.78740  0.53107  1.0000
  C   C980      1.0  0.86999  0.70210  0.56130  1.0000
  H   H1729     1.0  0.83560  0.78521  0.54345  1.0000
  H   H1730     1.0  0.80431  0.79550  0.55908  1.0000
  H   H1731     1.0  0.87712  0.76360  0.58536  1.0000
  H   H1732     1.0  0.88302  0.77642  0.56365  1.0000
  H   H1733     1.0  0.86094  0.74617  0.54618  1.0000
  H   H1734     1.0  0.82262  0.73378  0.55300  1.0000
  H   H1735     1.0  0.79443  0.74350  0.57969  1.0000
  H   H1736     1.0  0.82289  0.75457  0.59552  1.0000
  H   H1737     1.0  0.75868  0.77815  0.57697  1.0000
  N   N56       1.0  0.74081  0.66808  0.56498  1.0000
  H   H1738     1.0  0.63713  0.85740  0.58546  1.0000
  C   C981      1.0  0.77046  0.66136  0.55238  1.0000
  H   H1739     1.0  0.97415  0.50625  0.42487  1.0000
  H   H1740     1.0  0.73572  0.52444  0.35553  1.0000
  H   H1741     1.0  0.93909  0.98374  0.44132  1.0000
  H   H1742     1.0  0.73542  0.88888  0.53701  1.0000
  C   C982      1.0  0.72068  0.70453  0.58283  1.0000
  H   H1743     1.0  0.70870  0.87954  0.56624  1.0000
  C   C983      1.0  0.57857  0.67803  0.63546  1.0000
  C   C984      1.0  0.67535  0.66209  0.56870  1.0000
  H   H1744     1.0  0.66686  0.68023  0.56812  1.0000
  H   H1745     1.0  0.89722  0.91406  0.39425  1.0000
  H   H1746     1.0  0.79571  0.87973  0.62431  1.0000
  H   H1747     1.0  0.81775  0.67787  0.52744  1.0000
  H   H1748     1.0  0.71447  0.63913  0.55665  1.0000
  H   H1749     1.0  0.88238  0.83717  0.62845  1.0000
  H   H1750     1.0  0.96511  0.58417  0.62399  1.0000
  C   C985      1.0  0.70920  0.65765  0.55775  1.0000
  H   H1751     1.0  0.97080  0.49540  0.39295  1.0000
  C   C986      1.0  0.70825  0.91349  0.57829  1.0000
  H   H1752     1.0  0.62187  0.65364  0.56823  1.0000
  H   H1753     1.0  0.59787  0.87358  0.59130  1.0000
  H   H1754     1.0  0.91835  0.72091  0.44992  1.0000
  H   H1755     1.0  0.89246  0.91205  0.65287  1.0000
  H   H1756     1.0  0.84906  0.62442  0.42686  1.0000
  C   C987      1.0  0.92163  0.63462  0.45342  1.0000
  H   H1757     1.0  0.68311  0.91950  0.57221  1.0000
  C   C988      1.0  0.71839  0.50532  0.38779  1.0000
  H   H1758     1.0  0.65220  0.63105  0.56168  1.0000
  C   C989      1.0  0.72372  0.89466  0.56556  1.0000
  C   C990      1.0  0.64611  0.64946  0.56058  1.0000
  C   C991      1.0  0.88838  0.86545  0.65837  1.0000
  C   C992      1.0  0.94667  0.51193  0.48606  1.0000
  C   C993      1.0  0.68805  0.74144  0.64765  1.0000
  C   C994      1.0  0.75225  0.50916  0.35915  1.0000
  H   H1759     1.0  0.91075  0.91414  0.50483  1.0000
  H   H1760     1.0  0.72493  0.92791  0.57703  1.0000
  H   H1761     1.0  0.87051  0.88886  0.36842  1.0000
  C   C995      1.0  0.93711  0.91797  0.50919  1.0000
  H   H1762     1.0  0.51732  0.68463  0.65339  1.0000
  H   H1763     1.0  0.69811  0.73683  0.59215  1.0000
  H   H1764     1.0  0.98088  0.85449  0.39284  1.0000
  H   H1765     1.0  0.73883  0.91750  0.54404  1.0000
  H   H1766     1.0  0.94345  0.89097  0.64816  1.0000
  H   H1767     1.0  0.97112  0.88612  0.37088  1.0000
  C   C996      1.0  0.69701  0.70094  0.64343  1.0000
  C   C997      1.0  0.74276  0.89424  0.62602  1.0000
  H   H1768     1.0  0.59460  0.68987  0.59920  1.0000
  H   H1769     1.0  0.81159  0.64874  0.52266  1.0000
  H   H1770     1.0  0.71827  0.69926  0.55356  1.0000
  C   C998      1.0  0.95746  0.91453  0.33784  1.0000
  H   H1771     1.0  0.95214  0.66974  0.42888  1.0000
  H   H1772     1.0  0.96193  0.52328  0.61943  1.0000
  H   H1773     1.0  0.93690  0.97162  0.58173  1.0000
  H   H1774     1.0  0.69390  0.87246  0.59430  1.0000
  H   H1775     1.0  0.94012  0.88614  0.40290  1.0000
  H   H1776     1.0  0.98066  0.92536  0.36961  1.0000
  H   H1777     1.0  0.59887  0.71257  0.65574  1.0000
  C   C999      1.0  0.90866  0.55293  0.60532  1.0000
  C   C1000     1.0  0.86458  0.85259  0.62827  1.0000
  H   H1778     1.0  0.74352  0.49570  0.33175  1.0000
  C   C1001     1.0  0.97310  0.56584  0.62442  1.0000
  H   H1779     1.0  0.97576  0.95578  0.58952  1.0000
  C   C1002     1.0  0.68195  0.88786  0.60073  1.0000
  H   H1780     1.0  0.92330  0.94164  0.56109  1.0000
  H   H1781     1.0  0.94638  0.94574  0.37433  1.0000
  H   H1782     1.0  0.93457  0.61850  0.44882  1.0000
  H   H1783     1.0  0.92821  0.95247  0.61104  1.0000
  H   H1784     1.0  0.92290  0.91789  0.53738  1.0000
  N   N57       1.0  0.70447  0.90725  0.59819  1.0000
  C   C1003     1.0  0.74012  0.90015  0.60535  1.0000
  H   H1785     1.0  0.75096  0.88489  0.59829  1.0000
  H   H1786     1.0  0.64181  0.65415  0.54602  1.0000
  H   H1787     1.0  0.75813  0.91347  0.60232  1.0000
  H   H1788     1.0  0.64440  0.93710  0.59206  1.0000
  H   H1789     1.0  0.81110  0.90105  0.37850  1.0000
  H   H1790     1.0  0.99131  0.58630  0.54381  1.0000
  C   C1004     1.0  0.70563  0.53045  0.38559  1.0000
  C   C1005     1.0  0.78034  0.89247  0.63240  1.0000
  Fe  Fe111     1.0  0.87322  0.98110  0.38876  1.0000
  C   C1006     1.0  0.76533  0.66803  0.53199  1.0000
  S   S223      1.0  0.85869  0.50118  0.40346  1.0000
  H   H1791     1.0  0.98761  0.65587  0.40116  1.0000
  H   H1792     1.0  0.73223  0.87768  0.62862  1.0000
  N   N58       1.0  0.73341  0.49329  0.37115  1.0000
  H   H1793     1.0  0.83603  0.65232  0.59873  1.0000
  H   H1794     1.0  0.86248  0.88681  0.63703  1.0000
  H   H1795     1.0  0.70300  0.66377  0.54370  1.0000
  C   C1007     1.0  0.88990  0.64048  0.44090  1.0000
  C   C1008     1.0  0.83366  0.90856  0.38473  1.0000
  H   H1796     1.0  0.77461  0.51533  0.36675  1.0000
  C   C1009     1.0  0.65539  0.48518  0.33874  1.0000
  H   H1797     1.0  0.98350  0.62076  0.43193  1.0000
  H   H1798     1.0  0.89299  0.57559  0.65869  1.0000
  C   C1010     1.0  0.92466  0.91732  0.34997  1.0000
  H   H1799     1.0  0.90364  0.84894  0.65833  1.0000
  C   C1011     1.0  0.94590  0.48802  0.64028  1.0000
  S   S224      1.0  0.70327  0.62297  0.66271  1.0000
  H   H1800     1.0  0.98644  0.94023  0.52303  1.0000
  H   H1801     1.0  0.97040  0.96117  0.40262  1.0000
  H   H1802     1.0  0.83631  0.93426  0.65244  1.0000
  H   H1803     1.0  0.95514  0.86534  0.65943  1.0000
  H   H1804     1.0  0.96540  0.55088  0.66261  1.0000
  C   C1012     1.0  0.53786  0.67360  0.66026  1.0000
  C   C1013     1.0  0.94359  0.88268  0.66184  1.0000
  C   C1014     1.0  0.99429  0.62450  0.46873  1.0000
  H   H1805     1.0  0.49754  0.62266  0.66024  1.0000
  C   C1015     1.0  0.68576  0.69745  0.66126  1.0000
  H   H1806     1.0  0.97435  0.92851  0.34018  1.0000
  H   H1807     1.0  0.97250  0.89839  0.34070  1.0000
  H   H1808     1.0  0.98938  0.93765  0.45498  1.0000
  H   H1809     1.0  0.99150  0.66330  0.44046  1.0000
  H   H1810     1.0  0.99121  0.54314  0.51586  1.0000
  H   H1811     1.0  0.80860  0.52115  0.33846  1.0000
  H   H1812     1.0  0.97206  0.48488  0.64639  1.0000
  C   C1016     1.0  0.78594  0.51670  0.33031  1.0000
  H   H1813     1.0  0.71946  0.52108  0.68509  1.0000
  S   S225      1.0  0.58862  0.51301  0.85387  1.0000
  Fe  Fe112     1.0  0.91202  0.51194  0.74773  1.0000
  S   S226      1.0  0.91419  0.54939  0.74688  1.0000
  Fe  Fe113     1.0  0.85982  0.51360  0.78010  1.0000
  S   S227      1.0  0.86000  0.55108  0.78136  1.0000
  C   C1017     1.0  0.65773  0.89196  0.80789  1.0000
  Fe  Fe114     1.0  0.85685  0.55022  0.75088  1.0000
  S   S228      1.0  0.81958  0.57695  0.73887  1.0000
  Fe  Fe115     1.0  0.91753  0.54699  0.77744  1.0000
  S   S229      1.0  0.95053  0.57137  0.79207  1.0000
  S   S230      1.0  0.85359  0.51279  0.74949  1.0000
  Fe  Fe116     1.0  0.71555  0.83585  0.66882  1.0000
  H   H1814     1.0  0.94509  0.50671  0.82869  1.0000
  H   H1815     1.0  0.89859  0.54611  0.66391  1.0000
  S   S231      1.0  0.76275  0.85428  0.67573  1.0000
  S   S232      1.0  0.67347  0.82484  0.68706  1.0000
  Fe  Fe117     1.0  0.86020  0.87470  0.76092  1.0000
  S   S233      1.0  0.83240  0.90689  0.75194  1.0000
  S   S234      1.0  0.83687  0.84271  0.75254  1.0000
  Fe  Fe118     1.0  0.91484  0.89869  0.78103  1.0000
  S   S235      1.0  0.88913  0.93284  0.77356  1.0000
  S   S236      1.0  0.96759  0.89937  0.79485  1.0000
  Fe  Fe119     1.0  0.83842  0.91811  0.78081  1.0000
  H   H1816     1.0  0.73898  0.57374  0.72739  1.0000
  Fe  Fe120     1.0  0.88493  0.91841  0.74541  1.0000
  S   S237      1.0  0.58682  0.97035  0.85124  1.0000
  S   S238      1.0  0.86462  0.88510  0.79027  1.0000
  S   S239      1.0  0.91233  0.88519  0.75250  1.0000
  H   H1817     1.0  0.69870  0.64294  0.70231  1.0000
  H   H1818     1.0  0.77088  0.52717  0.79747  1.0000
  S   S240      1.0  0.57480  0.91820  0.86408  1.0000
  Fe  Fe121     1.0  0.61935  0.94070  0.86277  1.0000
  S   S241      1.0  0.67352  0.92594  0.85363  1.0000
  H   H1819     1.0  0.65605  0.50256  0.92912  1.0000
  C   C1018     1.0  0.58041  0.87379  0.74474  1.0000
  S   S242      1.0  0.61522  0.60134  0.67467  1.0000
  H   H1820     1.0  0.65306  0.90865  0.81440  1.0000
  H   H1821     1.0  0.95879  0.78828  0.81912  1.0000
  H   H1822     1.0  0.97003  0.59751  0.85064  1.0000
  H   H1823     1.0  0.95469  0.85529  0.81023  1.0000
  H   H1824     1.0  0.53339  0.87742  0.86680  1.0000
  H   H1825     1.0  0.73879  0.63386  0.71318  1.0000
  C   C1019     1.0  0.78801  0.49641  0.81127  1.0000
  C   C1020     1.0  0.75679  0.93373  0.80866  1.0000
  C   C1021     1.0  0.70506  0.92966  0.83611  1.0000
  C   C1022     1.0  0.73614  0.91587  0.83634  1.0000
  C   C1023     1.0  0.76178  0.91790  0.82280  1.0000
  H   H1826     1.0  0.74050  0.90358  0.84717  1.0000
  H   H1827     1.0  0.78561  0.90745  0.82350  1.0000
  C   C1024     1.0  0.53684  0.90722  0.77705  1.0000
  C   C1025     1.0  0.96177  0.93794  0.71525  1.0000
  C   C1026     1.0  0.79857  0.97065  0.73457  1.0000
  H   H1828     1.0  0.96345  0.92951  0.72838  1.0000
  H   H1829     1.0  0.86353  0.86195  0.66508  1.0000
  C   C1027     1.0  0.78354  0.84993  0.69691  1.0000
  C   C1028     1.0  0.80666  0.86549  0.70248  1.0000
  C   C1029     1.0  0.82381  0.86296  0.71926  1.0000
  C   C1030     1.0  0.81779  0.84482  0.73072  1.0000
  C   C1031     1.0  0.79526  0.82883  0.72500  1.0000
  C   C1032     1.0  0.77799  0.83144  0.70812  1.0000
  H   H1830     1.0  0.81066  0.87981  0.69391  1.0000
  H   H1831     1.0  0.84161  0.87511  0.72333  1.0000
  H   H1832     1.0  0.79087  0.81458  0.73370  1.0000
  H   H1833     1.0  0.76062  0.81913  0.70371  1.0000
  C   C1033     1.0  0.72172  0.49982  0.82851  1.0000
  C   C1034     1.0  0.81238  0.57674  0.71526  1.0000
  C   C1035     1.0  0.82293  0.55819  0.70460  1.0000
  C   C1036     1.0  0.81470  0.55822  0.68592  1.0000
  C   C1037     1.0  0.79547  0.57660  0.67801  1.0000
  C   C1038     1.0  0.78569  0.59530  0.68862  1.0000
  C   C1039     1.0  0.79431  0.59537  0.70718  1.0000
  H   H1834     1.0  0.83700  0.54376  0.71077  1.0000
  H   H1835     1.0  0.82241  0.54374  0.67771  1.0000
  H   H1836     1.0  0.77151  0.60971  0.68250  1.0000
  H   H1837     1.0  0.78700  0.60985  0.71541  1.0000
  H   H1838     1.0  0.69228  0.85584  0.79338  1.0000
  H   H1839     1.0  0.57829  0.64565  0.68535  1.0000
  C   C1040     1.0  0.91109  0.56220  0.66463  1.0000
  H   H1840     1.0  0.63740  0.52591  0.94211  1.0000
  H   H1841     1.0  0.88013  0.87513  0.69401  1.0000
  H   H1842     1.0  0.85728  0.56896  0.86873  1.0000
  H   H1843     1.0  0.72653  0.83153  0.77298  1.0000
  H   H1844     1.0  0.56649  0.50934  0.75064  1.0000
  C   C1041     1.0  0.74380  0.53600  0.75032  1.0000
  H   H1845     1.0  0.52035  0.85678  0.85089  1.0000
  H   H1846     1.0  0.65181  0.55138  0.74666  1.0000
  H   H1847     1.0  0.74075  0.55672  0.69678  1.0000
  H   H1848     1.0  0.92377  0.49857  0.84914  1.0000
  C   C1042     1.0  0.73131  0.51616  0.81578  1.0000
  C   C1043     1.0  0.76411  0.51449  0.80722  1.0000
  H   H1849     1.0  0.71318  0.53021  0.81250  1.0000
  C   C1044     1.0  0.99055  0.95467  0.68915  1.0000
  H   H1850     1.0  0.70862  0.61202  0.73610  1.0000
  C   C1045     1.0  0.70009  0.94552  0.82198  1.0000
  H   H1851     1.0  0.66734  0.62273  0.72713  1.0000
  H   H1852     1.0  0.85428  0.52664  0.85982  1.0000
  H   H1853     1.0  0.63182  0.58518  0.71563  1.0000
  C   C1046     1.0  0.82847  0.55198  0.82956  1.0000
  C   C1047     1.0  0.62651  0.65450  0.69651  1.0000
  S   S243      1.0  0.52807  0.96075  0.88181  1.0000
  H   H1854     1.0  0.54310  0.84259  0.66522  1.0000
  H   H1855     1.0  0.58922  0.70842  0.68774  1.0000
  S   S244      1.0  0.78829  0.93725  0.79110  1.0000
  H   H1856     1.0  0.61995  0.64748  0.71003  1.0000
  C   C1048     1.0  0.71081  0.63766  0.71549  1.0000
  C   C1049     1.0  0.87410  0.55469  0.87418  1.0000
  H   H1857     1.0  0.95655  0.96830  0.66806  1.0000
  H   H1858     1.0  0.70764  0.65191  0.72514  1.0000
  Fe  Fe122     1.0  0.56293  0.93176  0.89203  1.0000
  H   H1859     1.0  0.81084  0.96253  0.70620  1.0000
  H   H1860     1.0  0.77094  0.95237  0.71436  1.0000
  H   H1861     1.0  0.67643  0.60298  0.69837  1.0000
  C   C1050     1.0  0.92946  0.94296  0.70717  1.0000
  C   C1051     1.0  0.50922  0.52607  0.91678  1.0000
  H   H1862     1.0  0.57814  0.91795  0.80627  1.0000
  H   H1863     1.0  0.56401  0.51227  0.94258  1.0000
  H   H1864     1.0  0.56564  0.59379  0.70256  1.0000
  C   C1052     1.0  0.72574  0.94753  0.80842  1.0000
  H   H1865     1.0  0.53214  0.67534  0.67499  1.0000
  H   H1866     1.0  0.72070  0.59648  0.70334  1.0000
  C   C1053     1.0  0.93062  0.57455  0.84451  1.0000
  H   H1867     1.0  0.50075  0.85833  0.77910  1.0000
  C   C1054     1.0  0.90705  0.87562  0.68897  1.0000
  C   C1055     1.0  0.65167  0.97363  0.94529  1.0000
  C   C1056     1.0  0.92778  0.84837  0.71410  1.0000
  H   H1868     1.0  0.51682  0.92073  0.78066  1.0000
  C   C1057     1.0  0.57925  0.50492  0.95434  1.0000
  H   H1869     1.0  0.97555  0.88508  0.68657  1.0000
  H   H1870     1.0  0.62463  0.67869  0.66668  1.0000
  H   H1871     1.0  0.84870  0.94504  0.67437  1.0000
  H   H1872     1.0  0.52189  0.49547  0.98874  1.0000
  S   S245      1.0  0.63236  0.48997  0.88858  1.0000
  H   H1873     1.0  0.87354  0.53272  0.89815  1.0000
  H   H1874     1.0  0.50365  0.97065  0.80667  1.0000
  H   H1875     1.0  0.54129  0.51597  0.81457  1.0000
  C   C1058     1.0  0.97775  0.51891  0.70671  1.0000
  H   H1876     1.0  0.96702  0.58287  0.75283  1.0000
  H   H1877     1.0  0.76850  0.54427  0.74919  1.0000
  H   H1878     1.0  0.89265  0.52417  0.81536  1.0000
  C   C1059     1.0  0.83616  0.97465  0.74033  1.0000
  H   H1879     1.0  0.91318  0.58194  0.85508  1.0000
  C   C1060     1.0  0.57883  0.92971  0.79445  1.0000
  H   H1880     1.0  0.89753  0.52266  0.86686  1.0000
  C   C1061     1.0  0.92678  0.54902  0.84167  1.0000
  H   H1881     1.0  0.94456  0.86068  0.72018  1.0000
  H   H1882     1.0  0.53394  0.49336  0.74062  1.0000
  C   C1062     1.0  0.50004  0.96944  0.98184  1.0000
  H   H1883     1.0  0.58365  0.83794  0.73883  1.0000
  H   H1884     1.0  0.73534  0.53416  0.72157  1.0000
  H   H1885     1.0  0.64132  0.66957  0.69858  1.0000
  H   H1886     1.0  0.51051  0.88625  0.84615  1.0000
  H   H1887     1.0  0.80340  0.58574  0.83194  1.0000
  H   H1888     1.0  0.92441  0.58379  0.83155  1.0000
  C   C1063     1.0  0.79804  0.95506  0.71812  1.0000
  C   C1064     1.0  0.87881  0.53523  0.86040  1.0000
  C   C1065     1.0  0.52358  0.87373  0.91305  1.0000
  C   C1066     1.0  0.92023  0.50161  0.83433  1.0000
  H   H1889     1.0  0.51783  0.50984  0.91140  1.0000
  H   H1890     1.0  0.60963  0.84566  0.75801  1.0000
  H   H1891     1.0  0.66654  0.71326  0.68600  1.0000
  H   H1892     1.0  0.82264  0.97727  0.80888  1.0000
  H   H1893     1.0  0.57822  0.67358  0.69368  1.0000
  C   C1067     1.0  0.59916  0.56171  0.74069  1.0000
  C   C1068     1.0  0.68793  0.89252  0.79457  1.0000
  Fe  Fe123     1.0  0.54161  0.94814  0.85351  1.0000
  C   C1069     1.0  0.57217  0.91767  0.77657  1.0000
  H   H1894     1.0  0.63374  0.88796  0.80074  1.0000
  H   H1895     1.0  0.95115  0.84993  0.68772  1.0000
  C   C1070     1.0  0.61155  0.53885  0.80219  1.0000
  H   H1896     1.0  0.95511  0.91856  0.85004  1.0000
  H   H1897     1.0  0.87644  0.56302  0.81868  1.0000
  C   C1071     1.0  0.95821  0.95961  0.68108  1.0000
  H   H1898     1.0  0.51143  0.93844  0.71391  1.0000
  H   H1899     1.0  0.60850  0.50605  0.81406  1.0000
  H   H1900     1.0  0.73025  0.54174  0.76296  1.0000
  S   S246      1.0  0.56604  0.54237  0.89985  1.0000
  C   C1072     1.0  0.69464  0.59762  0.70959  1.0000
  C   C1073     1.0  0.50215  0.63971  0.66529  1.0000
  H   H1901     1.0  0.52565  0.54873  0.99412  1.0000
  H   H1902     1.0  0.84775  0.95836  0.74577  1.0000
  H   H1903     1.0  0.50327  0.76739  0.97658  1.0000
  H   H1904     1.0  0.71633  0.57239  0.67956  1.0000
  C   C1074     1.0  0.51335  0.94717  0.72716  1.0000
  H   H1905     1.0  0.81153  0.93847  0.72135  1.0000
  H   H1906     1.0  0.60060  0.94702  0.95859  1.0000
  H   H1907     1.0  0.86450  0.57467  0.83987  1.0000
  H   H1908     1.0  0.65109  0.59022  0.73714  1.0000
  Fe  Fe124     1.0  0.63703  0.49003  0.85765  1.0000
  H   H1909     1.0  0.57325  0.93028  0.76543  1.0000
  H   H1910     1.0  0.92809  0.58389  0.68627  1.0000
  H   H1911     1.0  0.66375  0.87929  0.81884  1.0000
  H   H1912     1.0  0.85509  0.56094  0.90164  1.0000
  C   C1075     1.0  0.51196  0.52041  0.78946  1.0000
  C   C1076     1.0  0.86608  0.55863  0.83234  1.0000
  C   C1077     1.0  0.52086  0.50992  0.80630  1.0000
  C   C1078     1.0  0.98651  0.58333  0.74179  1.0000
  C   C1079     1.0  0.80532  0.57171  0.82204  1.0000
  C   C1080     1.0  0.50710  0.57317  0.67350  1.0000
  H   H1913     1.0  0.61466  0.51576  0.92267  1.0000
  H   H1914     1.0  0.90655  0.96906  0.74227  1.0000
  H   H1915     1.0  0.64287  0.64162  0.68907  1.0000
  C   C1081     1.0  0.63149  0.51066  0.93443  1.0000
  H   H1916     1.0  0.68560  0.68053  0.66665  1.0000
  H   H1917     1.0  0.73992  0.53650  0.66740  1.0000
  C   C1082     1.0  0.69441  0.84075  0.75007  1.0000
  H   H1918     1.0  0.67650  0.95629  0.82151  1.0000
  H   H1919     1.0  0.96382  0.76636  0.80239  1.0000
  N   N59       1.0  0.72397  0.86793  0.77158  1.0000
  C   C1083     1.0  0.72539  0.84519  0.76258  1.0000
  C   C1084     1.0  0.75681  0.86953  0.78244  1.0000
  C   C1085     1.0  0.69258  0.87031  0.78370  1.0000
  C   C1086     1.0  0.72146  0.88668  0.75759  1.0000
  C   C1087     1.0  0.74736  0.88424  0.74154  1.0000
  C   C1088     1.0  0.57377  0.59028  0.67362  1.0000
  C   C1089     1.0  0.76001  0.85493  0.80011  1.0000
  C   C1090     1.0  0.79635  0.85454  0.80812  1.0000
  C   C1091     1.0  0.74606  0.90557  0.72979  1.0000
  S   S247      1.0  0.89037  0.93538  0.71747  1.0000
  H   H1920     1.0  0.74973  0.84223  0.75466  1.0000
  H   H1921     1.0  0.77968  0.86464  0.77385  1.0000
  H   H1922     1.0  0.76043  0.88723  0.78638  1.0000
  H   H1923     1.0  0.66863  0.86971  0.77545  1.0000
  H   H1924     1.0  0.69502  0.88881  0.75165  1.0000
  H   H1925     1.0  0.72558  0.90302  0.76425  1.0000
  H   H1926     1.0  0.74147  0.87013  0.73254  1.0000
  H   H1927     1.0  0.77402  0.88098  0.74666  1.0000
  H   H1928     1.0  0.72145  0.95994  0.79767  1.0000
  H   H1929     1.0  0.58208  0.56611  0.72884  1.0000
  H   H1930     1.0  0.71130  0.89561  0.80254  1.0000
  H   H1931     1.0  0.74178  0.86174  0.81067  1.0000
  H   H1932     1.0  0.75451  0.83726  0.79757  1.0000
  H   H1933     1.0  0.79765  0.84443  0.82092  1.0000
  H   H1934     1.0  0.81551  0.84682  0.79836  1.0000
  H   H1935     1.0  0.80313  0.87183  0.81133  1.0000
  H   H1936     1.0  0.71994  0.90899  0.72377  1.0000
  H   H1937     1.0  0.75279  0.92018  0.73804  1.0000
  H   H1938     1.0  0.76502  0.90336  0.71850  1.0000
  C   C1092     1.0  0.69432  0.61717  0.72347  1.0000
  C   C1093     1.0  0.65099  0.57794  0.72583  1.0000
  C   C1094     1.0  0.85748  0.54685  0.89180  1.0000
  H   H1939     1.0  0.57215  0.87780  0.73050  1.0000
  H   H1940     1.0  0.70712  0.57449  0.74455  1.0000
  H   H1941     1.0  0.72290  0.81878  0.73090  1.0000
  H   H1942     1.0  0.58318  0.54234  0.80089  1.0000
  C   C1095     1.0  0.68432  0.55919  0.70120  1.0000
  H   H1943     1.0  0.82775  0.53810  0.81963  1.0000
  C   C1096     1.0  0.92790  0.95416  0.69019  1.0000
  H   H1944     1.0  0.78486  0.96252  0.74587  1.0000
  H   H1945     1.0  0.61998  0.54599  0.81528  1.0000
  H   H1946     1.0  0.68957  0.85417  0.73964  1.0000
  C   C1097     1.0  0.62112  0.51357  0.80215  1.0000
  H   H1947     1.0  0.81557  0.57783  0.80891  1.0000
  C   C1098     1.0  0.59348  0.66074  0.68579  1.0000
  S   S248      1.0  0.83000  0.49315  0.80099  1.0000
  C   C1099     1.0  0.71361  0.56715  0.73096  1.0000
  C   C1100     1.0  0.50438  0.93176  0.74295  1.0000
  H   H1948     1.0  0.68007  0.50152  0.77791  1.0000
  C   C1101     1.0  0.56439  0.74006  0.67995  1.0000
  H   H1949     1.0  0.67933  0.54198  0.70579  1.0000
  H   H1950     1.0  0.84922  0.90700  0.68782  1.0000
  H   H1951     1.0  0.52086  0.90006  0.73112  1.0000
  H   H1952     1.0  0.54068  0.87294  0.90141  1.0000
  H   H1953     1.0  0.89966  0.56053  0.87793  1.0000
  H   H1954     1.0  0.96526  0.53206  0.71492  1.0000
  S   S249      1.0  0.91838  0.50934  0.77836  1.0000
  H   H1955     1.0  0.68243  0.90704  0.78518  1.0000
  S   S250      1.0  0.61043  0.95142  0.89205  1.0000
  C   C1102     1.0  0.96931  0.89482  0.67389  1.0000
  C   C1103     1.0  0.71657  0.55743  0.68870  1.0000
  S   S251      1.0  0.66318  0.76097  0.67934  1.0000
  H   H1956     1.0  0.55773  0.86641  0.77100  1.0000
  H   H1957     1.0  0.66185  0.56455  0.69230  1.0000
  H   H1958     1.0  0.53153  0.58012  0.91788  1.0000
  H   H1959     1.0  0.53775  0.89557  0.78900  1.0000
  H   H1960     1.0  0.95863  0.91172  0.67782  1.0000
  N   N60       1.0  0.68624  0.57494  0.71713  1.0000
  C   C1104     1.0  0.71723  0.53665  0.67663  1.0000
  H   H1961     1.0  0.93160  0.55412  0.69172  1.0000
  C   C1105     1.0  0.72118  0.54136  0.73354  1.0000
  H   H1962     1.0  0.67733  0.81539  0.73168  1.0000
  S   S252      1.0  0.94526  0.48869  0.72900  1.0000
  N   N61       1.0  0.52651  0.89517  0.76008  1.0000
  H   H1963     1.0  0.70473  0.80425  0.74996  1.0000
  H   H1964     1.0  0.67082  0.83958  0.75838  1.0000
  H   H1965     1.0  0.51102  0.97881  0.97029  1.0000
  H   H1966     1.0  0.80766  0.93313  0.67173  1.0000
  C   C1106     1.0  0.55478  0.58849  0.68986  1.0000
  C   C1107     1.0  0.63646  0.55675  0.73441  1.0000
  H   H1967     1.0  0.69742  0.53236  0.73509  1.0000
  H   H1968     1.0  0.83122  0.54133  0.88904  1.0000
  C   C1108     1.0  0.70033  0.81841  0.74011  1.0000
  H   H1969     1.0  0.63645  0.54269  0.72465  1.0000
  S   S253      1.0  0.67953  0.50261  0.83862  1.0000
  H   H1970     1.0  0.58974  0.54660  0.74749  1.0000
  H   H1971     1.0  0.75002  0.51758  0.75140  1.0000
  H   H1972     1.0  0.93970  0.54542  0.82833  1.0000
  H   H1973     1.0  0.59734  0.57576  0.75057  1.0000
  C   C1109     1.0  0.51548  0.52520  0.97244  1.0000
  H   H1974     1.0  0.81693  0.54659  0.84256  1.0000
  H   H1975     1.0  0.62277  0.85160  0.73486  1.0000
  C   C1110     1.0  0.99302  0.56701  0.80084  1.0000
  H   H1976     1.0  0.62466  0.54727  0.79083  1.0000
  C   C1111     1.0  0.85138  0.90850  0.67277  1.0000
  H   H1977     1.0  0.93945  0.83118  0.71700  1.0000
  H   H1978     1.0  0.59326  0.90438  0.77488  1.0000
  N   N62       1.0  0.55732  0.49020  0.96593  1.0000
  N   N63       1.0  0.89054  0.54115  0.84143  1.0000
  H   H1979     1.0  0.51478  0.95284  0.98309  1.0000
  C   C1112     1.0  0.52814  0.54470  0.91321  1.0000
  H   H1980     1.0  0.60465  0.93664  0.79405  1.0000
  H   H1981     1.0  0.91860  0.88856  0.69751  1.0000
  H   H1982     1.0  0.52889  0.55893  0.85944  1.0000
  H   H1983     1.0  0.86589  0.51196  0.83173  1.0000
  H   H1984     1.0  0.90188  0.85005  0.72060  1.0000
  C   C1113     1.0  0.95228  0.90016  0.84973  1.0000
  C   C1114     1.0  0.53099  0.85567  0.67367  1.0000
  C   C1115     1.0  0.67519  0.71597  0.67219  1.0000
  C   C1116     1.0  0.53904  0.50509  0.98003  1.0000
  Fe  Fe125     1.0  0.58205  0.51061  0.88420  1.0000
  H   H1985     1.0  0.59835  0.88637  0.74905  1.0000
  C   C1117     1.0  0.59667  0.95297  0.94430  1.0000
  C   C1118     1.0  0.67642  0.73801  0.66542  1.0000
  C   C1119     1.0  0.52180  0.57989  0.68984  1.0000
  C   C1120     1.0  0.89078  0.52001  0.83015  1.0000
  H   H1986     1.0  0.90320  0.91759  0.67560  1.0000
  S   S254      1.0  0.49912  0.93530  0.83495  1.0000
  H   H1987     1.0  0.58687  0.51970  0.96225  1.0000
  H   H1988     1.0  0.90932  0.83872  0.68802  1.0000
  H   H1989     1.0  0.55090  0.89876  0.70079  1.0000
  C   C1121     1.0  0.92481  0.85211  0.69352  1.0000
  C   C1122     1.0  0.83516  0.93170  0.66744  1.0000
  C   C1123     1.0  0.49907  0.89372  0.93903  1.0000
  C   C1124     1.0  0.98229  0.85686  0.80995  1.0000
  H   H1990     1.0  0.72129  0.95877  0.93277  1.0000
  H   H1991     1.0  0.52588  0.53446  0.78479  1.0000
  H   H1992     1.0  0.92669  0.89682  0.85551  1.0000
  C   C1125     1.0  0.97206  0.49646  0.71057  1.0000
  C   C1126     1.0  0.54858  0.87337  0.75757  1.0000
  C   C1127     1.0  0.60032  0.85081  0.74418  1.0000
  H   H1993     1.0  0.55481  0.91451  0.74063  1.0000
  H   H1994     1.0  0.97609  0.86935  0.86042  1.0000
  H   H1995     1.0  0.95304  0.89447  0.83534  1.0000
  C   C1128     1.0  0.55153  0.87016  0.68302  1.0000
  H   H1996     1.0  0.58183  0.50714  0.78256  1.0000
  C   C1129     1.0  0.51693  0.56564  0.92056  1.0000
  H   H1997     1.0  0.90311  0.95859  0.68396  1.0000
  H   H1998     1.0  0.94283  0.53934  0.85204  1.0000
  H   H1999     1.0  0.69048  0.98071  0.87865  1.0000
  H   H2000     1.0  0.66265  0.95915  0.93730  1.0000
  S   S255      1.0  0.54445  0.91687  0.91882  1.0000
  H   H2001     1.0  0.52874  0.53509  0.96203  1.0000
  H   H2002     1.0  0.63205  0.48954  0.95806  1.0000
  C   C1130     1.0  0.60174  0.66856  0.66608  1.0000
  C   C1131     1.0  0.50541  0.85493  0.91801  1.0000
  H   H2003     1.0  0.53292  0.86022  0.75161  1.0000
  H   H2004     1.0  0.77898  0.56617  0.81958  1.0000
  H   H2005     1.0  0.60830  0.94008  0.93486  1.0000
  Fe  Fe126     1.0  0.57579  0.98005  0.88095  1.0000
  C   C1132     1.0  0.97177  0.77149  0.81622  1.0000
  H   H2006     1.0  0.67424  0.96809  0.90927  1.0000
  C   C1133     1.0  0.52810  0.90979  0.74323  1.0000
  C   C1134     1.0  0.56158  0.49284  0.74467  1.0000
  H   H2007     1.0  0.97878  0.89306  0.87520  1.0000
  H   H2008     1.0  0.64944  0.51123  0.80397  1.0000
  C   C1135     1.0  0.60996  0.50276  0.78416  1.0000
  H   H2009     1.0  0.96308  0.75929  0.82648  1.0000
  C   C1136     1.0  0.56698  0.71437  0.67902  1.0000
  N   N64       1.0  0.90718  0.88232  0.66909  1.0000
  H   H2010     1.0  0.97667  0.57528  0.72939  1.0000
  C   C1137     1.0  0.52052  0.89323  0.92357  1.0000
  H   H2011     1.0  0.97406  0.57154  0.86349  1.0000
  H   H2012     1.0  0.56847  0.95495  0.94155  1.0000
  H   H2013     1.0  0.51444  0.49338  0.94713  1.0000
  H   H2014     1.0  0.53985  0.95277  0.72882  1.0000
  C   C1138     1.0  0.53526  0.88720  0.69381  1.0000
  C   C1139     1.0  0.96751  0.57910  0.84993  1.0000
  H   H2015     1.0  0.98628  0.57205  0.83974  1.0000
  C   C1140     1.0  0.50332  0.54126  0.98762  1.0000
  C   C1141     1.0  0.88988  0.90566  0.66707  1.0000
  H   H2016     1.0  0.85065  0.97769  0.72764  1.0000
  C   C1142     1.0  0.98088  0.88751  0.86083  1.0000
  H   H2017     1.0  0.55835  0.51189  0.98941  1.0000
  H   H2018     1.0  0.89008  0.56945  0.69153  1.0000
  H   H2019     1.0  0.83136  0.96958  0.77586  1.0000
  H   H2020     1.0  0.50646  0.94134  0.75573  1.0000
  H   H2021     1.0  0.50767  0.57856  0.70246  1.0000
  C   C1143     1.0  0.91568  0.56777  0.68475  1.0000
  Fe  Fe127     1.0  0.67123  0.79564  0.66787  1.0000
  H   H2022     1.0  0.58843  0.74691  0.67470  1.0000
  H   H2023     1.0  0.54278  0.70849  0.68474  1.0000
  H   H2024     1.0  0.62227  0.51147  0.77265  1.0000
  H   H2025     1.0  0.50512  0.77195  0.89639  1.0000
  H   H2026     1.0  0.83584  0.89584  0.66632  1.0000
  S   S256      1.0  0.59739  0.86831  0.68150  1.0000
  H   H2027     1.0  0.54204  0.74727  0.67184  1.0000
  H   H2028     1.0  0.56093  0.74544  0.69433  1.0000
  H   H2029     1.0  0.98741  0.50896  0.75994  1.0000
  H   H2030     1.0  0.50313  0.56828  0.87866  1.0000
  H   H2031     1.0  0.99027  0.60121  0.73855  1.0000
  H   H2032     1.0  0.69348  0.53689  0.66815  1.0000
  H   H2033     1.0  0.99042  0.53180  0.80682  1.0000
  H   H2034     1.0  0.50841  0.63825  0.68006  1.0000
  H   H2035     1.0  0.50843  0.83977  0.91000  1.0000
  H   H2036     1.0  0.55909  0.94386  0.79655  1.0000
  H   H2037     1.0  0.99443  0.82601  0.82493  1.0000
  H   H2038     1.0  0.50782  0.52634  0.87500  1.0000
  C   C1144     1.0  0.51278  0.87328  0.85714  1.0000
  C   C1145     1.0  0.61383  0.49414  0.94672  1.0000
  C   C1146     1.0  0.50380  0.49132  0.81222  1.0000
  C   C1147     1.0  0.99207  0.94408  0.70640  1.0000
  C   C1148     1.0  0.50225  0.56028  0.86505  1.0000
  H   H2039     1.0  0.65485  0.96852  0.95989  1.0000
  C   C1149     1.0  0.49897  0.88982  0.69523  1.0000
  H   H2040     1.0  0.71409  0.95526  0.95673  1.0000
  C   C1150     1.0  0.61235  0.97549  0.94128  1.0000
  H   H2041     1.0  0.57747  0.49005  0.73221  1.0000
  H   H2042     1.0  0.77545  0.94814  0.94913  1.0000
  Fe  Fe128     1.0  0.63619  0.84313  0.66761  1.0000
  H   H2043     1.0  0.49700  0.90857  0.94744  1.0000
  C   C1151     1.0  0.72526  0.96626  0.94629  1.0000
  H   H2044     1.0  0.76946  0.97248  0.96350  1.0000
  C   C1152     1.0  0.76414  0.96575  0.94978  1.0000
  H   H2045     1.0  0.60702  0.98071  0.92696  1.0000
  H   H2046     1.0  0.71328  0.98294  0.90975  1.0000
  H   H2047     1.0  0.77686  0.97583  0.93925  1.0000
  H   H2048     1.0  0.88561  0.98325  0.77084  1.0000
