data_image0
_chemical_formula_structural       FeS2FeSFeS3H5SFeS2FeS2FeS2FeSFeS3HCHC2HFeS2HSH2C8H4C3H2C6H5C3H2C6H4CHCHC6H5NC6HC2H9SH6CH2NC12H28NC11FeH26C2H2CH2CHCH4CHCH2CSH3SC3H2C3H5CSHCH5CHC2H3CH3CNHFeH2C3H5CNH4FeH3CHCH2CH5SHCH2CH4CH3CFeH4CH2CHFeCH4FeS2FeS2FeSCFeSFeS3FeSHFeS2FeSHFeSFeS3H5C6H4C6H8CHCHC6H4NHC3H2CHCHCH4CHC2H3CHCNC12H32CH2CHCSC2H2CH3CSCH4C3HC2NH4CH2C2H4NH4CH5CH2SHC2H3CH4CH3C2HCH5C3HNHCHCH2CH3CHCH3CSH2CH2CS2H3CSH4C3HNCH3CFeH2CH4FeS2HSFeSFeS3HSH2SFeSHFeCFeS2CFeSC7H2CH5C2HC4H3C6HCH2C3H2FeH2C2H2CH2SH6C3HCHCH4CHCHCHCH7CNHC2H2CHSHCHCH3SHCH3SH2C2HCH2CH2C3H7SHC3H2C2H3C4H4CSNH6FeH5CH5SH6C2HNHCHFeH7CH4C3HC3FeS2FeH3SCHCFeSHFeS2FeS2FeS2FeSFeS3CH3CFeS2H2SC3H2C6H4CH3C2H2CHC6H5CH3C6H6C3H5CHCHC3HC2HCH2C2H5NC8H17CHCHC2HCFeC2H2CH4SH5CHCH4FeC2H2N2HC2H10CH3CH8CHCHCSH3CHFeH2SNC2HCHCHCHSHCH2CHCH3C2FeH2C2SH4CHSC3H8CHC2HCNCH4NHCHCH3C2H2CH7CH6NH2CH3SH2CH2CHCHCSH2FeHSHCHCSH4C7H4C2HCHCSHNCHCH5CHC2HSCH3CHCH3CH4C2H2C2H3NH9CHCH6CH5CH4CH7CHCH2CFeSHFeS2FeSFeS3NS2FeS2FeS2FeSFeS2HSHSC5HC2H2C6H2CHC6H4CHC6H4C6H4C6H5NC3NC3HCHFeCH2CH8NC11HCH2CH11C2H6C2NC12H20CH7NHCH2CHCH4CHCH3C2H3CHCHCH8CNH10CHC3H2SHCHCH3C2H10CNH7C2HC2H4C3H7NH2CH2C3H2CHCH5CHCH3CHCH2C2H3CH5NH6CH4C2H2CH5CH5CH7CH5CH2CHC2HCHFeC3HNH5CH3C2H5CH4SH3FeHCH3CH3CH8CNCH3CHCH6CHCH7CHC2H3CH2S2FeSHFeCFeSHSFeSFeHCFeSH2SH2CH2CHC2H2C3HC7H2CHCHC2H3CSHC13H5C3H2CHCHCH5NH3C2H4CH6SH2SC2H2FeH2C2HCHC4HSH2CH3C4H2CHC3HCH4CH3SCH4NHCSHSH2CNCH2CH2S2H3CH7CSH4SHC2H3C2H3SH3C2HCHCHC2SH4S2H6CHCH2CH4CH6CH4CH8CH2CFeS2FeSFeS3FeS2HSHCHFeSFe2S2FeS2FeS2FeH4NC8HCH2C3H2C2H2C6H4C2H3C6H7CH2NC11H26C2H3C2H3CH5C3H5C4SCH7CHNCHC3H2CHC3H2SH2C2HCHC4H2NH3CH7CH2CH2CHCNC4SC6H9CH10CHCHC2H5CH2CH2CHC2H2C3HCH2CHSH2NSCH5C2H3SH5CSHC2H6FeHC2HFeS2CFeS2FeS2FeSFeS3H2SCHFeS2FeS2FeSFeS3HCHC8H4C6H4C3HC2H3C2HCH2C2H2C6H7CHC3H6CH2C2HCHCH2C2H5SH2C2HCH9NH2NC5HC3NHCH9SHNH12CHC5FeNC12H30C4HCNCH3C2HCH22C2H4CH2CHC4H4CHCH9C2H3CH3CH2CFeCHSH4C2H5CH6CH2CHCH2CH2CHCH4CH2CH4CH2C2H2C2H2CHCH2C3H6CH4CH3CH5CH2CHCH2FeS2FeCFeHS2FeS2H4CNHC3HC3FeHC6H5CSCHCHCH2CHCHCH2SH4CH3FeH2CH6SH5CH2CH5CH2CHNCHC2HCHCH2CHFeC2H4CH2C3H2CH7S2HCHC3H5CH2C2H5CH2SH3CH2CH4C2FeS2HSHFeS2CHFeSFeS2FeS2FeSFeS3HCFeHCHFeS2C2SH2CHC6H4C2H3C6H6C3H3C6H6FeC6HCH4CHCHCH11SCSH3CHCH4CHFeH3CHC3HCH6CH2C3H3CH4NC5HC4H2CH22FeCH3SH3CNHCH6C4H2FeH2C2HCH2C2HNCHCHNC3H3NH2C4H4CH2CHCSH3CH6CH5CHCH2CHCH3C3H3C2HCH3CSH2CSCH4FeCSH2FeS2FeS2FeSFeS3FeS2FeS2FeS2FeHFeS3CH2C2H3C6H5C8H5CH2NS2H4C6H9CH4SNH3CH5CH2C2H4CH2CH2CH6C3H2CHC2H3CHNHCNC3H2C3H2CH6C2H6C2HCH3CH6C2H3CH2CSHCH5C2HC2FeH2CHCH4CHCH3C4HCHCHC2H3CH2CH2C2H4CH4CHNHC2H2C3H9CH2C2H2CH5CH2CSH5CH4C2HCFeS2HSCFeSFeSCSFeHSFeCHFeS2FeSFeHS2FeSHC2HC3H2C7H4C6H3CHC3HCHC3H4C2H4CH2CH2CH2C2HCH3CHNCH2CHCHCHCH3SHSH6CH3C4H6C2H3SH3FeCHCH3CH3CH2NCSHCH3SHCH2NHCH2CSCH17CH4CHSH2CHCH5CHC2HCSHC2HCH8SHCH2FeS2FeS2FeS2FeSFeS3FeS2H3C3SFeSHNHFeCH2CH4CHC2HC7H4C6H5CHCHC6H5NHC2H3NCHCH2C2HCHC2HSH5C2H3CH2FeH2CFeH2CH4C2H4NH2CH3C2HC2H4C2SH2FeC2NHC4H3C2HCH4CHCSH7CHCH4NH4C2HCHCHC2H5C3H5CH3CHS2C2H3CHFeSH3CH3FeHCH6FeHCHC2H2CHCH4CHSCHCH3C2H3CH4C2H7CH5CH6C2SNHC3
_chemical_formula_sum              "Fe144 S288 H2304 C1296 N72"
_cell_length_a       53.254
_cell_length_b       53.2416
_cell_length_c       74.2385
_cell_angle_alpha    90.6906
_cell_angle_beta     91.7713
_cell_angle_gamma    116.427

_space_group_name_H-M_alt    "P 1"
_space_group_IT_number       1

loop_
  _space_group_symop_operation_xyz
  'x, y, z'

loop_
  _atom_site_type_symbol
  _atom_site_label
  _atom_site_symmetry_multiplicity
  _atom_site_fract_x
  _atom_site_fract_y
  _atom_site_fract_z
  _atom_site_occupancy
  Fe  Fe1       1.0  0.21091  0.05721  0.10341  1.0000
  S   S1        1.0  0.25400  0.07532  0.09258  1.0000
  S   S2        1.0  0.20283  0.08857  0.11975  1.0000
  Fe  Fe2       1.0  0.25801  0.04055  0.10723  1.0000
  S   S3        1.0  0.29732  0.04815  0.12502  1.0000
  Fe  Fe3       1.0  0.23395  0.04535  0.06869  1.0000
  S   S4        1.0  0.24397  0.06313  0.04017  1.0000
  S   S5        1.0  0.21531  0.02313  0.11874  1.0000
  S   S6        1.0  0.19010  0.03003  0.07863  1.0000
  H   H1        1.0  0.10369  0.27007  0.04996  1.0000
  H   H2        1.0  0.47384  0.29458  0.19139  1.0000
  H   H3        1.0  0.27489  0.07346  0.15195  1.0000
  H   H4        1.0  0.17246  0.32549  0.03650  1.0000
  H   H5        1.0  0.32828  0.27324  0.11792  1.0000
  S   S7        1.0  0.45393  0.20537  0.21781  1.0000
  Fe  Fe4       1.0  0.37683  0.10912  0.22520  1.0000
  S   S8        1.0  0.33639  0.09401  0.20689  1.0000
  S   S9        1.0  0.42028  0.12577  0.21471  1.0000
  Fe  Fe5       1.0  0.18588  0.21426  0.08355  1.0000
  S   S10       1.0  0.23190  0.23702  0.07915  1.0000
  S   S11       1.0  0.16195  0.16760  0.07865  1.0000
  Fe  Fe6       1.0  0.17893  0.26755  0.08567  1.0000
  S   S12       1.0  0.22496  0.29440  0.08082  1.0000
  S   S13       1.0  0.15021  0.28896  0.08747  1.0000
  Fe  Fe7       1.0  0.22000  0.26200  0.05927  1.0000
  S   S14       1.0  0.23825  0.26508  0.03131  1.0000
  Fe  Fe8       1.0  0.23319  0.26731  0.10124  1.0000
  S   S15       1.0  0.27231  0.28604  0.12105  1.0000
  S   S16       1.0  0.17397  0.23770  0.06282  1.0000
  S   S17       1.0  0.18727  0.24208  0.10709  1.0000
  H   H6        1.0  0.34494  0.25461  0.10687  1.0000
  C   C1        1.0  0.47580  0.45625  0.22982  1.0000
  H   H7        1.0  0.40946  0.21978  0.23013  1.0000
  C   C2        1.0  0.22324  0.00631  0.99763  1.0000
  C   C3        1.0  0.32567  0.25211  0.11361  1.0000
  H   H8        1.0  0.45048  0.40913  0.19781  1.0000
  Fe  Fe9       1.0  0.35736  0.33476  0.21993  1.0000
  S   S18       1.0  0.31399  0.31607  0.20458  1.0000
  S   S19       1.0  0.39723  0.35793  0.20552  1.0000
  H   H9        1.0  0.00597  0.20122  0.02347  1.0000
  S   S20       1.0  0.01577  0.22881  0.08578  1.0000
  H   H10       1.0  0.29476  0.20515  0.01419  1.0000
  H   H11       1.0  0.33984  0.24341  0.13900  1.0000
  C   C4        1.0  0.29409  0.22971  0.13949  1.0000
  C   C5        1.0  0.32092  0.23341  0.12988  1.0000
  C   C6        1.0  0.11283  0.27189  0.08713  1.0000
  C   C7        1.0  0.09794  0.28780  0.08425  1.0000
  C   C8        1.0  0.06828  0.27499  0.08352  1.0000
  C   C9        1.0  0.05314  0.24615  0.08609  1.0000
  C   C10       1.0  0.06807  0.23030  0.08907  1.0000
  C   C11       1.0  0.09768  0.24300  0.08945  1.0000
  H   H12       1.0  0.10939  0.31017  0.08248  1.0000
  H   H13       1.0  0.05715  0.28750  0.08128  1.0000
  H   H14       1.0  0.05661  0.20800  0.09115  1.0000
  H   H15       1.0  0.10877  0.23047  0.09179  1.0000
  C   C12       1.0  0.22458  0.26837  0.00966  1.0000
  C   C13       1.0  0.21168  0.20431  0.16418  1.0000
  C   C14       1.0  0.20258  0.27585  0.00754  1.0000
  H   H16       1.0  0.13869  0.24425  0.00858  1.0000
  H   H17       1.0  0.19304  0.27935  0.01934  1.0000
  C   C15       1.0  0.28311  0.29468  0.14438  1.0000
  C   C16       1.0  0.31200  0.30950  0.14907  1.0000
  C   C17       1.0  0.32184  0.31608  0.16729  1.0000
  C   C18       1.0  0.30290  0.30802  0.18123  1.0000
  C   C19       1.0  0.27400  0.29324  0.17654  1.0000
  C   C20       1.0  0.26417  0.28652  0.15832  1.0000
  H   H18       1.0  0.32698  0.31591  0.13851  1.0000
  H   H19       1.0  0.34410  0.32749  0.17054  1.0000
  H   H20       1.0  0.25905  0.28685  0.18712  1.0000
  H   H21       1.0  0.24192  0.27491  0.15509  1.0000
  H   H22       1.0  0.15074  0.27456  0.03907  1.0000
  C   C21       1.0  0.23745  0.06295  0.00300  1.0000
  C   C22       1.0  0.41914  0.26019  0.21847  1.0000
  C   C23       1.0  0.42337  0.23618  0.22172  1.0000
  H   H23       1.0  0.22846  0.42848  0.14971  1.0000
  H   H24       1.0  0.00223  0.23292  0.02690  1.0000
  C   C24       1.0  0.19197  0.11051  0.10789  1.0000
  C   C25       1.0  0.20166  0.13847  0.11385  1.0000
  C   C26       1.0  0.19307  0.15645  0.10473  1.0000
  C   C27       1.0  0.17395  0.14610  0.09001  1.0000
  C   C28       1.0  0.16407  0.11806  0.08414  1.0000
  C   C29       1.0  0.17339  0.10036  0.09291  1.0000
  H   H25       1.0  0.21585  0.14611  0.12550  1.0000
  H   H26       1.0  0.20062  0.17804  0.10934  1.0000
  H   H27       1.0  0.14907  0.10998  0.07285  1.0000
  H   H28       1.0  0.16560  0.07868  0.08842  1.0000
  C   C30       1.0  0.23530  0.04653  0.01819  1.0000
  H   H29       1.0  0.22794  0.18195  0.14789  1.0000
  C   C31       1.0  0.22775  0.01798  0.01535  1.0000
  H   H30       1.0  0.27075  0.42360  0.14050  1.0000
  C   C32       1.0  0.30863  0.06263  0.14746  1.0000
  C   C33       1.0  0.29381  0.07345  0.15770  1.0000
  C   C34       1.0  0.30300  0.08352  0.17564  1.0000
  C   C35       1.0  0.32722  0.08315  0.18365  1.0000
  C   C36       1.0  0.34252  0.07319  0.17320  1.0000
  C   C37       1.0  0.33327  0.06303  0.15529  1.0000
  H   H31       1.0  0.29085  0.09105  0.18352  1.0000
  H   H32       1.0  0.36110  0.07261  0.17905  1.0000
  H   H33       1.0  0.34508  0.05491  0.14756  1.0000
  H   H34       1.0  0.24935  0.03311  0.17787  1.0000
  H   H35       1.0  0.06201  0.22456  0.05107  1.0000
  N   N1        1.0  0.25369  0.36435  0.14342  1.0000
  C   C38       1.0  0.23292  0.33400  0.14508  1.0000
  C   C39       1.0  0.28015  0.36954  0.15419  1.0000
  C   C40       1.0  0.26088  0.37137  0.12404  1.0000
  C   C41       1.0  0.27203  0.35293  0.11395  1.0000
  C   C42       1.0  0.20569  0.32361  0.13296  1.0000
  C   C43       1.0  0.27715  0.36583  0.17485  1.0000
  H   H36       1.0  0.30515  0.20910  0.18181  1.0000
  C   C44       1.0  0.27864  0.36218  0.09454  1.0000
  C   C45       1.0  0.43764  0.28150  0.20766  1.0000
  H   H37       1.0  0.22637  0.32975  0.15926  1.0000
  H   H38       1.0  0.24290  0.32005  0.14212  1.0000
  H   H39       1.0  0.28841  0.35473  0.14970  1.0000
  H   H40       1.0  0.29715  0.39079  0.15161  1.0000
  H   H41       1.0  0.24237  0.37037  0.11606  1.0000
  H   H42       1.0  0.27730  0.39339  0.12317  1.0000
  H   H43       1.0  0.25628  0.33064  0.11341  1.0000
  H   H44       1.0  0.29163  0.35443  0.12055  1.0000
  H   H45       1.0  0.21032  0.32282  0.11854  1.0000
  S   S21       1.0  0.37150  0.30532  0.23387  1.0000
  H   H46       1.0  0.26529  0.34324  0.17783  1.0000
  H   H47       1.0  0.05155  0.25915  0.03651  1.0000
  H   H48       1.0  0.00121  0.46871  0.12871  1.0000
  H   H49       1.0  0.25953  0.36046  0.08705  1.0000
  H   H50       1.0  0.29528  0.38416  0.09428  1.0000
  H   H51       1.0  0.28623  0.34841  0.08759  1.0000
  C   C46       1.0  0.43316  0.41463  0.17266  1.0000
  H   H52       1.0  0.19449  0.27963  0.13787  1.0000
  H   H53       1.0  0.31753  0.40008  0.18355  1.0000
  N   N2        1.0  0.23504  0.14656  0.04686  1.0000
  C   C47       1.0  0.21864  0.11952  0.03607  1.0000
  C   C48       1.0  0.26306  0.16377  0.03856  1.0000
  C   C49       1.0  0.24081  0.13886  0.06556  1.0000
  C   C50       1.0  0.21870  0.16338  0.04861  1.0000
  C   C51       1.0  0.21176  0.17437  0.03087  1.0000
  C   C52       1.0  0.19000  0.09867  0.04339  1.0000
  C   C53       1.0  0.25958  0.16372  0.07862  1.0000
  C   C54       1.0  0.26433  0.16165  0.01773  1.0000
  C   C55       1.0  0.24069  0.38250  0.15034  1.0000
  C   C56       1.0  0.19137  0.18691  0.03389  1.0000
  C   C57       1.0  0.17583  0.07231  0.03121  1.0000
  C   C58       1.0  0.27011  0.15345  0.09500  1.0000
  H   H54       1.0  0.23168  0.10810  0.03489  1.0000
  H   H55       1.0  0.21417  0.12355  0.02203  1.0000
  H   H56       1.0  0.27100  0.18638  0.04249  1.0000
  H   H57       1.0  0.27921  0.15752  0.04395  1.0000
  H   H58       1.0  0.25043  0.12406  0.06460  1.0000
  H   H59       1.0  0.22102  0.12749  0.07267  1.0000
  H   H60       1.0  0.19896  0.15128  0.05564  1.0000
  H   H61       1.0  0.23051  0.18235  0.05741  1.0000
  H   H62       1.0  0.20204  0.15753  0.02042  1.0000
  H   H63       1.0  0.23122  0.19131  0.02573  1.0000
  H   H64       1.0  0.19260  0.09141  0.05693  1.0000
  H   H65       1.0  0.17547  0.10841  0.04406  1.0000
  H   H66       1.0  0.24726  0.17441  0.08365  1.0000
  H   H67       1.0  0.27827  0.17954  0.07213  1.0000
  H   H68       1.0  0.26240  0.14066  0.01368  1.0000
  H   H69       1.0  0.24736  0.16459  0.01055  1.0000
  H   H70       1.0  0.22616  0.00503  0.02679  1.0000
  H   H71       1.0  0.11757  0.18384  0.06185  1.0000
  H   H72       1.0  0.25380  0.02006  0.19938  1.0000
  H   H73       1.0  0.17091  0.17054  0.03821  1.0000
  H   H74       1.0  0.20013  0.20398  0.04436  1.0000
  H   H75       1.0  0.18786  0.19595  0.02120  1.0000
  H   H76       1.0  0.15495  0.05833  0.03638  1.0000
  H   H77       1.0  0.17291  0.07764  0.01716  1.0000
  H   H78       1.0  0.18859  0.06055  0.03119  1.0000
  H   H79       1.0  0.25228  0.13715  0.10199  1.0000
  H   H80       1.0  0.28430  0.14442  0.09078  1.0000
  H   H81       1.0  0.28187  0.17126  0.10464  1.0000
  N   N3        1.0  0.38065  0.17907  0.17286  1.0000
  C   C59       1.0  0.40491  0.17205  0.17041  1.0000
  C   C60       1.0  0.39021  0.21036  0.17143  1.0000
  C   C61       1.0  0.37069  0.17112  0.19174  1.0000
  C   C62       1.0  0.35626  0.16261  0.15983  1.0000
  C   C63       1.0  0.36258  0.16527  0.13956  1.0000
  C   C64       1.0  0.39772  0.14043  0.17045  1.0000
  C   C65       1.0  0.34692  0.17854  0.19759  1.0000
  C   C66       1.0  0.41364  0.22657  0.15818  1.0000
  C   C67       1.0  0.41674  0.25625  0.15552  1.0000
  C   C68       1.0  0.33750  0.14403  0.12816  1.0000
  C   C69       1.0  0.42374  0.13607  0.16722  1.0000
  Fe  Fe10      1.0  0.42907  0.16449  0.23135  1.0000
  H   H82       1.0  0.42162  0.18311  0.18110  1.0000
  H   H83       1.0  0.41515  0.17978  0.15750  1.0000
  H   H84       1.0  0.37202  0.21457  0.16796  1.0000
  H   H85       1.0  0.39880  0.22130  0.18474  1.0000
  H   H86       1.0  0.38867  0.18103  0.20177  1.0000
  H   H87       1.0  0.36247  0.14820  0.19343  1.0000
  H   H88       1.0  0.34643  0.13992  0.16310  1.0000
  H   H89       1.0  0.33929  0.16911  0.16137  1.0000
  H   H90       1.0  0.38087  0.16143  0.13661  1.0000
  H   H91       1.0  0.36661  0.18650  0.13511  1.0000
  H   H92       1.0  0.38947  0.13112  0.18351  1.0000
  H   H93       1.0  0.38188  0.12848  0.15963  1.0000
  H   H94       1.0  0.32726  0.16606  0.18950  1.0000
  H   H95       1.0  0.35281  0.20115  0.19609  1.0000
  H   H96       1.0  0.43407  0.22851  0.16378  1.0000
  H   H97       1.0  0.40957  0.21593  0.14477  1.0000
  H   H98       1.0  0.39739  0.25552  0.14896  1.0000
  H   H99       1.0  0.42094  0.26790  0.16866  1.0000
  H   H100      1.0  0.43463  0.26788  0.14679  1.0000
  H   H101      1.0  0.31857  0.14732  0.13009  1.0000
  H   H102      1.0  0.34238  0.14643  0.11366  1.0000
  H   H103      1.0  0.33281  0.12221  0.13180  1.0000
  H   H104      1.0  0.43159  0.14300  0.15358  1.0000
  H   H105      1.0  0.44069  0.14798  0.17750  1.0000
  H   H106      1.0  0.41831  0.11343  0.16818  1.0000
  H   H107      1.0  0.17676  0.29448  0.15162  1.0000
  C   C70       1.0  0.25426  0.01720  0.18457  1.0000
  C   C71       1.0  0.45965  0.27841  0.19986  1.0000
  H   H108      1.0  0.16442  0.11599  0.00719  1.0000
  H   H109      1.0  0.11672  0.20756  0.00587  1.0000
  C   C72       1.0  0.11086  0.17689  0.04759  1.0000
  H   H110      1.0  0.32290  0.17676  0.22103  1.0000
  H   H111      1.0  0.08443  0.18109  0.02645  1.0000
  C   C73       1.0  0.23518  0.20368  0.15318  1.0000
  H   H112      1.0  0.12690  0.10281  0.00704  1.0000
  C   C74       1.0  0.10713  0.22199  0.04103  1.0000
  H   H113      1.0  0.23012  0.37450  0.16321  1.0000
  H   H114      1.0  0.27867  0.16437  0.17675  1.0000
  H   H115      1.0  0.07333  0.18192  0.04900  1.0000
  H   H116      1.0  0.16644  0.28601  0.12814  1.0000
  C   C75       1.0  0.14962  0.31420  0.03880  1.0000
  H   H117      1.0  0.25994  0.45289  0.16182  1.0000
  C   C76       1.0  0.26284  0.13058  0.15713  1.0000
  H   H118      1.0  0.47587  0.05098  0.18135  1.0000
  H   H119      1.0  0.33157  0.26665  0.16377  1.0000
  C   C77       1.0  0.45843  0.41806  0.18461  1.0000
  S   S22       1.0  0.99224  0.28862  0.06986  1.0000
  H   H120      1.0  0.24352  0.08509  0.00494  1.0000
  H   H121      1.0  0.26603  0.37705  0.18077  1.0000
  H   H122      1.0  0.07398  0.21255  0.00540  1.0000
  S   S23       1.0  0.24209  0.01189  0.08225  1.0000
  C   C78       1.0  0.26581  0.15902  0.16399  1.0000
  C   C79       1.0  0.24509  0.43032  0.15980  1.0000
  C   C80       1.0  0.46391  0.25482  0.20316  1.0000
  H   H123      1.0  0.25051  0.12434  0.14412  1.0000
  H   H124      1.0  0.30761  0.24267  0.10370  1.0000
  C   C81       1.0  0.32485  0.25260  0.17538  1.0000
  C   C82       1.0  0.18463  0.29412  0.13799  1.0000
  C   C83       1.0  0.04528  0.23902  0.02888  1.0000
  H   H125      1.0  0.20693  0.18969  0.17554  1.0000
  H   H126      1.0  0.27661  0.22097  0.12908  1.0000
  H   H127      1.0  0.04829  0.24323  0.01432  1.0000
  H   H128      1.0  0.22361  0.38129  0.14082  1.0000
  H   H129      1.0  0.28375  0.13129  0.15528  1.0000
  C   C84       1.0  0.05491  0.30558  0.00229  1.0000
  S   S24       1.0  0.43876  0.43474  0.22817  1.0000
  H   H130      1.0  0.05369  0.29208  0.01379  1.0000
  C   C85       1.0  0.44606  0.23373  0.21415  1.0000
  H   H131      1.0  0.31906  0.21290  0.12493  1.0000
  H   H132      1.0  0.26870  0.23592  0.16875  1.0000
  H   H133      1.0  0.21766  0.22585  0.16959  1.0000
  H   H134      1.0  0.32830  0.21655  0.16392  1.0000
  H   H135      1.0  0.25823  0.20230  0.17767  1.0000
  C   C86       1.0  0.01397  0.22122  0.03146  1.0000
  H   H136      1.0  0.29607  0.25085  0.14298  1.0000
  C   C87       1.0  0.11833  0.22854  0.00272  1.0000
  C   C88       1.0  0.09185  0.18942  0.04038  1.0000
  H   H137      1.0  0.09631  0.27828  0.02793  1.0000
  H   H138      1.0  0.34521  0.24746  0.20013  1.0000
  H   H139      1.0  0.12971  0.18331  0.03938  1.0000
  C   C89       1.0  0.31149  0.22117  0.16926  1.0000
  H   H140      1.0  0.03666  0.31043  0.00276  1.0000
  H   H141      1.0  0.23805  0.21762  0.14161  1.0000
  H   H142      1.0  0.27774  0.41765  0.16351  1.0000
  C   C90       1.0  0.35077  0.26025  0.18785  1.0000
  N   N4        1.0  0.28689  0.21163  0.15583  1.0000
  H   H143      1.0  0.09115  0.24925  0.00301  1.0000
  Fe  Fe11      1.0  0.41403  0.38682  0.23008  1.0000
  H   H144      1.0  0.30975  0.25726  0.18299  1.0000
  H   H145      1.0  0.10960  0.22875  0.05551  1.0000
  C   C91       1.0  0.09291  0.23180  0.01018  1.0000
  C   C92       1.0  0.10659  0.26718  0.03543  1.0000
  C   C93       1.0  0.06275  0.22423  0.03607  1.0000
  H   H146      1.0  0.19236  0.19766  0.15542  1.0000
  H   H147      1.0  0.23538  0.42220  0.17285  1.0000
  H   H148      1.0  0.35948  0.28273  0.19216  1.0000
  H   H149      1.0  0.13888  0.32503  0.03151  1.0000
  H   H150      1.0  0.05109  0.20176  0.03171  1.0000
  C   C94       1.0  0.27917  0.18183  0.14973  1.0000
  N   N5        1.0  0.09281  0.23626  0.03036  1.0000
  H   H151      1.0  0.29806  0.18016  0.14512  1.0000
  H   H152      1.0  0.26448  0.17558  0.13767  1.0000
  H   H153      1.0  0.12884  0.22862  0.03677  1.0000
  H   H154      1.0  0.00997  0.21652  0.04593  1.0000
  Fe  Fe12      1.0  0.41169  0.32983  0.22021  1.0000
  H   H155      1.0  0.24451  0.15641  0.16703  1.0000
  H   H156      1.0  0.36733  0.25720  0.18080  1.0000
  H   H157      1.0  0.14180  0.28445  0.01736  1.0000
  C   C95       1.0  0.26087  0.41420  0.15324  1.0000
  H   H158      1.0  0.25167  0.11425  0.16705  1.0000
  C   C96       1.0  0.26284  0.21375  0.16480  1.0000
  H   H159      1.0  0.42170  0.42488  0.17949  1.0000
  H   H160      1.0  0.09930  0.15363  0.04709  1.0000
  C   C97       1.0  0.13826  0.28375  0.03201  1.0000
  H   H161      1.0  0.14660  0.31520  0.05347  1.0000
  H   H162      1.0  0.35895  0.18454  0.22618  1.0000
  H   H163      1.0  0.33362  0.14915  0.21955  1.0000
  H   H164      1.0  0.19518  0.33736  0.13439  1.0000
  H   H165      1.0  0.41851  0.39207  0.17030  1.0000
  S   S25       1.0  0.43435  0.31221  0.20285  1.0000
  H   H166      1.0  0.40176  0.26229  0.22427  1.0000
  C   C98       1.0  0.30592  0.37695  0.18463  1.0000
  H   H167      1.0  0.48140  0.25303  0.19725  1.0000
  H   H168      1.0  0.31858  0.36717  0.17889  1.0000
  C   C99       1.0  0.34027  0.17180  0.21731  1.0000
  H   H169      1.0  0.98870  0.41031  0.18893  1.0000
  H   H170      1.0  0.30326  0.37185  0.19913  1.0000
  H   H171      1.0  0.27578  0.02068  0.18127  1.0000
  H   H172      1.0  0.44008  0.42467  0.15952  1.0000
  C   C100      1.0  0.23704  0.26439  0.99411  1.0000
  H   H173      1.0  0.25427  0.25894  0.99555  1.0000
  H   H174      1.0  0.07463  0.32538  0.00401  1.0000
  H   H175      1.0  0.31007  0.18112  0.01757  1.0000
  C   C101      1.0  0.14652  0.11923  0.00170  1.0000
  Fe  Fe13      1.0  0.19857  0.99725  0.09299  1.0000
  H   H176      1.0  0.14884  0.14008  0.00639  1.0000
  H   H177      1.0  0.29810  0.02900  0.99916  1.0000
  H   H178      1.0  0.45874  0.38016  0.17488  1.0000
  H   H179      1.0  0.98274  0.44865  0.15784  1.0000
  C   C102      1.0  0.29227  0.18366  0.01111  1.0000
  H   H180      1.0  0.23041  0.99924  0.15080  1.0000
  H   H181      1.0  0.47202  0.44088  0.18663  1.0000
  C   C103      1.0  0.19375  0.27997  0.99013  1.0000
  H   H182      1.0  0.29288  0.18116  0.99627  1.0000
  Fe  Fe14      1.0  0.98368  0.24521  0.07836  1.0000
  C   C104      1.0  0.47421  0.40269  0.17612  1.0000
  H   H183      1.0  0.47553  0.36949  0.20175  1.0000
  H   H184      1.0  0.47820  0.35318  0.16661  1.0000
  H   H185      1.0  0.47879  0.40964  0.16201  1.0000
  H   H186      1.0  0.17734  0.28660  0.98871  1.0000
  Fe  Fe15      1.0  0.40041  0.13165  0.26459  1.0000
  S   S26       1.0  0.39363  0.14346  0.29346  1.0000
  S   S27       1.0  0.44506  0.15078  0.25579  1.0000
  Fe  Fe16      1.0  0.38228  0.13762  0.42724  1.0000
  S   S28       1.0  0.35357  0.09272  0.41833  1.0000
  S   S29       1.0  0.36247  0.16770  0.42992  1.0000
  Fe  Fe17      1.0  0.43346  0.12641  0.42782  1.0000
  S   S30       1.0  0.40840  0.08173  0.41862  1.0000
  C   C105      1.0  0.35481  0.02870  0.47954  1.0000
  Fe  Fe18      1.0  0.38718  0.09855  0.39869  1.0000
  S   S31       1.0  0.38014  0.08253  0.36913  1.0000
  Fe  Fe19      1.0  0.37748  0.08003  0.43933  1.0000
  S   S32       1.0  0.36134  0.04004  0.45663  1.0000
  S   S33       1.0  0.41448  0.14356  0.40671  1.0000
  S   S34       1.0  0.40374  0.12461  0.44934  1.0000
  Fe  Fe20      1.0  0.39005  0.33825  0.25651  1.0000
  S   S35       1.0  0.39734  0.32882  0.28603  1.0000
  H   H187      1.0  0.45865  0.18905  0.29491  1.0000
  Fe  Fe21      1.0  0.40930  0.33153  0.41955  1.0000
  S   S36       1.0  0.36342  0.32014  0.41699  1.0000
  S   S37       1.0  0.42789  0.30097  0.42509  1.0000
  Fe  Fe22      1.0  0.42570  0.39276  0.41066  1.0000
  S   S38       1.0  0.38053  0.38488  0.40803  1.0000
  H   H188      1.0  0.42356  0.05269  0.45781  1.0000
  Fe  Fe23      1.0  0.37447  0.36028  0.43353  1.0000
  S   S39       1.0  0.34693  0.35758  0.45798  1.0000
  Fe  Fe24      1.0  0.37439  0.34614  0.39194  1.0000
  S   S40       1.0  0.35112  0.33506  0.36416  1.0000
  S   S41       1.0  0.42033  0.37058  0.43691  1.0000
  S   S42       1.0  0.41948  0.35509  0.39375  1.0000
  H   H189      1.0  0.40557  0.99369  0.42488  1.0000
  H   H190      1.0  0.34831  0.18860  0.48712  1.0000
  H   H191      1.0  0.36896  0.41130  0.37306  1.0000
  H   H192      1.0  0.42202  0.27246  0.33821  1.0000
  H   H193      1.0  0.43949  0.13421  0.48394  1.0000
  C   C106      1.0  0.38488  0.33252  0.30755  1.0000
  C   C107      1.0  0.39920  0.33020  0.32325  1.0000
  C   C108      1.0  0.38942  0.33129  0.34059  1.0000
  C   C109      1.0  0.36511  0.33481  0.34257  1.0000
  C   C110      1.0  0.35092  0.33739  0.32689  1.0000
  C   C111      1.0  0.36082  0.33649  0.30952  1.0000
  H   H194      1.0  0.41790  0.32726  0.32197  1.0000
  H   H195      1.0  0.40039  0.32883  0.35244  1.0000
  H   H196      1.0  0.33200  0.33995  0.32817  1.0000
  H   H197      1.0  0.34941  0.33819  0.29766  1.0000
  C   C112      1.0  0.38103  0.20483  0.42916  1.0000
  C   C113      1.0  0.41033  0.21886  0.43056  1.0000
  C   C114      1.0  0.42430  0.24833  0.42950  1.0000
  C   C115      1.0  0.40921  0.26401  0.42666  1.0000
  C   C116      1.0  0.37991  0.24997  0.42524  1.0000
  C   C117      1.0  0.36590  0.22062  0.42687  1.0000
  H   H198      1.0  0.42225  0.20705  0.43248  1.0000
  H   H199      1.0  0.44699  0.25901  0.43066  1.0000
  H   H200      1.0  0.36808  0.26173  0.42287  1.0000
  H   H201      1.0  0.34323  0.21012  0.42614  1.0000
  H   H202      1.0  0.44580  0.24993  0.26230  1.0000
  H   H203      1.0  0.46567  0.29149  0.24357  1.0000
  H   H204      1.0  0.33269  0.20639  0.27566  1.0000
  H   H205      1.0  0.43472  0.29948  0.27577  1.0000
  C   C118      1.0  0.35327  0.23133  0.48589  1.0000
  H   H206      1.0  0.40618  0.04485  0.36261  1.0000
  C   C119      1.0  0.34660  0.00020  0.48321  1.0000
  H   H207      1.0  0.27585  0.39869  0.47041  1.0000
  C   C120      1.0  0.39107  0.12626  0.31432  1.0000
  C   C121      1.0  0.38543  0.09801  0.31515  1.0000
  C   C122      1.0  0.38202  0.08497  0.33199  1.0000
  C   C123      1.0  0.38456  0.10000  0.34824  1.0000
  C   C124      1.0  0.39078  0.12837  0.34742  1.0000
  C   C125      1.0  0.39383  0.14135  0.33059  1.0000
  H   H208      1.0  0.38311  0.08602  0.30281  1.0000
  H   H209      1.0  0.37723  0.06299  0.33240  1.0000
  H   H210      1.0  0.39317  0.14015  0.35983  1.0000
  H   H211      1.0  0.39825  0.16320  0.33015  1.0000
  N   N6        1.0  0.44714  0.41786  0.34037  1.0000
  H   H212      1.0  0.44535  0.18150  0.35548  1.0000
  C   C126      1.0  0.32352  0.25823  0.45594  1.0000
  C   C127      1.0  0.41816  0.25845  0.30162  1.0000
  C   C128      1.0  0.45116  0.41699  0.28764  1.0000
  H   H213      1.0  0.45922  0.44928  0.30775  1.0000
  H   H214      1.0  0.45819  0.24143  0.31270  1.0000
  C   C129      1.0  0.41693  0.41285  0.34132  1.0000
  H   H215      1.0  0.46250  0.45332  0.35925  1.0000
  C   C130      1.0  0.40632  0.41412  0.36044  1.0000
  H   H216      1.0  0.47515  0.14506  0.47764  1.0000
  C   C131      1.0  0.37660  0.41170  0.35926  1.0000
  H   H217      1.0  0.36406  0.20630  0.46697  1.0000
  H   H218      1.0  0.40258  0.39189  0.33521  1.0000
  H   H219      1.0  0.41322  0.42844  0.33325  1.0000
  H   H220      1.0  0.33203  0.22408  0.47960  1.0000
  C   C132      1.0  0.46109  0.30423  0.25372  1.0000
  H   H221      1.0  0.43952  0.27136  0.30777  1.0000
  C   C133      1.0  0.41524  0.31722  0.46926  1.0000
  C   C134      1.0  0.46559  0.44843  0.34511  1.0000
  H   H222      1.0  0.43619  0.36224  0.47569  1.0000
  H   H223      1.0  0.43466  0.03506  0.36370  1.0000
  H   H224      1.0  0.34842  0.30334  0.45996  1.0000
  C   C135      1.0  0.34703  0.37867  0.47725  1.0000
  H   H225      1.0  0.30817  0.34660  0.48654  1.0000
  C   C136      1.0  0.45636  0.22830  0.30055  1.0000
  N   N7        1.0  0.33900  0.17332  0.36794  1.0000
  C   C137      1.0  0.36522  0.18212  0.37986  1.0000
  C   C138      1.0  0.31437  0.15202  0.37767  1.0000
  C   C139      1.0  0.34252  0.15857  0.35137  1.0000
  C   C140      1.0  0.33380  0.19787  0.36223  1.0000
  C   C141      1.0  0.34368  0.22345  0.37570  1.0000
  C   C142      1.0  0.39325  0.20023  0.37072  1.0000
  C   C143      1.0  0.31736  0.14643  0.33741  1.0000
  C   C144      1.0  0.30605  0.16253  0.39492  1.0000
  C   C145      1.0  0.28440  0.13811  0.40512  1.0000
  C   C146      1.0  0.33396  0.24496  0.36920  1.0000
  C   C147      1.0  0.41686  0.21705  0.38452  1.0000
  C   C148      1.0  0.32543  0.13652  0.32006  1.0000
  H   H226      1.0  0.36680  0.16333  0.38518  1.0000
  H   H227      1.0  0.36432  0.19369  0.39211  1.0000
  H   H228      1.0  0.29502  0.14348  0.36884  1.0000
  H   H229      1.0  0.31837  0.13375  0.38121  1.0000
  H   H230      1.0  0.34711  0.14089  0.35540  1.0000
  H   H231      1.0  0.36079  0.17313  0.34381  1.0000
  H   H232      1.0  0.34432  0.20646  0.34944  1.0000
  H   H233      1.0  0.31102  0.19063  0.35897  1.0000
  H   H234      1.0  0.36692  0.23443  0.37710  1.0000
  H   H235      1.0  0.33573  0.21721  0.38932  1.0000
  H   H236      1.0  0.39985  0.18649  0.36288  1.0000
  H   H237      1.0  0.39106  0.21510  0.36127  1.0000
  H   H238      1.0  0.31004  0.16232  0.33383  1.0000
  H   H239      1.0  0.29957  0.12786  0.34275  1.0000
  H   H240      1.0  0.32422  0.17373  0.40431  1.0000
  H   H241      1.0  0.29652  0.17669  0.39134  1.0000
  H   H242      1.0  0.27839  0.14634  0.41721  1.0000
  H   H243      1.0  0.26525  0.12599  0.39645  1.0000
  H   H244      1.0  0.29344  0.12394  0.40973  1.0000
  H   H245      1.0  0.34186  0.26322  0.37885  1.0000
  H   H246      1.0  0.34225  0.25276  0.35577  1.0000
  H   H247      1.0  0.31068  0.23563  0.36836  1.0000
  H   H248      1.0  0.43685  0.22852  0.37760  1.0000
  H   H249      1.0  0.41210  0.23270  0.39176  1.0000
  H   H250      1.0  0.41964  0.20291  0.39441  1.0000
  H   H251      1.0  0.34305  0.15412  0.31374  1.0000
  H   H252      1.0  0.33173  0.11962  0.32291  1.0000
  H   H253      1.0  0.30719  0.12801  0.31027  1.0000
  H   H254      1.0  0.42763  0.20679  0.27803  1.0000
  H   H255      1.0  0.36597  0.28584  0.45007  1.0000
  H   H256      1.0  0.42323  0.42265  0.30544  1.0000
  H   H257      1.0  0.23118  0.45715  0.48512  1.0000
  C   C149      1.0  0.44548  0.42644  0.30598  1.0000
  H   H258      1.0  0.40516  0.22567  0.32210  1.0000
  H   H259      1.0  0.44215  0.10215  0.46048  1.0000
  C   C150      1.0  0.44127  0.34415  0.47499  1.0000
  H   H260      1.0  0.28889  0.24458  0.43612  1.0000
  C   C151      1.0  0.30978  0.26272  0.43871  1.0000
  S   S43       1.0  0.45706  0.43499  0.40103  1.0000
  C   C152      1.0  0.25321  0.39261  0.47132  1.0000
  C   C153      1.0  0.31206  0.44870  0.48326  1.0000
  H   H261      1.0  0.38651  0.24864  0.34319  1.0000
  H   H262      1.0  0.45223  0.02048  0.43952  1.0000
  C   C154      1.0  0.44314  0.05224  0.45354  1.0000
  H   H263      1.0  0.41809  0.03770  0.38400  1.0000
  H   H264      1.0  0.43720  0.38729  0.31862  1.0000
  H   H265      1.0  0.41731  0.27711  0.25649  1.0000
  C   C155      1.0  0.44613  0.07785  0.37329  1.0000
  S   S44       1.0  0.38800  0.09025  0.24977  1.0000
  C   C156      1.0  0.34106  0.47392  0.48434  1.0000
  H   H266      1.0  0.44217  0.13396  0.35582  1.0000
  H   H267      1.0  0.24916  0.40269  0.44332  1.0000
  H   H268      1.0  0.36720  0.19611  0.29317  1.0000
  H   H269      1.0  0.36200  0.39204  0.35192  1.0000
  C   C157      1.0  0.23984  0.38453  0.45231  1.0000
  C   C158      1.0  0.35161  0.28412  0.46103  1.0000
  C   C159      1.0  0.45118  0.41001  0.32141  1.0000
  H   H270      1.0  0.45274  0.14267  0.32699  1.0000
  C   C160      1.0  0.36319  0.20905  0.48176  1.0000
  C   C161      1.0  0.48115  0.37529  0.36568  1.0000
  N   N8        1.0  0.36511  0.28366  0.47911  1.0000
  H   H271      1.0  0.48028  0.31633  0.26235  1.0000
  H   H272      1.0  0.42021  0.03011  0.41911  1.0000
  H   H273      1.0  0.38560  0.32928  0.48042  1.0000
  H   H274      1.0  0.41982  0.43409  0.36778  1.0000
  C   C162      1.0  0.46114  0.18648  0.36678  1.0000
  H   H275      1.0  0.38554  0.41499  0.47213  1.0000
  H   H276      1.0  0.39577  0.22872  0.25980  1.0000
  C   C163      1.0  0.44220  0.26185  0.27359  1.0000
  C   C164      1.0  0.36826  0.40587  0.48106  1.0000
  H   H277      1.0  0.44614  0.42830  0.27671  1.0000
  H   H278      1.0  0.47379  0.24034  0.29161  1.0000
  H   H279      1.0  0.35570  0.46941  0.47608  1.0000
  H   H280      1.0  0.37677  0.23107  0.31162  1.0000
  N   N9        1.0  0.41961  0.24191  0.28534  1.0000
  H   H281      1.0  0.41166  0.20331  0.29895  1.0000
  H   H282      1.0  0.45042  0.06729  0.44237  1.0000
  H   H283      1.0  0.44522  0.10698  0.32115  1.0000
  H   H284      1.0  0.39263  0.27617  0.32785  1.0000
  C   C165      1.0  0.46046  0.20299  0.30666  1.0000
  H   H285      1.0  0.30820  0.25361  0.46666  1.0000
  H   H286      1.0  0.21680  0.37727  0.45254  1.0000
  H   H287      1.0  0.37637  0.42992  0.35227  1.0000
  H   H288      1.0  0.25168  0.43268  0.46972  1.0000
  H   H289      1.0  0.43522  0.08933  0.34777  1.0000
  C   C166      1.0  0.34138  0.19280  0.26974  1.0000
  H   H290      1.0  0.41045  0.27394  0.29752  1.0000
  H   H291      1.0  0.24375  0.36721  0.44667  1.0000
  S   S45       1.0  0.48034  0.14501  0.43395  1.0000
  H   H292      1.0  0.45650  0.13605  0.29462  1.0000
  C   C167      1.0  0.98204  0.40369  0.46940  1.0000
  C   C168      1.0  0.24744  0.41623  0.47992  1.0000
  H   H293      1.0  0.45028  0.17990  0.37963  1.0000
  H   H294      1.0  0.37693  0.18422  0.27316  1.0000
  H   H295      1.0  0.46486  0.09314  0.41334  1.0000
  C   C169      1.0  0.39204  0.22986  0.27442  1.0000
  H   H296      1.0  0.43632  0.08836  0.38147  1.0000
  H   H297      1.0  0.32318  0.30344  0.48332  1.0000
  H   H298      1.0  0.47273  0.41242  0.31979  1.0000
  H   H299      1.0  0.38184  0.24412  0.27538  1.0000
  C   C170      1.0  0.40025  0.26093  0.33243  1.0000
  H   H300      1.0  0.42164  0.30006  0.46888  1.0000
  H   H301      1.0  0.43266  0.37929  0.35509  1.0000
  H   H302      1.0  0.40570  0.39662  0.36868  1.0000
  C   C171      1.0  0.46211  0.12874  0.32277  1.0000
  C   C172      1.0  0.37005  0.19960  0.27859  1.0000
  H   H303      1.0  0.30492  0.44481  0.46884  1.0000
  C   C173      1.0  0.42500  0.04699  0.37066  1.0000
  H   H304      1.0  0.22432  0.40669  0.48158  1.0000
  H   H305      1.0  0.38110  0.25756  0.46572  1.0000
  H   H306      1.0  0.30682  0.28206  0.43998  1.0000
  H   H307      1.0  0.34306  0.19593  0.25499  1.0000
  H   H308      1.0  0.32664  0.17053  0.27203  1.0000
  C   C174      1.0  0.42754  0.21889  0.29041  1.0000
  C   C175      1.0  0.43426  0.02235  0.44544  1.0000
  C   C176      1.0  0.39891  0.24149  0.31671  1.0000
  H   H309      1.0  0.40871  0.31985  0.45542  1.0000
  N   N10       1.0  0.46535  0.06181  0.46864  1.0000
  H   H310      1.0  0.32278  0.26429  0.42699  1.0000
  C   C177      1.0  0.39093  0.31142  0.48210  1.0000
  H   H311      1.0  0.43776  0.39413  0.28521  1.0000
  C   C178      1.0  0.43674  0.28566  0.26521  1.0000
  H   H312      1.0  0.32735  0.23970  0.45331  1.0000
  H   H313      1.0  0.24412  0.37345  0.47944  1.0000
  C   C179      1.0  0.47236  0.09148  0.47484  1.0000
  H   H314      1.0  0.28773  0.47068  0.48664  1.0000
  H   H315      1.0  0.46256  0.27261  0.28136  1.0000
  H   H316      1.0  0.44454  0.19078  0.31648  1.0000
  C   C180      1.0  0.44808  0.10009  0.47465  1.0000
  H   H317      1.0  0.99543  0.41649  0.45912  1.0000
  C   C181      1.0  0.46239  0.13952  0.36323  1.0000
  H   H318      1.0  0.45768  0.34864  0.46495  1.0000
  H   H319      1.0  0.46435  0.07834  0.38108  1.0000
  H   H320      1.0  0.45647  0.13375  0.37737  1.0000
  C   C182      1.0  0.45211  0.39917  0.35378  1.0000
  S   S46       1.0  0.38567  0.14896  0.24103  1.0000
  H   H321      1.0  0.46298  0.07941  0.34698  1.0000
  H   H322      1.0  0.45687  0.40928  0.36748  1.0000
  C   C183      1.0  0.45501  0.09211  0.35489  1.0000
  H   H323      1.0  0.42903  0.08461  0.48095  1.0000
  H   H324      1.0  0.46223  0.35575  0.36868  1.0000
  C   C184      1.0  0.37438  0.26054  0.47935  1.0000
  S   S47       1.0  0.37261  0.36601  0.24389  1.0000
  S   S48       1.0  0.46064  0.08804  0.24171  1.0000
  H   H325      1.0  0.45343  0.47396  0.25995  1.0000
  H   H326      1.0  0.45545  0.31921  0.24647  1.0000
  H   H327      1.0  0.31475  0.43053  0.48814  1.0000
  C   C185      1.0  0.41189  0.01529  0.43028  1.0000
  S   S49       1.0  0.43179  0.36049  0.24339  1.0000
  H   H328      1.0  0.45120  0.47995  0.28361  1.0000
  H   H329      1.0  0.47429  0.20956  0.36760  1.0000
  H   H330      1.0  0.45548  0.02140  0.48006  1.0000
  H   H331      1.0  0.47357  0.42150  0.28690  1.0000
  C   C186      1.0  0.99256  0.40748  0.48754  1.0000
  C   C187      1.0  0.45675  0.04211  0.48421  1.0000
  C   C188      1.0  0.47376  0.13773  0.30413  1.0000
  H   H332      1.0  0.41134  0.03100  0.48301  1.0000
  N   N11       1.0  0.47634  0.12270  0.35564  1.0000
  C   C189      1.0  0.45713  0.12846  0.48435  1.0000
  H   H333      1.0  0.45926  0.46201  0.33675  1.0000
  H   H334      1.0  0.39295  0.01633  0.43534  1.0000
  H   H335      1.0  0.44981  0.34179  0.48835  1.0000
  C   C190      1.0  0.47970  0.17185  0.36364  1.0000
  Fe  Fe25      1.0  0.43263  0.11050  0.24002  1.0000
  H   H336      1.0  0.46766  0.37416  0.33807  1.0000
  H   H337      1.0  0.42531  0.00637  0.45589  1.0000
  C   C191      1.0  0.47501  0.38961  0.34959  1.0000
  H   H338      1.0  0.38433  0.21505  0.48811  1.0000
  H   H339      1.0  0.39334  0.26663  0.48848  1.0000
  H   H340      1.0  0.48162  0.21018  0.31325  1.0000
  H   H341      1.0  0.22265  0.41321  0.68669  1.0000
  Fe  Fe26      1.0  0.26766  0.44344  0.56373  1.0000
  S   S50       1.0  0.28389  0.41097  0.56726  1.0000
  S   S51       1.0  0.22110  0.42515  0.55490  1.0000
  H   H342      1.0  0.16414  0.42012  0.72865  1.0000
  S   S52       1.0  0.34507  0.46209  0.57705  1.0000
  Fe  Fe27      1.0  0.32093  0.43968  0.55132  1.0000
  S   S53       1.0  0.34374  0.43181  0.52705  1.0000
  Fe  Fe28      1.0  0.30649  0.43636  0.59262  1.0000
  S   S54       1.0  0.31150  0.41988  0.62051  1.0000
  S   S55       1.0  0.30367  0.47114  0.54688  1.0000
  S   S56       1.0  0.28799  0.46659  0.58981  1.0000
  H   H343      1.0  0.01728  0.48686  0.60601  1.0000
  S   S57       1.0  0.27832  0.44034  0.70027  1.0000
  H   H344      1.0  0.35307  0.05092  0.52272  1.0000
  H   H345      1.0  0.22479  0.42269  0.51072  1.0000
  S   S58       1.0  0.01420  0.43673  0.56903  1.0000
  Fe  Fe29      1.0  0.08884  0.46071  0.55139  1.0000
  S   S59       1.0  0.06010  0.41579  0.55721  1.0000
  H   H346      1.0  0.41388  0.46652  0.60376  1.0000
  Fe  Fe30      1.0  0.02603  0.42381  0.54264  1.0000
  C   C192      1.0  0.10811  0.38578  0.61362  1.0000
  Fe  Fe31      1.0  0.05072  0.43326  0.58275  1.0000
  S   S60       1.0  0.06190  0.42424  0.61137  1.0000
  S   S61       1.0  0.05557  0.46805  0.53546  1.0000
  C   C193      1.0  0.14353  0.45159  0.61053  1.0000
  Fe  Fe32      1.0  0.03510  0.43334  0.71734  1.0000
  S   S62       1.0  0.01269  0.41606  0.68984  1.0000
  C   C194      1.0  0.15059  0.47994  0.60217  1.0000
  C   C195      1.0  0.04796  0.42494  0.63280  1.0000
  C   C196      1.0  0.01906  0.41317  0.63524  1.0000
  C   C197      1.0  0.00873  0.41091  0.65274  1.0000
  C   C198      1.0  0.02708  0.42069  0.66806  1.0000
  C   C199      1.0  0.05604  0.43320  0.66559  1.0000
  C   C200      1.0  0.06637  0.43495  0.64811  1.0000
  H   H347      1.0  0.35252  0.32459  0.49834  1.0000
  H   H348      1.0  0.01441  0.47468  0.68849  1.0000
  C   C201      1.0  0.98348  0.45693  0.62144  1.0000
  H   H349      1.0  0.99485  0.48274  0.65201  1.0000
  H   H350      1.0  0.13752  0.42320  0.70679  1.0000
  H   H351      1.0  0.26547  0.36900  0.53346  1.0000
  H   H352      1.0  0.23456  0.39278  0.52829  1.0000
  H   H353      1.0  0.25577  0.44845  0.52163  1.0000
  C   C202      1.0  0.19772  0.44077  0.55364  1.0000
  C   C203      1.0  0.20606  0.46891  0.55848  1.0000
  H   H354      1.0  0.37403  0.45932  0.73029  1.0000
  C   C204      1.0  0.15890  0.46385  0.55045  1.0000
  C   C205      1.0  0.15044  0.43556  0.54598  1.0000
  C   C206      1.0  0.16986  0.42425  0.54733  1.0000
  C   C207      1.0  0.18686  0.48046  0.55660  1.0000
  H   H355      1.0  0.11889  0.45484  0.69561  1.0000
  H   H356      1.0  0.12921  0.42267  0.54085  1.0000
  H   H357      1.0  0.07105  0.38496  0.63942  1.0000
  C   C208      1.0  0.30223  0.42609  0.64259  1.0000
  C   C209      1.0  0.28635  0.44073  0.64550  1.0000
  C   C210      1.0  0.27926  0.44473  0.66317  1.0000
  C   C211      1.0  0.28785  0.43422  0.67827  1.0000
  C   C212      1.0  0.30389  0.41977  0.67539  1.0000
  C   C213      1.0  0.31091  0.41569  0.65771  1.0000
  H   H358      1.0  0.27950  0.44892  0.63410  1.0000
  C   C214      1.0  0.11371  0.39163  0.63427  1.0000
  H   H359      1.0  0.31071  0.41149  0.68674  1.0000
  H   H360      1.0  0.32310  0.40425  0.65569  1.0000
  C   C215      1.0  0.32380  0.38300  0.50463  1.0000
  C   C216      1.0  0.34484  0.41032  0.50834  1.0000
  C   C217      1.0  0.36711  0.42148  0.49641  1.0000
  H   H361      1.0  0.30672  0.37378  0.51365  1.0000
  H   H362      1.0  0.38357  0.44251  0.49897  1.0000
  Fe  Fe33      1.0  0.04485  0.48036  0.56220  1.0000
  H   H363      1.0  0.07529  0.35006  0.55048  1.0000
  H   H364      1.0  0.16329  0.40256  0.54333  1.0000
  C   C218      1.0  0.35135  0.03661  0.51175  1.0000
  C   C219      1.0  0.34281  0.00805  0.51539  1.0000
  H   H365      1.0  0.21002  0.39884  0.61478  1.0000
  H   H366      1.0  0.36372  0.06884  0.49165  1.0000
  C   C220      1.0  0.15067  0.43991  0.69767  1.0000
  H   H367      1.0  0.22006  0.37572  0.66554  1.0000
  H   H368      1.0  0.10020  0.39416  0.56786  1.0000
  S   S63       1.0  0.06409  0.42050  0.73335  1.0000
  H   H369      1.0  0.12728  0.36151  0.58836  1.0000
  H   H370      1.0  0.40650  0.46467  0.62754  1.0000
  H   H371      1.0  0.40129  0.01105  0.51329  1.0000
  H   H372      1.0  0.39897  0.99774  0.64161  1.0000
  H   H373      1.0  0.14272  0.46520  0.67741  1.0000
  H   H374      1.0  0.13263  0.47880  0.59361  1.0000
  C   C221      1.0  0.13077  0.44775  0.68646  1.0000
  C   C222      1.0  0.34603  0.28074  0.49442  1.0000
  C   C223      1.0  0.29083  0.45441  0.49427  1.0000
  H   H375      1.0  0.25906  0.48350  0.49910  1.0000
  C   C224      1.0  0.20513  0.38051  0.65717  1.0000
  H   H376      1.0  0.17615  0.44438  0.67453  1.0000
  C   C225      1.0  0.21139  0.44911  0.70482  1.0000
  H   H377      1.0  0.20214  0.45541  0.71608  1.0000
  H   H378      1.0  0.21338  0.43214  0.67036  1.0000
  H   H379      1.0  0.22899  0.34488  0.52934  1.0000
  H   H380      1.0  0.14403  0.39164  0.57517  1.0000
  C   C226      1.0  0.12712  0.38174  0.58481  1.0000
  H   H381      1.0  0.17099  0.39100  0.66024  1.0000
  C   C227      1.0  0.09497  0.35414  0.55825  1.0000
  H   H382      1.0  0.35148  0.23234  0.50073  1.0000
  C   C228      1.0  0.08647  0.37761  0.64435  1.0000
  H   H383      1.0  0.17519  0.37004  0.67786  1.0000
  C   C229      1.0  0.23968  0.46334  0.49916  1.0000
  H   H384      1.0  0.38524  0.44506  0.71180  1.0000
  H   H385      1.0  0.08081  0.36560  0.58232  1.0000
  H   H386      1.0  0.13526  0.36864  0.73182  1.0000
  H   H387      1.0  0.09928  0.36252  0.61193  1.0000
  H   H388      1.0  0.12777  0.38277  0.63947  1.0000
  H   H389      1.0  0.21739  0.39811  0.64830  1.0000
  H   H390      1.0  0.33003  0.99228  0.71657  1.0000
  C   C230      1.0  0.17420  0.40601  0.72731  1.0000
  N   N12       1.0  0.18960  0.42346  0.69472  1.0000
  H   H391      1.0  0.15103  0.40976  0.67859  1.0000
  C   C231      1.0  0.17689  0.39906  0.70729  1.0000
  C   C232      1.0  0.16712  0.42919  0.68547  1.0000
  H   H392      1.0  0.35705  0.28108  0.50751  1.0000
  H   H393      1.0  0.35836  0.02675  0.71406  1.0000
  C   C233      1.0  0.27050  0.00056  0.51660  1.0000
  H   H394      1.0  0.19015  0.43806  0.59549  1.0000
  S   S64       1.0  0.33379  0.99605  0.53798  1.0000
  H   H395      1.0  0.11451  0.42589  0.58987  1.0000
  C   C234      1.0  0.31538  0.29751  0.51145  1.0000
  H   H396      1.0  0.10054  0.48944  0.62072  1.0000
  C   C235      1.0  0.15948  0.40279  0.61066  1.0000
  H   H397      1.0  0.26716  0.45624  0.66511  1.0000
  H   H398      1.0  0.37537  0.47452  0.69044  1.0000
  H   H399      1.0  0.28024  0.39994  0.50206  1.0000
  S   S65       1.0  0.98835  0.39344  0.52422  1.0000
  H   H400      1.0  0.16410  0.41493  0.62358  1.0000
  C   C236      1.0  0.20452  0.41546  0.68040  1.0000
  H   H401      1.0  0.11266  0.36292  0.54899  1.0000
  H   H402      1.0  0.09313  0.33392  0.56340  1.0000
  H   H403      1.0  0.22436  0.37635  0.50628  1.0000
  S   S66       1.0  0.13609  0.47982  0.54714  1.0000
  H   H404      1.0  0.01844  0.46796  0.65495  1.0000
  H   H405      1.0  0.16486  0.45882  0.70578  1.0000
  C   C237      1.0  0.42899  0.03699  0.49306  1.0000
  C   C238      1.0  0.28306  0.02723  0.52855  1.0000
  H   H406      1.0  0.09076  0.38287  0.65899  1.0000
  C   C239      1.0  0.01513  0.47675  0.61931  1.0000
  H   H407      1.0  0.22746  0.48197  0.56324  1.0000
  H   H408      1.0  0.35943  0.99549  0.69004  1.0000
  C   C240      1.0  0.22660  0.47588  0.69371  1.0000
  H   H409      1.0  0.34903  0.43842  0.71254  1.0000
  H   H410      1.0  0.12573  0.44699  0.61942  1.0000
  C   C241      1.0  0.35320  0.00470  0.71723  1.0000
  C   C242      1.0  0.26836  0.40926  0.50921  1.0000
  C   C243      1.0  0.21228  0.41975  0.61076  1.0000
  H   H411      1.0  0.02525  0.46252  0.61774  1.0000
  H   H412      1.0  0.14976  0.43634  0.58461  1.0000
  H   H413      1.0  0.16923  0.48639  0.59375  1.0000
  H   H414      1.0  0.25343  0.35110  0.51169  1.0000
  H   H415      1.0  0.43741  0.01816  0.51709  1.0000
  H   H416      1.0  0.15575  0.38361  0.70195  1.0000
  H   H417      1.0  0.07040  0.44082  0.67722  1.0000
  S   S67       1.0  0.06217  0.47963  0.72073  1.0000
  H   H418      1.0  0.21404  0.48520  0.50286  1.0000
  C   C244      1.0  0.35740  0.04688  0.49406  1.0000
  C   C245      1.0  0.33508  0.30329  0.49582  1.0000
  C   C246      1.0  0.09941  0.37488  0.57385  1.0000
  H   H419      1.0  0.22769  0.44402  0.71129  1.0000
  H   H420      1.0  0.16698  0.36504  0.73723  1.0000
  C   C247      1.0  0.40099  0.47003  0.61406  1.0000
  C   C248      1.0  0.24791  0.36104  0.52315  1.0000
  H   H421      1.0  0.16223  0.45404  0.61872  1.0000
  H   H422      1.0  0.30133  0.46459  0.50741  1.0000
  H   H423      1.0  0.25631  0.00322  0.50635  1.0000
  C   C249      1.0  0.13495  0.42822  0.59574  1.0000
  C   C250      1.0  0.24568  0.44020  0.50808  1.0000
  C   C251      1.0  0.36673  0.99300  0.70379  1.0000
  C   C252      1.0  0.24183  0.38496  0.51660  1.0000
  H   H424      1.0  0.47311  0.05008  0.49530  1.0000
  H   H425      1.0  0.32642  0.29768  0.52443  1.0000
  H   H426      1.0  0.29504  0.04563  0.52020  1.0000
  H   H427      1.0  0.09059  0.39075  0.60949  1.0000
  C   C253      1.0  0.18655  0.38813  0.66917  1.0000
  S   S68       1.0  0.13631  0.48806  0.73287  1.0000
  N   N13       1.0  0.13264  0.40021  0.60154  1.0000
  H   H428      1.0  0.43175  0.05611  0.50074  1.0000
  H   H429      1.0  0.07700  0.35444  0.64243  1.0000
  H   H430      1.0  0.33650  0.47750  0.70964  1.0000
  H   H431      1.0  0.00460  0.40469  0.62371  1.0000
  H   H432      1.0  0.18981  0.38733  0.70799  1.0000
  H   H433      1.0  0.36134  0.00439  0.73116  1.0000
  Fe  Fe34      1.0  0.08994  0.46691  0.73786  1.0000
  H   H434      1.0  0.19194  0.36172  0.64857  1.0000
  H   H435      1.0  0.28225  0.42056  0.52113  1.0000
  H   H436      1.0  0.29774  0.02599  0.53907  1.0000
  H   H437      1.0  0.39614  0.99708  0.67489  1.0000
  H   H438      1.0  0.29665  0.27692  0.50933  1.0000
  C   C254      1.0  0.21844  0.46905  0.50967  1.0000
  H   H439      1.0  0.19835  0.44970  0.51054  1.0000
  H   H440      1.0  0.11545  0.42940  0.67829  1.0000
  H   H441      1.0  0.39957  0.31327  0.49620  1.0000
  H   H442      1.0  0.18500  0.40391  0.58749  1.0000
  H   H443      1.0  0.12357  0.41433  0.63776  1.0000
  S   S69       1.0  0.08044  0.47758  0.57708  1.0000
  H   H444      1.0  0.15698  0.38158  0.61434  1.0000
  H   H445      1.0  0.37854  0.45572  0.61076  1.0000
  H   H446      1.0  0.30818  0.31412  0.51232  1.0000
  H   H447      1.0  0.23102  0.42944  0.60243  1.0000
  H   H448      1.0  0.08876  0.44377  0.64645  1.0000
  H   H449      1.0  0.26627  0.03047  0.53517  1.0000
  C   C255      1.0  0.42052  0.01337  0.50654  1.0000
  C   C256      1.0  0.18640  0.41678  0.59967  1.0000
  H   H450      1.0  0.21578  0.43339  0.62294  1.0000
  N   N14       1.0  0.26305  0.42956  0.49752  1.0000
  H   H451      1.0  0.06135  0.48423  0.63980  1.0000
  C   C257      1.0  0.37104  0.45429  0.71558  1.0000
  H   H452      1.0  0.28798  0.99915  0.50976  1.0000
  Fe  Fe35      1.0  0.28223  0.43483  0.73103  1.0000
  H   H453      1.0  0.46311  0.12749  0.49870  1.0000
  H   H454      1.0  0.38965  0.00620  0.70542  1.0000
  H   H455      1.0  0.98631  0.40102  0.65446  1.0000
  H   H456      1.0  0.32719  0.26016  0.49373  1.0000
  H   H457      1.0  0.19539  0.41649  0.73409  1.0000
  H   H458      1.0  0.34958  0.47804  0.49850  1.0000
  H   H459      1.0  0.23840  0.47243  0.68272  1.0000
  C   C258      1.0  0.15706  0.37950  0.73762  1.0000
  H   H460      1.0  0.01375  0.42304  0.49097  1.0000
  H   H461      1.0  0.22707  0.47707  0.52350  1.0000
  H   H462      1.0  0.21139  0.48285  0.68787  1.0000
  H   H463      1.0  0.41590  0.99313  0.49955  1.0000
  C   C259      1.0  0.37781  0.48077  0.70491  1.0000
  C   C260      1.0  0.32481  0.36750  0.48922  1.0000
  C   C261      1.0  0.01747  0.48805  0.65219  1.0000
  H   H464      1.0  0.33161  0.48868  0.67920  1.0000
  C   C262      1.0  0.34083  0.99001  0.50092  1.0000
  C   C263      1.0  0.08733  0.30877  0.94491  1.0000
  C   C264      1.0  0.23020  0.24689  0.82318  1.0000
  Fe  Fe36      1.0  0.19092  0.03804  0.90027  1.0000
  S   S70       1.0  0.23442  0.04542  0.90997  1.0000
  S   S71       1.0  0.17531  0.07070  0.89343  1.0000
  Fe  Fe37      1.0  0.21144  0.01327  0.93087  1.0000
  H   H465      1.0  0.16079  0.33853  0.83476  1.0000
  H   H466      1.0  0.29473  0.00958  0.90721  1.0000
  H   H467      1.0  0.19067  0.13864  0.97976  1.0000
  S   S72       1.0  0.16837  0.00730  0.92194  1.0000
  C   C265      1.0  0.05419  0.29043  0.98450  1.0000
  H   H468      1.0  0.19505  0.06133  0.95385  1.0000
  C   C266      1.0  0.05490  0.34324  0.93755  1.0000
  Fe  Fe38      1.0  0.25055  0.44290  0.76324  1.0000
  S   S73       1.0  0.24769  0.40505  0.74819  1.0000
  H   H469      1.0  0.99454  0.40678  0.82519  1.0000
  Fe  Fe39      1.0  0.28105  0.40706  0.76859  1.0000
  S   S74       1.0  0.26931  0.36556  0.78371  1.0000
  S   S75       1.0  0.28303  0.44454  0.78375  1.0000
  Fe  Fe40      1.0  0.22011  0.29089  0.88415  1.0000
  S   S76       1.0  0.19520  0.24682  0.87312  1.0000
  S   S77       1.0  0.24731  0.32846  0.86653  1.0000
  Fe  Fe41      1.0  0.20182  0.27213  0.92394  1.0000
  S   S78       1.0  0.17640  0.22730  0.91460  1.0000
  S   S79       1.0  0.19534  0.28313  0.95301  1.0000
  Fe  Fe42      1.0  0.21230  0.23325  0.89722  1.0000
  S   S80       1.0  0.23428  0.20492  0.89591  1.0000
  Fe  Fe43      1.0  0.16168  0.24509  0.89158  1.0000
  S   S81       1.0  0.11531  0.22441  0.88367  1.0000
  S   S82       1.0  0.23910  0.27758  0.90781  1.0000
  S   S83       1.0  0.18539  0.28981  0.90142  1.0000
  C   C267      1.0  0.05449  0.30868  0.96829  1.0000
  H   H470      1.0  0.14422  0.29394  0.95378  1.0000
  H   H471      1.0  0.18742  0.21866  0.81446  1.0000
  H   H472      1.0  0.24546  0.20519  0.93389  1.0000
  C   C268      1.0  0.18506  0.35164  0.78200  1.0000
  Fe  Fe44      1.0  0.04157  0.42270  0.75843  1.0000
  S   S84       1.0  0.03783  0.39589  0.78368  1.0000
  S   S85       1.0  0.06998  0.46888  0.76369  1.0000
  H   H473      1.0  0.10004  0.38263  0.77779  1.0000
  H   H474      1.0  0.05207  0.27746  0.83905  1.0000
  S   S86       1.0  0.04893  0.29788  0.88510  1.0000
  C   C269      1.0  0.01338  0.37508  0.79997  1.0000
  C   C270      1.0  0.02389  0.37066  0.81667  1.0000
  C   C271      1.0  0.00585  0.35286  0.82959  1.0000
  H   H475      1.0  0.04625  0.38123  0.81964  1.0000
  H   H476      1.0  0.01439  0.34975  0.84231  1.0000
  C   C272      1.0  0.09669  0.24468  0.88493  1.0000
  C   C273      1.0  0.06727  0.23155  0.88287  1.0000
  C   C274      1.0  0.05215  0.24753  0.88308  1.0000
  C   C275      1.0  0.06651  0.27672  0.88525  1.0000
  C   C276      1.0  0.09582  0.28979  0.88738  1.0000
  C   C277      1.0  0.11083  0.27383  0.88730  1.0000
  H   H477      1.0  0.05619  0.20899  0.88095  1.0000
  H   H478      1.0  0.02951  0.23731  0.88138  1.0000
  H   H479      1.0  0.10702  0.31238  0.88905  1.0000
  H   H480      1.0  0.13336  0.28416  0.88876  1.0000
  C   C278      1.0  0.18990  0.45321  0.76259  1.0000
  H   H481      1.0  0.14313  0.43470  0.80725  1.0000
  H   H482      1.0  0.19019  0.24159  0.83321  1.0000
  H   H483      1.0  0.27372  0.99868  0.97325  1.0000
  C   C279      1.0  0.14448  0.45273  0.75647  1.0000
  C   C280      1.0  0.16110  0.44219  0.76556  1.0000
  H   H484      1.0  0.18501  0.36890  0.77375  1.0000
  H   H485      1.0  0.14789  0.12846  0.91720  1.0000
  C   C281      1.0  0.09369  0.36414  0.85890  1.0000
  H   H486      1.0  0.16773  0.33152  0.77688  1.0000
  C   C282      1.0  0.26182  0.35651  0.80686  1.0000
  C   C283      1.0  0.27889  0.37349  0.82119  1.0000
  C   C284      1.0  0.27398  0.36452  0.83918  1.0000
  C   C285      1.0  0.25181  0.33848  0.84334  1.0000
  C   C286      1.0  0.23436  0.32162  0.82903  1.0000
  C   C287      1.0  0.23960  0.33040  0.81098  1.0000
  H   H487      1.0  0.29643  0.39333  0.81838  1.0000
  H   H488      1.0  0.28771  0.37785  0.85000  1.0000
  H   H489      1.0  0.21706  0.30161  0.83181  1.0000
  H   H490      1.0  0.22640  0.31679  0.80009  1.0000
  H   H491      1.0  0.02943  0.46852  0.79295  1.0000
  C   C288      1.0  0.20637  0.27618  0.97458  1.0000
  H   H492      1.0  0.03859  0.44219  0.82784  1.0000
  H   H493      1.0  0.23834  0.26590  0.96498  1.0000
  H   H494      1.0  0.05160  0.35037  0.95098  1.0000
  C   C289      1.0  0.19263  0.10801  0.89398  1.0000
  C   C290      1.0  0.17752  0.12259  0.88816  1.0000
  C   C291      1.0  0.18991  0.15217  0.88872  1.0000
  C   C292      1.0  0.21770  0.16760  0.89508  1.0000
  C   C293      1.0  0.23300  0.15307  0.90070  1.0000
  C   C294      1.0  0.22049  0.12344  0.90030  1.0000
  H   H495      1.0  0.15599  0.11089  0.88318  1.0000
  H   H496      1.0  0.17797  0.16300  0.88414  1.0000
  H   H497      1.0  0.25461  0.16481  0.90548  1.0000
  H   H498      1.0  0.23242  0.11253  0.90476  1.0000
  H   H499      1.0  0.23813  0.23381  0.81580  1.0000
  H   H500      1.0  0.15150  0.42517  0.77470  1.0000
  C   C295      1.0  0.04382  0.46048  0.81911  1.0000
  C   C296      1.0  0.17593  0.39838  0.82880  1.0000
  C   C297      1.0  0.12635  0.15401  0.91733  1.0000
  H   H501      1.0  0.22444  0.38084  0.80902  1.0000
  H   H502      1.0  0.37777  0.01182  0.93178  1.0000
  H   H503      1.0  0.04646  0.30564  0.92229  1.0000
  H   H504      1.0  0.28902  0.24638  0.82009  1.0000
  H   H505      1.0  0.15980  0.05499  0.94741  1.0000
  C   C298      1.0  0.20215  0.47508  0.75065  1.0000
  H   H506      1.0  0.00431  0.21417  0.93274  1.0000
  C   C299      1.0  0.17745  0.32841  0.85865  1.0000
  H   H507      1.0  0.09243  0.38191  0.85192  1.0000
  C   C300      1.0  0.10422  0.29548  0.95491  1.0000
  C   C301      1.0  0.11933  0.23123  0.98224  1.0000
  C   C302      1.0  0.20236  0.16044  0.94775  1.0000
  H   H508      1.0  0.08814  0.47140  0.82248  1.0000
  C   C303      1.0  0.20932  0.19175  0.95105  1.0000
  C   C304      1.0  0.23998  0.21076  0.94716  1.0000
  H   H509      1.0  0.17360  0.16037  0.97792  1.0000
  C   C305      1.0  0.13208  0.30288  0.94602  1.0000
  H   H510      1.0  0.21892  0.15701  0.95524  1.0000
  H   H511      1.0  0.20565  0.15767  0.93325  1.0000
  C   C306      1.0  0.15065  0.14819  0.92402  1.0000
  C   C307      1.0  0.08985  0.25842  0.83466  1.0000
  H   H512      1.0  0.19604  0.19784  0.94209  1.0000
  H   H513      1.0  0.99061  0.44788  0.77227  1.0000
  H   H514      1.0  0.10936  0.30389  0.96899  1.0000
  H   H515      1.0  0.24358  0.23292  0.94678  1.0000
  H   H516      1.0  0.07210  0.28526  0.98477  1.0000
  N   N15       1.0  0.27970  0.27277  0.83861  1.0000
  C   C308      1.0  0.29444  0.29015  0.85534  1.0000
  C   C309      1.0  0.28693  0.29252  0.82301  1.0000
  C   C310      1.0  0.28959  0.25067  0.83486  1.0000
  C   C311      1.0  0.27290  0.22145  0.84327  1.0000
  C   C312      1.0  0.31860  0.31051  0.81991  1.0000
  C   C313      1.0  0.28929  0.27464  0.87334  1.0000
  C   C314      1.0  0.30377  0.29533  0.88913  1.0000
  C   C315      1.0  0.32288  0.32577  0.80210  1.0000
  H   H517      1.0  0.24135  0.24468  0.85131  1.0000
  H   H518      1.0  0.31757  0.29992  0.85410  1.0000
  H   H519      1.0  0.28873  0.30782  0.85696  1.0000
  H   H520      1.0  0.27765  0.30741  0.82471  1.0000
  H   H521      1.0  0.31208  0.25869  0.83926  1.0000
  H   H522      1.0  0.25212  0.20992  0.83617  1.0000
  H   H523      1.0  0.26897  0.22292  0.85769  1.0000
  H   H524      1.0  0.32988  0.29731  0.81962  1.0000
  H   H525      1.0  0.32830  0.32696  0.83073  1.0000
  H   H526      1.0  0.26665  0.26342  0.87602  1.0000
  H   H527      1.0  0.29846  0.25959  0.87325  1.0000
  H   H528      1.0  0.29544  0.31107  0.89009  1.0000
  H   H529      1.0  0.29979  0.28377  0.90192  1.0000
  H   H530      1.0  0.32680  0.30638  0.88751  1.0000
  H   H531      1.0  0.31202  0.33943  0.80195  1.0000
  H   H532      1.0  0.31463  0.31050  0.79052  1.0000
  H   H533      1.0  0.03459  0.27042  0.98394  1.0000
  C   C316      1.0  0.29309  0.02135  0.91916  1.0000
  H   H534      1.0  0.16156  0.35852  0.85457  1.0000
  C   C317      1.0  0.02903  0.30025  0.81094  1.0000
  H   H535      1.0  0.20902  0.40079  0.79934  1.0000
  C   C318      1.0  0.33637  0.00213  0.91986  1.0000
  C   C319      1.0  0.31344  0.05288  0.91713  1.0000
  H   H536      1.0  0.08434  0.25844  0.84894  1.0000
  C   C320      1.0  0.29644  0.02728  0.95189  1.0000
  Fe  Fe45      1.0  0.22742  0.00919  0.89046  1.0000
  C   C321      1.0  0.36082  0.99495  0.92344  1.0000
  C   C322      1.0  0.31388  0.06188  0.89763  1.0000
  H   H537      1.0  0.04818  0.25652  0.95806  1.0000
  H   H538      1.0  0.27139  0.01935  0.91786  1.0000
  C   C323      1.0  0.18230  0.07014  0.94666  1.0000
  H   H539      1.0  0.15661  0.31214  0.86248  1.0000
  H   H540      1.0  0.07941  0.48669  0.80325  1.0000
  H   H541      1.0  0.27828  0.03222  0.95004  1.0000
  H   H542      1.0  0.31541  0.04791  0.95197  1.0000
  S   S87       1.0  0.98921  0.31470  0.88955  1.0000
  H   H543      1.0  0.18811  0.07255  0.93233  1.0000
  H   H544      1.0  0.07675  0.35563  0.86873  1.0000
  H   H545      1.0  0.08887  0.30613  0.93011  1.0000
  H   H546      1.0  0.30653  0.06596  0.92547  1.0000
  H   H547      1.0  0.33516  0.05762  0.92169  1.0000
  C   C324      1.0  0.23232  0.05113  0.98528  1.0000
  H   H548      1.0  0.12985  0.12857  0.94775  1.0000
  C   C325      1.0  0.02052  0.45349  0.80402  1.0000
  H   H549      1.0  0.23470  0.06422  0.97383  1.0000
  H   H550      1.0  0.18799  0.31783  0.85122  1.0000
  H   H551      1.0  0.08124  0.36607  0.80740  1.0000
  H   H552      1.0  0.19012  0.33864  0.87116  1.0000
  Fe  Fe46      1.0  0.00174  0.27987  0.88625  1.0000
  C   C326      1.0  0.29510  0.01560  0.97109  1.0000
  C   C327      1.0  0.18804  0.09853  0.95518  1.0000
  H   H553      1.0  0.32848  0.08451  0.89669  1.0000
  H   H554      1.0  0.32100  0.04969  0.88863  1.0000
  N   N16       1.0  0.29684  0.00862  0.93648  1.0000
  N   N17       1.0  0.05699  0.29850  0.94960  1.0000
  H   H555      1.0  0.09791  0.34888  0.77167  1.0000
  C   C328      1.0  0.22794  0.26813  0.97671  1.0000
  C   C329      1.0  0.14604  0.42181  0.81802  1.0000
  H   H556      1.0  0.12210  0.37010  0.78964  1.0000
  H   H557      1.0  0.19017  0.43881  0.81477  1.0000
  H   H558      1.0  0.11106  0.25927  0.83442  1.0000
  H   H559      1.0  0.07121  0.44977  0.80277  1.0000
  H   H560      1.0  0.00363  0.42035  0.85787  1.0000
  H   H561      1.0  0.34113  0.02550  0.94444  1.0000
  H   H562      1.0  0.10590  0.13596  0.91994  1.0000
  H   H563      1.0  0.12735  0.17320  0.92405  1.0000
  H   H564      1.0  0.27563  0.18247  0.84736  1.0000
  H   H565      1.0  0.00584  0.26435  0.82848  1.0000
  C   C330      1.0  0.06034  0.28311  0.82527  1.0000
  H   H566      1.0  0.32319  0.05492  0.98511  1.0000
  H   H567      1.0  0.02747  0.21288  0.91602  1.0000
  H   H568      1.0  0.07453  0.23856  0.82783  1.0000
  C   C331      1.0  0.08984  0.28380  0.82528  1.0000
  H   H569      1.0  0.20607  0.19623  0.96517  1.0000
  H   H570      1.0  0.07760  0.35402  0.93489  1.0000
  H   H571      1.0  0.02579  0.31878  0.80720  1.0000
  H   H572      1.0  0.15674  0.37822  0.82720  1.0000
  H   H573      1.0  0.25673  0.40841  0.84423  1.0000
  H   H574      1.0  0.12223  0.44400  0.75873  1.0000
  H   H575      1.0  0.29261  0.05859  0.89288  1.0000
  H   H576      1.0  0.10617  0.30285  0.83217  1.0000
  C   C332      1.0  0.20239  0.37411  0.84202  1.0000
  H   H577      1.0  0.11421  0.37210  0.86646  1.0000
  C   C333      1.0  0.22695  0.42242  0.83171  1.0000
  H   H578      1.0  0.05703  0.34586  0.83122  1.0000
  C   C334      1.0  0.07233  0.46749  0.81134  1.0000
  S   S88       1.0  0.31614  0.43371  0.74988  1.0000
  H   H579      1.0  0.22540  0.99768  0.84159  1.0000
  H   H580      1.0  0.21158  0.38560  0.85508  1.0000
  H   H581      1.0  0.36957  0.99283  0.91043  1.0000
  C   C335      1.0  0.24838  0.26047  0.84064  1.0000
  H   H582      1.0  0.10834  0.35087  0.83595  1.0000
  Fe  Fe47      1.0  0.31517  0.47106  0.76402  1.0000
  H   H583      1.0  0.24258  0.27699  0.84550  1.0000
  H   H584      1.0  0.34562  0.33917  0.80041  1.0000
  S   S89       1.0  0.01012  0.43136  0.74188  1.0000
  N   N18       1.0  0.17364  0.13908  0.95291  1.0000
  C   C336      1.0  0.25613  0.42253  0.83355  1.0000
  C   C337      1.0  0.18115  0.35650  0.80184  1.0000
  H   H585      1.0  0.22893  0.43726  0.82079  1.0000
  C   C338      1.0  0.04362  0.31081  0.93636  1.0000
  H   H586      1.0  0.20528  0.35061  0.78036  1.0000
  C   C339      1.0  0.98424  0.36213  0.79668  1.0000
  H   H587      1.0  0.27760  0.28065  0.81012  1.0000
  C   C340      1.0  0.17214  0.41767  0.81459  1.0000
  H   H588      1.0  0.16950  0.40803  0.80090  1.0000
  S   S90       1.0  0.18548  0.00394  0.87965  1.0000
  H   H589      1.0  0.17038  0.16559  0.91973  1.0000
  C   C341      1.0  0.02666  0.22168  0.92952  1.0000
  H   H590      1.0  0.29191  0.20026  0.82728  1.0000
  H   H591      1.0  0.22391  0.43208  0.84435  1.0000
  C   C342      1.0  0.27919  0.45195  0.83833  1.0000
  H   H592      1.0  0.14694  0.09486  0.94686  1.0000
  C   C343      1.0  0.28840  0.20336  0.84164  1.0000
  H   H593      1.0  0.17343  0.11122  0.93132  1.0000
  H   H594      1.0  0.12758  0.15729  0.90256  1.0000
  H   H595      1.0  0.21061  0.11271  0.95369  1.0000
  C   C344      1.0  0.04075  0.26696  0.94784  1.0000
  C   C345      1.0  0.15088  0.14547  0.94476  1.0000
  Fe  Fe48      1.0  0.03963  0.47742  0.74619  1.0000
  H   H596      1.0  0.15182  0.16505  0.95097  1.0000
  H   H597      1.0  0.10067  0.33007  0.80971  1.0000
  C   C346      1.0  0.32416  0.00631  0.93780  1.0000
  C   C347      1.0  0.16928  0.11058  0.94597  1.0000
  S   S91       1.0  0.20976  0.43895  0.77398  1.0000
  H   H598      1.0  0.16045  0.35653  0.80276  1.0000
  H   H599      1.0  0.01702  0.43293  0.79795  1.0000
  H   H600      1.0  0.23077  0.26352  0.81406  1.0000
  H   H601      1.0  0.19748  0.21171  0.83654  1.0000
  C   C348      1.0  0.17220  0.13987  0.97317  1.0000
  H   H602      1.0  0.18120  0.33860  0.80932  1.0000
  S   S92       1.0  0.22218  0.00714  0.96040  1.0000
  C   C349      1.0  0.04153  0.25370  0.92924  1.0000
  C   C350      1.0  0.99355  0.48116  0.80729  1.0000
  C   C351      1.0  0.03984  0.35314  0.92362  1.0000
  H   H603      1.0  0.09965  0.21524  0.97554  1.0000
  H   H604      1.0  0.02047  0.30136  0.93795  1.0000
  H   H605      1.0  0.03444  0.31050  0.96908  1.0000
  H   H606      1.0  0.14844  0.43294  0.83119  1.0000
  H   H607      1.0  0.03077  0.26018  0.91859  1.0000
  H   H608      1.0  0.30889  0.21328  0.84930  1.0000
  H   H609      1.0  0.17509  0.40684  0.84247  1.0000
  H   H610      1.0  0.26159  0.41596  0.82063  1.0000
  C   C352      1.0  0.00415  0.28280  0.82293  1.0000
  H   H611      1.0  0.21645  0.36469  0.83814  1.0000
  C   C353      1.0  0.19948  0.22860  0.82719  1.0000
  C   C354      1.0  0.17367  0.34988  0.84685  1.0000
  H   H612      1.0  0.05777  0.34478  0.78936  1.0000
  C   C355      1.0  0.06196  0.32853  0.83523  1.0000
  N   N19       1.0  0.20212  0.39418  0.82778  1.0000
  C   C356      1.0  0.20533  0.38422  0.80928  1.0000
  H   H613      1.0  0.04659  0.31731  0.84564  1.0000
  H   H614      1.0  0.06339  0.25986  0.92533  1.0000
  H   H615      1.0  0.04644  0.47846  0.82789  1.0000
  H   H616      1.0  0.04675  0.26467  0.81639  1.0000
  N   N20       1.0  0.05814  0.30920  0.81926  1.0000
  H   H617      1.0  0.12703  0.40136  0.81800  1.0000
  C   C357      1.0  0.07802  0.35008  0.79673  1.0000
  H   H618      1.0  0.00302  0.45755  0.83846  1.0000
  C   C358      1.0  0.10100  0.36365  0.78317  1.0000
  H   H619      1.0  0.03714  0.21379  0.93956  1.0000
  H   H620      1.0  0.34447  0.02169  0.91211  1.0000
  H   H621      1.0  0.07156  0.33025  0.97111  1.0000
  C   C359      1.0  0.07875  0.32359  0.80480  1.0000
  C   C360      1.0  0.09100  0.34124  0.84527  1.0000
  H   H622      1.0  0.01690  0.34327  0.92579  1.0000
  H   H623      1.0  0.28014  0.46683  0.82769  1.0000
  C   C361      1.0  0.24056  0.99023  0.83812  1.0000
  H   H624      1.0  0.09357  0.32470  0.85294  1.0000
  H   H625      1.0  0.02635  0.28792  0.79816  1.0000
  H   H626      1.0  0.14490  0.32599  0.94572  1.0000
  H   H627      1.0  0.01833  0.26037  0.95077  1.0000
  H   H628      1.0  0.12839  0.29394  0.93202  1.0000
  H   H629      1.0  0.09610  0.28322  0.81119  1.0000
  H   H630      1.0  0.07516  0.30843  0.79336  1.0000
  C   C362      1.0  0.14510  0.11705  0.98111  1.0000
  H   H631      1.0  0.04364  0.34783  0.90977  1.0000
  H   H632      1.0  0.13725  0.22809  0.97728  1.0000
  H   H633      1.0  0.12639  0.11957  0.97645  1.0000
  H   H634      1.0  0.27542  0.45956  0.85149  1.0000
  H   H635      1.0  0.25414  0.20891  0.95779  1.0000
  H   H636      1.0  0.00325  0.29604  0.83430  1.0000
  N   N21       1.0  0.99309  0.45279  0.80958  1.0000
  H   H637      1.0  0.04792  0.37626  0.92492  1.0000
  H   H638      1.0  0.09286  0.27230  0.95496  1.0000
  C   C363      1.0  0.98618  0.44374  0.82874  1.0000
  H   H639      1.0  0.31048  0.00698  0.97309  1.0000
  H   H640      1.0  0.09925  0.33175  0.94764  1.0000
  H   H641      1.0  0.18408  0.09535  0.96974  1.0000
  S   S93       1.0  0.28225  0.47268  0.74504  1.0000
  H   H642      1.0  0.12251  0.25253  0.97841  1.0000
  H   H643      1.0  0.14176  0.09559  0.97720  1.0000
  C   C364      1.0  0.22546  0.02270  0.98244  1.0000
  H   H644      1.0  0.29982  0.45144  0.83934  1.0000
  H   H645      1.0  0.22440  0.48383  0.74847  1.0000
  C   C365      1.0  0.15670  0.47466  0.74456  1.0000
  H   H646      1.0  0.15621  0.38531  0.75194  1.0000
  C   C366      1.0  0.30121  0.03838  0.98563  1.0000
  H   H647      1.0  0.28670  0.04810  0.98382  1.0000
  C   C367      1.0  0.18556  0.48589  0.74172  1.0000
  S   S94       1.0  0.26004  0.00147  0.87436  1.0000
  H   H648      1.0  0.99753  0.48777  0.79306  1.0000
  H   H649      1.0  0.98537  0.25471  0.98088  1.0000
  Fe  Fe49      1.0  0.00948  0.83013  0.10278  1.0000
  H   H650      1.0  0.21185  0.98578  0.18225  1.0000
  S   S95       1.0  0.04496  0.87240  0.11279  1.0000
  H   H651      1.0  0.20772  0.92900  0.12608  1.0000
  C   C368      1.0  0.02994  0.90087  0.06512  1.0000
  H   H652      1.0  0.12720  0.92440  0.16141  1.0000
  C   C369      1.0  0.07514  0.81705  0.06200  1.0000
  S   S96       1.0  0.98385  0.80511  0.03821  1.0000
  H   H653      1.0  0.14127  0.91350  0.05423  1.0000
  H   H654      1.0  0.03735  0.89821  0.07877  1.0000
  H   H655      1.0  0.18234  0.96975  0.14694  1.0000
  H   H656      1.0  0.10354  0.87471  0.06056  1.0000
  C   C370      1.0  0.24488  0.93110  0.16149  1.0000
  C   C371      1.0  0.07903  0.89357  0.10486  1.0000
  C   C372      1.0  0.09598  0.88191  0.09832  1.0000
  C   C373      1.0  0.12398  0.89943  0.09403  1.0000
  C   C374      1.0  0.13531  0.92882  0.09594  1.0000
  C   C375      1.0  0.11821  0.94054  0.10213  1.0000
  C   C376      1.0  0.09035  0.92298  0.10674  1.0000
  H   H657      1.0  0.08781  0.85935  0.09726  1.0000
  H   H658      1.0  0.13709  0.89009  0.08944  1.0000
  H   H659      1.0  0.12659  0.96308  0.10377  1.0000
  H   H660      1.0  0.07758  0.93224  0.11204  1.0000
  C   C377      1.0  0.21561  0.93062  0.16056  1.0000
  C   C378      1.0  0.09073  0.86464  0.04813  1.0000
  H   H661      1.0  0.05004  0.82689  0.04315  1.0000
  C   C379      1.0  0.21717  0.95150  0.13057  1.0000
  H   H662      1.0  0.20121  0.90992  0.15423  1.0000
  C   C380      1.0  0.24555  0.90940  0.17455  1.0000
  S   S97       1.0  0.17107  0.94960  0.09085  1.0000
  H   H663      1.0  0.16915  0.94187  0.02906  1.0000
  N   N22       1.0  0.21329  0.95401  0.15052  1.0000
  C   C381      1.0  0.03897  0.88589  0.05087  1.0000
  H   H664      1.0  0.04437  0.85552  0.02528  1.0000
  C   C382      1.0  0.23371  0.98266  0.15804  1.0000
  H   H665      1.0  0.10433  0.85811  0.04022  1.0000
  H   H666      1.0  0.16172  0.92315  0.12923  1.0000
  H   H667      1.0  0.20832  0.92985  0.17453  1.0000
  H   H668      1.0  0.11417  0.90558  0.14018  1.0000
  H   H669      1.0  0.05483  0.84351  0.06524  1.0000
  C   C383      1.0  0.15953  0.92451  0.14396  1.0000
  H   H670      1.0  0.05675  0.79817  0.06647  1.0000
  C   C384      1.0  0.05377  0.84112  0.99308  1.0000
  C   C385      1.0  0.18401  0.95123  0.15270  1.0000
  H   H671      1.0  0.15858  0.90519  0.15001  1.0000
  S   S98       1.0  0.00868  0.79126  0.08970  1.0000
  C   C386      1.0  0.07662  0.85897  0.00708  1.0000
  H   H672      1.0  0.03848  0.92362  0.06246  1.0000
  H   H673      1.0  0.06024  0.88799  0.01459  1.0000
  H   H674      1.0  0.08547  0.81025  0.05153  1.0000
  C   C387      1.0  0.24746  0.96636  0.12372  1.0000
  H   H675      1.0  0.23735  0.97265  0.18647  1.0000
  C   C388      1.0  0.13126  0.92458  0.14682  1.0000
  H   H676      1.0  0.13074  0.94336  0.14081  1.0000
  H   H677      1.0  0.24165  0.91433  0.18846  1.0000
  H   H678      1.0  0.17928  0.95111  0.16717  1.0000
  C   C389      1.0  0.13328  0.92633  0.04648  1.0000
  H   H679      1.0  0.07748  0.92137  0.04602  1.0000
  H   H680      1.0  0.00673  0.89182  0.06492  1.0000
  H   H681      1.0  0.02991  0.86338  0.05401  1.0000
  H   H682      1.0  0.12241  0.89881  0.02319  1.0000
  C   C390      1.0  0.15857  0.95025  0.03837  1.0000
  C   C391      1.0  0.11142  0.90808  0.03150  1.0000
  H   H683      1.0  0.26315  0.96392  0.13265  1.0000
  H   H684      1.0  0.22948  0.88798  0.17035  1.0000
  C   C392      1.0  0.06543  0.83796  0.05434  1.0000
  C   C393      1.0  0.07144  0.89941  0.05016  1.0000
  H   H685      1.0  0.10710  0.92250  0.02254  1.0000
  H   H686      1.0  0.26162  0.95184  0.16611  1.0000
  H   H687      1.0  0.24592  0.93318  0.10558  1.0000
  N   N23       1.0  0.08413  0.88547  0.03794  1.0000
  H   H688      1.0  0.26653  0.90966  0.17462  1.0000
  H   H689      1.0  0.09000  0.82651  0.07376  1.0000
  H   H690      1.0  0.15201  0.96450  0.03096  1.0000
  H   H691      1.0  0.02956  0.88781  0.03771  1.0000
  H   H692      1.0  0.08497  0.84519  0.01318  1.0000
  H   H693      1.0  0.24976  0.92554  0.14803  1.0000
  H   H694      1.0  0.12426  0.93593  0.05607  1.0000
  H   H695      1.0  0.17394  0.96269  0.04935  1.0000
  H   H696      1.0  0.08012  0.90138  0.06425  1.0000
  C   C394      1.0  0.06508  0.87209  0.02150  1.0000
  H   H697      1.0  0.20544  0.96076  0.12261  1.0000
  C   C395      1.0  0.24914  0.95524  0.10494  1.0000
  H   H698      1.0  0.03803  0.82202  0.99939  1.0000
  H   H699      1.0  0.23292  0.95608  0.09553  1.0000
  H   H700      1.0  0.98789  0.82992  0.00365  1.0000
  H   H701      1.0  0.21820  0.98438  0.99568  1.0000
  H   H702      1.0  0.27014  0.96824  0.09958  1.0000
  H   H703      1.0  0.09359  0.87576  0.99976  1.0000
  C   C396      1.0  0.23264  0.98772  0.17859  1.0000
  H   H704      1.0  0.47257  0.49248  0.21961  1.0000
  H   H705      1.0  0.25577  0.98737  0.15556  1.0000
  H   H706      1.0  0.25379  0.98920  0.12284  1.0000
  H   H707      1.0  0.25713  0.97436  0.48464  1.0000
  H   H708      1.0  0.45052  0.50477  0.26735  1.0000
  C   C397      1.0  0.21805  0.95536  0.46942  1.0000
  H   H709      1.0  0.01174  0.60876  0.48062  1.0000
  H   H710      1.0  0.29152  0.92449  0.48481  1.0000
  H   H711      1.0  0.34467  0.98584  0.47223  1.0000
  H   H712      1.0  0.99464  0.71798  0.47851  1.0000
  C   C398      1.0  0.23859  0.95364  0.48360  1.0000
  H   H713      1.0  0.21117  0.97137  0.47356  1.0000
  H   H714      1.0  0.19939  0.93468  0.46740  1.0000
  H   H715      1.0  0.01133  0.66352  0.48306  1.0000
  H   H716      1.0  0.01165  0.57496  0.48140  1.0000
  H   H717      1.0  0.22851  0.96153  0.45637  1.0000
  H   H718      1.0  0.33998  0.49293  0.47919  1.0000
  H   H719      1.0  0.24581  0.93844  0.47838  1.0000
  C   C399      1.0  0.99914  0.58647  0.48416  1.0000
  H   H720      1.0  0.47858  0.64263  0.47182  1.0000
  C   C400      1.0  0.99003  0.65591  0.48737  1.0000
  H   H721      1.0  0.99090  0.76089  0.48718  1.0000
  H   H722      1.0  0.48168  0.55289  0.47171  1.0000
  C   C401      1.0  0.45979  0.49034  0.27082  1.0000
  Fe  Fe50      1.0  0.03391  0.68281  0.55116  1.0000
  S   S99       1.0  0.08122  0.69985  0.55134  1.0000
  H   H723      1.0  0.01307  0.62131  0.68950  1.0000
  Fe  Fe51      1.0  0.03521  0.68212  0.59334  1.0000
  S   S100      1.0  0.08168  0.69783  0.59543  1.0000
  S   S101      1.0  0.01024  0.66970  0.61913  1.0000
  Fe  Fe52      1.0  0.08360  0.72866  0.57434  1.0000
  S   S102      1.0  0.11563  0.77399  0.58146  1.0000
  Fe  Fe53      1.0  0.07565  0.66803  0.57232  1.0000
  S   S103      1.0  0.10109  0.64360  0.57052  1.0000
  S   S104      1.0  0.03665  0.71431  0.57314  1.0000
  S   S105      1.0  0.02869  0.64965  0.57131  1.0000
  N   N24       1.0  0.01503  0.58899  0.51775  1.0000
  S   S106      1.0  0.44630  0.62399  0.53410  1.0000
  S   S107      1.0  0.05625  0.71190  0.70048  1.0000
  Fe  Fe54      1.0  0.27027  0.89949  0.56533  1.0000
  S   S108      1.0  0.27905  0.94426  0.57226  1.0000
  S   S109      1.0  0.23057  0.86578  0.55090  1.0000
  Fe  Fe55      1.0  0.33081  0.91188  0.57449  1.0000
  S   S110      1.0  0.34372  0.95708  0.58169  1.0000
  S   S111      1.0  0.35918  0.89074  0.57811  1.0000
  Fe  Fe56      1.0  0.30353  0.94032  0.59674  1.0000
  S   S112      1.0  0.30680  0.96041  0.62490  1.0000
  Fe  Fe57      1.0  0.31864  0.95745  0.55657  1.0000
  S   S113      1.0  0.29197  0.89489  0.59069  1.0000
  S   S114      1.0  0.30858  0.91297  0.54849  1.0000
  H   H724      1.0  0.06331  0.61965  0.64396  1.0000
  S   S115      1.0  0.26739  0.91562  0.70392  1.0000
  H   H725      1.0  0.47235  0.71526  0.69157  1.0000
  S   S116      1.0  0.35113  0.53699  0.58173  1.0000
  C   C402      1.0  0.46571  0.84119  0.50487  1.0000
  C   C403      1.0  0.29749  0.94689  0.64692  1.0000
  C   C404      1.0  0.28238  0.91818  0.65006  1.0000
  C   C405      1.0  0.27417  0.90888  0.66767  1.0000
  C   C406      1.0  0.28144  0.92801  0.68245  1.0000
  H   H726      1.0  0.04791  0.64988  0.67403  1.0000
  C   C407      1.0  0.26831  0.94151  0.51327  1.0000
  C   C408      1.0  0.44562  0.91246  0.51269  1.0000
  H   H727      1.0  0.11753  0.52387  0.63173  1.0000
  H   H728      1.0  0.98446  0.65402  0.65348  1.0000
  C   C409      1.0  0.39495  0.91181  0.57477  1.0000
  C   C410      1.0  0.41441  0.90154  0.57914  1.0000
  C   C411      1.0  0.44289  0.91723  0.57548  1.0000
  C   C412      1.0  0.45198  0.94349  0.56775  1.0000
  C   C413      1.0  0.43266  0.95413  0.56394  1.0000
  C   C414      1.0  0.40417  0.93827  0.56733  1.0000
  H   H729      1.0  0.40726  0.88115  0.58503  1.0000
  H   H730      1.0  0.45767  0.90891  0.57838  1.0000
  C   C415      1.0  0.00640  0.59331  0.53626  1.0000
  H   H731      1.0  0.38929  0.94634  0.56392  1.0000
  C   C416      1.0  0.41942  0.59990  0.54707  1.0000
  C   C417      1.0  0.41617  0.60696  0.56472  1.0000
  C   C418      1.0  0.39445  0.58775  0.57484  1.0000
  C   C419      1.0  0.37668  0.56085  0.56780  1.0000
  C   C420      1.0  0.38003  0.55359  0.55016  1.0000
  C   C421      1.0  0.40102  0.57334  0.53969  1.0000
  H   H732      1.0  0.47986  0.68545  0.69036  1.0000
  H   H733      1.0  0.39142  0.59384  0.58818  1.0000
  H   H734      1.0  0.36631  0.53295  0.54456  1.0000
  H   H735      1.0  0.40328  0.56795  0.52596  1.0000
  C   C422      1.0  0.02961  0.52605  0.62964  1.0000
  H   H736      1.0  0.20938  0.94420  0.54978  1.0000
  C   C423      1.0  0.08147  0.60679  0.57089  1.0000
  C   C424      1.0  0.09315  0.58934  0.56485  1.0000
  C   C425      1.0  0.07720  0.55994  0.56438  1.0000
  C   C426      1.0  0.04953  0.54800  0.56995  1.0000
  C   C427      1.0  0.03809  0.56544  0.57623  1.0000
  C   C428      1.0  0.05405  0.59469  0.57684  1.0000
  H   H737      1.0  0.11442  0.59854  0.56031  1.0000
  H   H738      1.0  0.08619  0.54658  0.55955  1.0000
  H   H739      1.0  0.01675  0.55625  0.58064  1.0000
  H   H740      1.0  0.04512  0.60784  0.58199  1.0000
  C   C429      1.0  0.14778  0.79875  0.57267  1.0000
  C   C430      1.0  0.16801  0.81912  0.58447  1.0000
  C   C431      1.0  0.19364  0.83948  0.57815  1.0000
  C   C432      1.0  0.19914  0.84006  0.55982  1.0000
  C   C433      1.0  0.17877  0.81994  0.54796  1.0000
  C   C434      1.0  0.15326  0.79942  0.55432  1.0000
  H   H741      1.0  0.16379  0.81926  0.59862  1.0000
  H   H742      1.0  0.20895  0.85497  0.58742  1.0000
  H   H743      1.0  0.18268  0.82035  0.53374  1.0000
  H   H744      1.0  0.13762  0.78450  0.54497  1.0000
  C   C435      1.0  0.02332  0.68170  0.64170  1.0000
  C   C436      1.0  0.99988  0.53537  0.51216  1.0000
  C   C437      1.0  0.36163  0.82782  0.51274  1.0000
  C   C438      1.0  0.04258  0.69978  0.67805  1.0000
  C   C439      1.0  0.06019  0.71140  0.66354  1.0000
  C   C440      1.0  0.05072  0.70242  0.64554  1.0000
  H   H745      1.0  0.41261  0.52446  0.68582  1.0000
  H   H746      1.0  0.03250  0.73149  0.53583  1.0000
  H   H747      1.0  0.08136  0.72757  0.66624  1.0000
  H   H748      1.0  0.06456  0.71174  0.63460  1.0000
  H   H749      1.0  0.39926  0.50459  0.60048  1.0000
  N   N25       1.0  0.06683  0.62432  0.70112  1.0000
  C   C441      1.0  0.05131  0.63025  0.64960  1.0000
  C   C442      1.0  0.34528  0.52031  0.64721  1.0000
  C   C443      1.0  0.07024  0.75227  0.52175  1.0000
  N   N26       1.0  0.37429  0.94889  0.69675  1.0000
  C   C444      1.0  0.38883  0.85096  0.52106  1.0000
  C   C445      1.0  0.36225  0.91829  0.70150  1.0000
  C   C446      1.0  0.33104  0.89970  0.69559  1.0000
  H   H750      1.0  0.46309  0.61412  0.49905  1.0000
  C   C447      1.0  0.32280  0.86868  0.69850  1.0000
  H   H751      1.0  0.41207  0.55067  0.63427  1.0000
  Fe  Fe58      1.0  0.05119  0.70568  0.73112  1.0000
  C   C448      1.0  0.00043  0.52570  0.62841  1.0000
  H   H752      1.0  0.43761  0.94784  0.50580  1.0000
  H   H753      1.0  0.37410  0.90816  0.69504  1.0000
  C   C449      1.0  0.32431  0.55042  0.73129  1.0000
  H   H754      1.0  0.17503  0.88119  0.54086  1.0000
  H   H755      1.0  0.32691  0.90199  0.68112  1.0000
  H   H756      1.0  0.43787  0.51659  0.63445  1.0000
  H   H757      1.0  0.03385  0.76195  0.50055  1.0000
  H   H758      1.0  0.00130  0.66983  0.68520  1.0000
  H   H759      1.0  0.44978  0.91416  0.66654  1.0000
  H   H760      1.0  0.36689  0.50259  0.67335  1.0000
  H   H761      1.0  0.46685  0.92227  0.50703  1.0000
  N   N27       1.0  0.17926  0.84213  0.71421  1.0000
  C   C450      1.0  0.15805  0.81305  0.71900  1.0000
  C   C451      1.0  0.20878  0.84621  0.71888  1.0000
  C   C452      1.0  0.17392  0.86285  0.72560  1.0000
  C   C453      1.0  0.17645  0.84825  0.69466  1.0000
  C   C454      1.0  0.17864  0.82773  0.68059  1.0000
  C   C455      1.0  0.12672  0.80612  0.71566  1.0000
  C   C456      1.0  0.19434  0.89430  0.72331  1.0000
  C   C457      1.0  0.21458  0.82016  0.71728  1.0000
  C   C458      1.0  0.24606  0.82883  0.71805  1.0000
  C   C459      1.0  0.17279  0.83475  0.66148  1.0000
  C   C460      1.0  0.10784  0.77530  0.71909  1.0000
  H   H762      1.0  0.11688  0.52037  0.60751  1.0000
  C   C461      1.0  0.06027  0.50375  0.63555  1.0000
  H   H763      1.0  0.16132  0.79664  0.71159  1.0000
  H   H764      1.0  0.22410  0.86288  0.71056  1.0000
  C   C462      1.0  0.41471  0.84683  0.51546  1.0000
  H   H765      1.0  0.04837  0.61313  0.49999  1.0000
  H   H766      1.0  0.15268  0.86117  0.72250  1.0000
  H   H767      1.0  0.15643  0.84960  0.69192  1.0000
  H   H768      1.0  0.19322  0.86935  0.69147  1.0000
  H   H769      1.0  0.16338  0.80571  0.68285  1.0000
  H   H770      1.0  0.20025  0.82962  0.68104  1.0000
  H   H771      1.0  0.23608  0.97769  0.53280  1.0000
  H   H772      1.0  0.12235  0.81011  0.70157  1.0000
  H   H773      1.0  0.19039  0.90146  0.71000  1.0000
  H   H774      1.0  0.98205  0.55452  0.62472  1.0000
  H   H775      1.0  0.20572  0.80790  0.70457  1.0000
  C   C463      1.0  0.46998  0.89541  0.62391  1.0000
  C   C464      1.0  0.46763  0.90937  0.66392  1.0000
  H   H776      1.0  0.15111  0.83267  0.66000  1.0000
  H   H777      1.0  0.18802  0.85648  0.65827  1.0000
  H   H778      1.0  0.02833  0.64846  0.70702  1.0000
  H   H779      1.0  0.40567  0.96339  0.71862  1.0000
  H   H780      1.0  0.19375  0.50246  0.55986  1.0000
  H   H781      1.0  0.11222  0.76149  0.70968  1.0000
  C   C465      1.0  0.12553  0.70072  0.69848  1.0000
  C   C466      1.0  0.44409  0.53023  0.50272  1.0000
  N   N28       1.0  0.17884  0.72592  0.57633  1.0000
  C   C467      1.0  0.15961  0.73359  0.58714  1.0000
  C   C468      1.0  0.16686  0.71800  0.55723  1.0000
  C   C469      1.0  0.17882  0.69998  0.58445  1.0000
  C   C470      1.0  0.20868  0.74906  0.57657  1.0000
  C   C471      1.0  0.21282  0.77983  0.57862  1.0000
  C   C472      1.0  0.16588  0.73667  0.60785  1.0000
  C   C473      1.0  0.19404  0.68593  0.57378  1.0000
  C   C474      1.0  0.16143  0.74018  0.54684  1.0000
  C   C475      1.0  0.14963  0.72961  0.52772  1.0000
  C   C476      1.0  0.24285  0.80098  0.57487  1.0000
  C   C477      1.0  0.15343  0.75421  0.61699  1.0000
  C   C478      1.0  0.19676  0.66303  0.58468  1.0000
  H   H782      1.0  0.13754  0.71737  0.58485  1.0000
  H   H783      1.0  0.15944  0.75316  0.58241  1.0000
  H   H784      1.0  0.18113  0.71310  0.54883  1.0000
  H   H785      1.0  0.14655  0.69850  0.55714  1.0000
  H   H786      1.0  0.15684  0.68365  0.58610  1.0000
  H   H787      1.0  0.18882  0.70487  0.59825  1.0000
  H   H788      1.0  0.22151  0.74648  0.58789  1.0000
  H   H789      1.0  0.21924  0.74747  0.56419  1.0000
  H   H790      1.0  0.20858  0.78423  0.59256  1.0000
  H   H791      1.0  0.19865  0.78424  0.56947  1.0000
  H   H792      1.0  0.15653  0.71555  0.61383  1.0000
  H   H793      1.0  0.18877  0.74659  0.61115  1.0000
  H   H794      1.0  0.21538  0.70159  0.57032  1.0000
  H   H795      1.0  0.18183  0.67565  0.56115  1.0000
  H   H796      1.0  0.14587  0.74499  0.55371  1.0000
  H   H797      1.0  0.18121  0.75948  0.54541  1.0000
  H   H798      1.0  0.16484  0.72535  0.51990  1.0000
  H   H799      1.0  0.26419  0.49417  0.71129  1.0000
  H   H800      1.0  0.14551  0.74582  0.52074  1.0000
  H   H801      1.0  0.24523  0.82266  0.57699  1.0000
  C   C479      1.0  0.45437  0.96916  0.70005  1.0000
  H   H802      1.0  0.45878  0.56659  0.64549  1.0000
  H   H803      1.0  0.16332  0.77602  0.61214  1.0000
  H   H804      1.0  0.13044  0.74501  0.61412  1.0000
  H   H805      1.0  0.15730  0.75492  0.63181  1.0000
  H   H806      1.0  0.17568  0.64668  0.58812  1.0000
  H   H807      1.0  0.20710  0.65288  0.57657  1.0000
  H   H808      1.0  0.20967  0.67206  0.59728  1.0000
  N   N29       1.0  0.44274  0.86568  0.52463  1.0000
  H   H809      1.0  0.01902  0.72520  0.50415  1.0000
  C   C480      1.0  0.44767  0.85324  0.54179  1.0000
  H   H810      1.0  0.24977  0.80990  0.71767  1.0000
  H   H811      1.0  0.04238  0.61615  0.72492  1.0000
  C   C481      1.0  0.40456  0.96294  0.70358  1.0000
  H   H812      1.0  0.28049  0.88899  0.49196  1.0000
  C   C482      1.0  0.42485  0.84502  0.55590  1.0000
  H   H813      1.0  0.24771  0.79870  0.56068  1.0000
  H   H814      1.0  0.46421  0.89300  0.60921  1.0000
  H   H815      1.0  0.35828  0.80700  0.51770  1.0000
  H   H816      1.0  0.45451  0.95113  0.52763  1.0000
  C   C483      1.0  0.41489  0.51948  0.51037  1.0000
  H   H817      1.0  0.03435  0.63315  0.51149  1.0000
  C   C484      1.0  0.02211  0.74554  0.51038  1.0000
  H   H818      1.0  0.36220  0.82763  0.49780  1.0000
  H   H819      1.0  0.99300  0.49269  0.68430  1.0000
  H   H820      1.0  0.34359  0.83161  0.51666  1.0000
  C   C485      1.0  0.06178  0.64136  0.66882  1.0000
  C   C486      1.0  0.35833  0.96158  0.70689  1.0000
  H   H821      1.0  0.41283  0.97681  0.66677  1.0000
  H   H822      1.0  0.33988  0.54590  0.69857  1.0000
  H   H823      1.0  0.05398  0.64795  0.64082  1.0000
  C   C487      1.0  0.11421  0.66903  0.70046  1.0000
  H   H824      1.0  0.12961  0.71017  0.52806  1.0000
  C   C488      1.0  0.00570  0.66999  0.65623  1.0000
  H   H825      1.0  0.38663  0.85092  0.53579  1.0000
  C   C489      1.0  0.09193  0.64906  0.51911  1.0000
  H   H826      1.0  0.40580  0.82607  0.55106  1.0000
  H   H827      1.0  0.41636  0.52750  0.52442  1.0000
  H   H828      1.0  0.42927  0.89371  0.53824  1.0000
  H   H829      1.0  0.43965  0.97450  0.55800  1.0000
  H   H830      1.0  0.40477  0.49618  0.51050  1.0000
  H   H831      1.0  0.25604  0.84193  0.70639  1.0000
  H   H832      1.0  0.23768  0.50528  0.71673  1.0000
  H   H833      1.0  0.98412  0.60114  0.50661  1.0000
  C   C490      1.0  0.19044  0.91272  0.73783  1.0000
  N   N30       1.0  0.24332  0.94615  0.51810  1.0000
  H   H834      1.0  0.45521  0.57194  0.51413  1.0000
  H   H835      1.0  0.99556  0.61432  0.72884  1.0000
  H   H836      1.0  0.37168  0.93285  0.66935  1.0000
  H   H837      1.0  0.40598  0.54979  0.67371  1.0000
  H   H838      1.0  0.32778  0.49904  0.64454  1.0000
  H   H839      1.0  0.46808  0.82826  0.51572  1.0000
  H   H840      1.0  0.40003  0.49555  0.70835  1.0000
  H   H841      1.0  0.00238  0.61218  0.53646  1.0000
  H   H842      1.0  0.20524  0.93505  0.73583  1.0000
  H   H843      1.0  0.31691  0.90521  0.70355  1.0000
  C   C491      1.0  0.01042  0.51316  0.51480  1.0000
  H   H844      1.0  0.46932  0.89942  0.69215  1.0000
  C   C492      1.0  0.42318  0.94914  0.69728  1.0000
  C   C493      1.0  0.46795  0.56832  0.63200  1.0000
  C   C494      1.0  0.06811  0.57711  0.70792  1.0000
  H   H845      1.0  0.41749  0.92779  0.52415  1.0000
  H   H846      1.0  0.27631  0.90324  0.63883  1.0000
  S   S117      1.0  0.02811  0.51155  0.56902  1.0000
  H   H847      1.0  0.30171  0.97173  0.69030  1.0000
  C   C495      1.0  0.41135  0.54454  0.68726  1.0000
  H   H848      1.0  0.45934  0.88716  0.65936  1.0000
  C   C496      1.0  0.39736  0.91301  0.62976  1.0000
  H   H849      1.0  0.20819  0.92195  0.49948  1.0000
  H   H850      1.0  0.08833  0.61584  0.72381  1.0000
  H   H851      1.0  0.08296  0.65918  0.66800  1.0000
  C   C497      1.0  0.08310  0.65517  0.70593  1.0000
  C   C498      1.0  0.45834  0.56270  0.50131  1.0000
  H   H852      1.0  0.11110  0.77030  0.73317  1.0000
  H   H853      1.0  0.45161  0.87900  0.63033  1.0000
  H   H854      1.0  0.48124  0.85532  0.60525  1.0000
  H   H855      1.0  0.08382  0.75532  0.53405  1.0000
  H   H856      1.0  0.98840  0.51319  0.61629  1.0000
  H   H857      1.0  0.44531  0.56692  0.49085  1.0000
  H   H858      1.0  0.41783  0.54748  0.58332  1.0000
  H   H859      1.0  0.99337  0.53433  0.49773  1.0000
  H   H860      1.0  0.41902  0.93034  0.70538  1.0000
  H   H861      1.0  0.45953  0.97606  0.71444  1.0000
  C   C499      1.0  0.01488  0.49539  0.68583  1.0000
  N   N31       1.0  0.36035  0.51865  0.69896  1.0000
  H   H862      1.0  0.16868  0.91048  0.73705  1.0000
  H   H863      1.0  0.36457  0.91625  0.71636  1.0000
  H   H864      1.0  0.28111  0.95670  0.50326  1.0000
  H   H865      1.0  0.08550  0.77091  0.71699  1.0000
  H   H866      1.0  0.18809  0.92965  0.52935  1.0000
  H   H867      1.0  0.21778  0.90266  0.52453  1.0000
  H   H868      1.0  0.44760  0.56251  0.70621  1.0000
  C   C500      1.0  0.44991  0.92936  0.62811  1.0000
  C   C501      1.0  0.26139  0.91148  0.50618  1.0000
  H   H869      1.0  0.41786  0.83145  0.58354  1.0000
  C   C502      1.0  0.33918  0.52764  0.70606  1.0000
  C   C503      1.0  0.28611  0.91079  0.49667  1.0000
  H   H870      1.0  0.43002  0.62749  0.57044  1.0000
  H   H871      1.0  0.43216  0.59817  0.60681  1.0000
  H   H872      1.0  0.04351  0.54308  0.63929  1.0000
  H   H873      1.0  0.30063  0.85590  0.69386  1.0000
  C   C504      1.0  0.35158  0.50845  0.67965  1.0000
  C   C505      1.0  0.43817  0.54659  0.58294  1.0000
  C   C506      1.0  0.43495  0.83815  0.57382  1.0000
  H   H874      1.0  0.44951  0.83367  0.53901  1.0000
  H   H875      1.0  0.06504  0.50167  0.60612  1.0000
  H   H876      1.0  0.41637  0.88856  0.61882  1.0000
  H   H877      1.0  0.45075  0.51480  0.61287  1.0000
  H   H878      1.0  0.17491  0.82003  0.65160  1.0000
  H   H879      1.0  0.44874  0.93696  0.61429  1.0000
  H   H880      1.0  0.36359  0.55082  0.66908  1.0000
  N   N32       1.0  0.99416  0.74537  0.51364  1.0000
  H   H881      1.0  0.41985  0.89304  0.64295  1.0000
  H   H882      1.0  0.43051  0.89941  0.50183  1.0000
  C   C507      1.0  0.44577  0.89469  0.52912  1.0000
  H   H883      1.0  0.01473  0.79075  0.51391  1.0000
  H   H884      1.0  0.08794  0.66694  0.51483  1.0000
  C   C508      1.0  0.44062  0.56728  0.69296  1.0000
  C   C509      1.0  0.06282  0.61819  0.68096  1.0000
  C   C510      1.0  0.01522  0.67891  0.67427  1.0000
  H   H885      1.0  0.38808  0.56346  0.69986  1.0000
  H   H886      1.0  0.45595  0.56836  0.68282  1.0000
  C   C511      1.0  0.38931  0.54316  0.70095  1.0000
  H   H887      1.0  0.10015  0.57263  0.72476  1.0000
  C   C512      1.0  0.08876  0.56481  0.71154  1.0000
  H   H888      1.0  0.44591  0.82822  0.49704  1.0000
  H   H889      1.0  0.19505  0.50300  0.73261  1.0000
  H   H890      1.0  0.32639  0.52916  0.66988  1.0000
  H   H891      1.0  0.34934  0.94876  0.67316  1.0000
  H   H892      1.0  0.40005  0.92749  0.64134  1.0000
  C   C513      1.0  0.98526  0.65691  0.50591  1.0000
  H   H893      1.0  0.33706  0.51805  0.73484  1.0000
  C   C514      1.0  0.30493  0.96594  0.66173  1.0000
  H   H894      1.0  0.39844  0.54390  0.71479  1.0000
  H   H895      1.0  0.02862  0.61548  0.64939  1.0000
  H   H896      1.0  0.32498  0.86492  0.71303  1.0000
  C   C515      1.0  0.40133  0.59365  0.62627  1.0000
  H   H897      1.0  0.25812  0.79813  0.58412  1.0000
  C   C516      1.0  0.03891  0.61305  0.71000  1.0000
  H   H898      1.0  0.44069  0.58815  0.69405  1.0000
  H   H899      1.0  0.09853  0.64061  0.50739  1.0000
  C   C517      1.0  0.34673  0.52909  0.66705  1.0000
  C   C518      1.0  0.22668  0.92384  0.53121  1.0000
  H   H900      1.0  0.02955  0.51823  0.50708  1.0000
  H   H901      1.0  0.38228  0.57964  0.61805  1.0000
  H   H902      1.0  0.07239  0.52005  0.64606  1.0000
  C   C519      1.0  0.07706  0.51399  0.61821  1.0000
  H   H903      1.0  0.05789  0.56934  0.69440  1.0000
  H   H904      1.0  0.01535  0.56535  0.61441  1.0000
  H   H905      1.0  0.10350  0.61660  0.70275  1.0000
  H   H906      1.0  0.40517  0.61572  0.62436  1.0000
  H   H907      1.0  0.10929  0.65680  0.52955  1.0000
  N   N33       1.0  0.03003  0.49871  0.63420  1.0000
  H   H908      1.0  0.33609  0.86169  0.69065  1.0000
  H   H909      1.0  0.24067  0.92324  0.54244  1.0000
  H   H910      1.0  0.45578  0.58216  0.56532  1.0000
  H   H911      1.0  0.16574  0.90232  0.55587  1.0000
  H   H912      1.0  0.10422  0.57048  0.70077  1.0000
  H   H913      1.0  0.41880  0.94243  0.68285  1.0000
  C   C520      1.0  0.18358  0.90007  0.55000  1.0000
  H   H914      1.0  0.08327  0.65868  0.72078  1.0000
  H   H915      1.0  0.46580  0.90723  0.53702  1.0000
  H   H916      1.0  0.03128  0.52857  0.66704  1.0000
  H   H917      1.0  0.21651  0.89815  0.72419  1.0000
  C   C521      1.0  0.34301  0.53663  0.72633  1.0000
  C   C522      1.0  0.46597  0.86883  0.51224  1.0000
  H   H918      1.0  0.36403  0.50081  0.72445  1.0000
  H   H919      1.0  0.44451  0.60337  0.62998  1.0000
  C   C523      1.0  0.42693  0.59004  0.62058  1.0000
  H   H920      1.0  0.31744  0.51044  0.70383  1.0000
  H   H921      1.0  0.46709  0.95832  0.69619  1.0000
  H   H922      1.0  0.26167  0.88674  0.66979  1.0000
  H   H923      1.0  0.03253  0.56384  0.53095  1.0000
  H   H924      1.0  0.08223  0.53634  0.61602  1.0000
  C   C524      1.0  0.22440  0.94404  0.50194  1.0000
  H   H925      1.0  0.43806  0.54858  0.55379  1.0000
  H   H926      1.0  0.11316  0.70546  0.68790  1.0000
  H   H927      1.0  0.44112  0.82094  0.57192  1.0000
  H   H928      1.0  0.45128  0.94645  0.63749  1.0000
  H   H929      1.0  0.19617  0.89694  0.56119  1.0000
  C   C525      1.0  0.43623  0.52114  0.61997  1.0000
  H   H930      1.0  0.40335  0.54768  0.61080  1.0000
  H   H931      1.0  0.39742  0.58873  0.64071  1.0000
  H   H932      1.0  0.07260  0.66728  0.70014  1.0000
  H   H933      1.0  0.05287  0.51093  0.67174  1.0000
  H   H934      1.0  0.33478  0.96816  0.50338  1.0000
  H   H935      1.0  0.37672  0.89431  0.63057  1.0000
  H   H936      1.0  0.46447  0.58477  0.59838  1.0000
  C   C526      1.0  0.37075  0.95086  0.67659  1.0000
  H   H937      1.0  0.36519  0.52015  0.64346  1.0000
  H   H938      1.0  0.28287  0.94583  0.52529  1.0000
  H   H939      1.0  0.46521  0.88034  0.50002  1.0000
  H   H940      1.0  0.41912  0.86213  0.55862  1.0000
  H   H941      1.0  0.41568  0.84962  0.50060  1.0000
  C   C527      1.0  0.04180  0.74990  0.52714  1.0000
  H   H942      1.0  0.11695  0.65998  0.68757  1.0000
  H   H943      1.0  0.36010  0.95871  0.72165  1.0000
  C   C528      1.0  0.45731  0.56177  0.59959  1.0000
  H   H944      1.0  0.36320  0.98272  0.64839  1.0000
  C   C529      1.0  0.29699  0.95662  0.67933  1.0000
  C   C530      1.0  0.08300  0.60969  0.70924  1.0000
  H   H945      1.0  0.03865  0.53302  0.61622  1.0000
  C   C531      1.0  0.45205  0.55995  0.56555  1.0000
  H   H946      1.0  0.37783  0.96024  0.64012  1.0000
  Fe  Fe59      1.0  0.28464  0.92367  0.73342  1.0000
  C   C532      1.0  0.42080  0.55870  0.62094  1.0000
  C   C533      1.0  0.20167  0.92643  0.53978  1.0000
  C   C534      1.0  0.43830  0.93618  0.51795  1.0000
  H   H947      1.0  0.34163  0.53530  0.63852  1.0000
  N   N34       1.0  0.44520  0.55219  0.61779  1.0000
  H   H948      1.0  0.36503  0.55176  0.72991  1.0000
  H   H949      1.0  0.07047  0.60887  0.53116  1.0000
  H   H950      1.0  0.12455  0.71084  0.71141  1.0000
  H   H951      1.0  0.08005  0.61400  0.67576  1.0000
  H   H952      1.0  0.98960  0.58410  0.57172  1.0000
  C   C535      1.0  0.35855  0.49432  0.71003  1.0000
  H   H953      1.0  0.47237  0.55906  0.56430  1.0000
  H   H954      1.0  0.04333  0.59844  0.67794  1.0000
  H   H955      1.0  0.25669  0.89708  0.51766  1.0000
  C   C536      1.0  0.25380  0.97435  0.52777  1.0000
  C   C537      1.0  0.06562  0.62622  0.52696  1.0000
  H   H956      1.0  0.21228  0.95603  0.50478  1.0000
  H   H957      1.0  0.00910  0.77662  0.53555  1.0000
  H   H958      1.0  0.06097  0.63556  0.53909  1.0000
  H   H959      1.0  0.39720  0.92358  0.61695  1.0000
  H   H960      1.0  0.21510  0.85399  0.73310  1.0000
  C   C538      1.0  0.42085  0.90391  0.63019  1.0000
  H   H961      1.0  0.43446  0.52438  0.58220  1.0000
  H   H962      1.0  0.04591  0.76921  0.53504  1.0000
  H   H963      1.0  0.02682  0.59006  0.70741  1.0000
  H   H964      1.0  0.12736  0.66531  0.71102  1.0000
  S   S118      1.0  0.01480  0.67222  0.52178  1.0000
  H   H965      1.0  0.05182  0.56877  0.71817  1.0000
  H   H966      1.0  0.16104  0.80953  0.73351  1.0000
  H   H967      1.0  0.02361  0.59768  0.54647  1.0000
  Fe  Fe60      1.0  0.32555  0.49131  0.57331  1.0000
  H   H968      1.0  0.00080  0.73708  0.55103  1.0000
  C   C539      1.0  0.01882  0.62555  0.70407  1.0000
  H   H969      1.0  0.25870  0.51891  0.69738  1.0000
  H   H970      1.0  0.26706  0.97511  0.53991  1.0000
  H   H971      1.0  0.12043  0.81854  0.72500  1.0000
  C   C540      1.0  0.10470  0.51177  0.61972  1.0000
  H   H972      1.0  0.45320  0.85702  0.57958  1.0000
  H   H973      1.0  0.25602  0.84103  0.73068  1.0000
  H   H974      1.0  0.40993  0.82443  0.51737  1.0000
  C   C541      1.0  0.99140  0.61203  0.71401  1.0000
  H   H975      1.0  0.01387  0.56838  0.63863  1.0000
  H   H976      1.0  0.06755  0.73275  0.51453  1.0000
  H   H977      1.0  0.04028  0.56924  0.50797  1.0000
  H   H978      1.0  0.41497  0.98529  0.69997  1.0000
  H   H979      1.0  0.45652  0.52274  0.51134  1.0000
  H   H980      1.0  0.46815  0.86799  0.54844  1.0000
  H   H981      1.0  0.20515  0.80606  0.72866  1.0000
  H   H982      1.0  0.47659  0.55902  0.59808  1.0000
  C   C542      1.0  0.24806  0.49999  0.70557  1.0000
  N   N35       1.0  0.47578  0.92451  0.63062  1.0000
  C   C543      1.0  0.04031  0.61572  0.51319  1.0000
  H   H983      1.0  0.39038  0.87126  0.51631  1.0000
  H   H984      1.0  0.46019  0.98784  0.69157  1.0000
  H   H985      1.0  0.30188  0.53586  0.72830  1.0000
  C   C544      1.0  0.40547  0.50045  0.61405  1.0000
  H   H986      1.0  0.14776  0.70985  0.69461  1.0000
  C   C545      1.0  0.99158  0.58485  0.50427  1.0000
  H   H987      1.0  0.30471  0.91784  0.50612  1.0000
  H   H988      1.0  0.08092  0.77049  0.51300  1.0000
  H   H989      1.0  0.01535  0.51181  0.52930  1.0000
  H   H990      1.0  0.39069  0.50221  0.62365  1.0000
  H   H991      1.0  0.33556  0.95049  0.70330  1.0000
  H   H992      1.0  0.24280  0.90302  0.49671  1.0000
  C   C546      1.0  0.02322  0.56513  0.51752  1.0000
  H   H993      1.0  0.46701  0.84173  0.62688  1.0000
  C   C547      1.0  0.99921  0.77340  0.52182  1.0000
  H   H994      1.0  0.33007  0.57004  0.72380  1.0000
  H   H995      1.0  0.99588  0.82225  0.53223  1.0000
  H   H996      1.0  0.15531  0.49619  0.61297  1.0000
  H   H997      1.0  0.31629  0.98820  0.65949  1.0000
  H   H998      1.0  0.98832  0.51697  0.64057  1.0000
  H   H999      1.0  0.02526  0.50955  0.69771  1.0000
  H   H1000     1.0  0.40139  0.52615  0.50200  1.0000
  C   C548      1.0  0.03110  0.50787  0.66892  1.0000
  H   H1001     1.0  0.07716  0.54158  0.71184  1.0000
  C   C549      1.0  0.00321  0.55535  0.62640  1.0000
  C   C550      1.0  0.39237  0.97751  0.66750  1.0000
  H   H1002     1.0  0.47805  0.59100  0.62905  1.0000
  H   H1003     1.0  0.99404  0.49231  0.50995  1.0000
  H   H1004     1.0  0.98602  0.55095  0.54680  1.0000
  C   C551      1.0  0.38246  0.97956  0.64825  1.0000
  H   H1005     1.0  0.44147  0.52031  0.48908  1.0000
  H   H1006     1.0  0.11342  0.82136  0.82287  1.0000
  S   S119      1.0  0.00433  0.86844  0.90109  1.0000
  S   S120      1.0  0.00198  0.79415  0.91140  1.0000
  Fe  Fe61      1.0  0.02879  0.70200  0.77008  1.0000
  S   S121      1.0  0.06821  0.70384  0.78303  1.0000
  H   H1007     1.0  0.98522  0.85310  0.86132  1.0000
  Fe  Fe62      1.0  0.09017  0.73854  0.76387  1.0000
  C   C552      1.0  0.01746  0.86118  0.84175  1.0000
  Fe  Fe63      1.0  0.06612  0.67391  0.76048  1.0000
  S   S122      1.0  0.08147  0.64009  0.76248  1.0000
  H   H1008     1.0  0.15577  0.84237  0.80439  1.0000
  S   S123      1.0  0.02494  0.66926  0.74849  1.0000
  Fe  Fe64      1.0  0.33376  0.93417  0.76000  1.0000
  S   S124      1.0  0.38153  0.95418  0.75740  1.0000
  Fe  Fe65      1.0  0.27717  0.88340  0.76435  1.0000
  H   H1009     1.0  0.01772  0.85606  0.82726  1.0000
  C   C553      1.0  0.20325  0.92588  0.87385  1.0000
  Fe  Fe66      1.0  0.28336  0.94163  0.77426  1.0000
  S   S125      1.0  0.30633  0.91720  0.78403  1.0000
  H   H1010     1.0  0.26358  0.96569  0.90966  1.0000
  H   H1011     1.0  0.05970  0.86190  0.81982  1.0000
  S   S126      1.0  0.13709  0.92791  0.89861  1.0000
  H   H1012     1.0  0.15607  0.92819  0.79276  1.0000
  H   H1013     1.0  0.17134  0.85628  0.84488  1.0000
  C   C554      1.0  0.42919  0.51169  0.80146  1.0000
  H   H1014     1.0  0.11741  0.74327  0.82970  1.0000
  H   H1015     1.0  0.04367  0.70549  0.84260  1.0000
  C   C555      1.0  0.07955  0.58780  0.75913  1.0000
  H   H1016     1.0  0.09429  0.80541  0.87203  1.0000
  C   C556      1.0  0.12996  0.81409  0.82381  1.0000
  C   C557      1.0  0.44119  0.91239  0.75792  1.0000
  H   H1017     1.0  0.02989  0.55052  0.82356  1.0000
  H   H1018     1.0  0.24319  0.92139  0.93899  1.0000
  C   C558      1.0  0.40353  0.93698  0.75685  1.0000
  C   C559      1.0  0.39448  0.90942  0.76242  1.0000
  C   C560      1.0  0.12383  0.93694  0.85019  1.0000
  H   H1019     1.0  0.06233  0.80778  0.83165  1.0000
  C   C561      1.0  0.07927  0.80839  0.88082  1.0000
  C   C562      1.0  0.43892  0.56888  0.75244  1.0000
  C   C563      1.0  0.42301  0.58102  0.75996  1.0000
  C   C564      1.0  0.39585  0.56385  0.76587  1.0000
  C   C565      1.0  0.38384  0.53444  0.76375  1.0000
  C   C566      1.0  0.39930  0.52239  0.75550  1.0000
  C   C567      1.0  0.20818  0.90613  0.84345  1.0000
  H   H1020     1.0  0.22845  0.92427  0.84034  1.0000
  H   H1021     1.0  0.40287  0.94494  0.79762  1.0000
  C   C568      1.0  0.06695  0.85059  0.82959  1.0000
  H   H1022     1.0  0.41184  0.94345  0.82104  1.0000
  C   C569      1.0  0.20266  0.83850  0.77122  1.0000
  H   H1023     1.0  0.19230  0.93719  0.84824  1.0000
  C   C570      1.0  0.41329  0.89734  0.76311  1.0000
  C   C571      1.0  0.06116  0.81884  0.86993  1.0000
  H   H1024     1.0  0.28444  0.95260  0.92268  1.0000
  H   H1025     1.0  0.04579  0.82025  0.87919  1.0000
  H   H1026     1.0  0.16276  0.83923  0.77331  1.0000
  C   C572      1.0  0.06361  0.60291  0.75975  1.0000
  S   S127      1.0  0.00211  0.75313  0.86812  1.0000
  H   H1027     1.0  0.01560  0.53846  0.80105  1.0000
  C   C573      1.0  0.03725  0.54346  0.75584  1.0000
  C   C574      1.0  0.27921  0.98019  0.84645  1.0000
  C   C575      1.0  0.03432  0.58811  0.75840  1.0000
  C   C576      1.0  0.22949  0.86907  0.82785  1.0000
  C   C577      1.0  0.99939  0.74207  0.84492  1.0000
  C   C578      1.0  0.27204  0.98022  0.93825  1.0000
  C   C579      1.0  0.17333  0.82612  0.77187  1.0000
  C   C580      1.0  0.04144  0.88563  0.90218  1.0000
  C   C581      1.0  0.05707  0.87090  0.90581  1.0000
  C   C582      1.0  0.08648  0.88462  0.90558  1.0000
  C   C583      1.0  0.10061  0.91315  0.90163  1.0000
  C   C584      1.0  0.08514  0.92821  0.89852  1.0000
  C   C585      1.0  0.05560  0.91443  0.89875  1.0000
  H   H1028     1.0  0.04654  0.84889  0.90866  1.0000
  H   H1029     1.0  0.09833  0.87289  0.90813  1.0000
  H   H1030     1.0  0.09584  0.95021  0.89541  1.0000
  H   H1031     1.0  0.04365  0.92600  0.89598  1.0000
  H   H1032     1.0  0.21142  0.77938  0.76655  1.0000
  C   C586      1.0  0.99703  0.71947  0.80940  1.0000
  C   C587      1.0  0.02287  0.73512  0.81856  1.0000
  C   C588      1.0  0.02399  0.74590  0.83625  1.0000
  H   H1033     1.0  0.04193  0.73825  0.81216  1.0000
  H   H1034     1.0  0.04407  0.75688  0.84341  1.0000
  C   C589      1.0  0.06682  0.62316  0.81266  1.0000
  H   H1035     1.0  0.07911  0.54702  0.75666  1.0000
  C   C590      1.0  0.20078  0.79248  0.76792  1.0000
  H   H1036     1.0  0.99859  0.54726  0.75571  1.0000
  C   C591      1.0  0.18560  0.90832  0.81489  1.0000
  H   H1037     1.0  0.38410  0.57343  0.77225  1.0000
  H   H1038     1.0  0.23676  0.91564  0.91494  1.0000
  H   H1039     1.0  0.46531  0.53678  0.78647  1.0000
  H   H1040     1.0  0.08956  0.74612  0.84139  1.0000
  H   H1041     1.0  0.41359  0.51310  0.79176  1.0000
  N   N36       1.0  0.19362  0.88959  0.82636  1.0000
  H   H1042     1.0  0.14709  0.94655  0.84995  1.0000
  H   H1043     1.0  0.03742  0.51013  0.81412  1.0000
  H   H1044     1.0  0.43864  0.97334  0.74719  1.0000
  C   C592      1.0  0.24299  0.85537  0.81585  1.0000
  C   C593      1.0  0.45774  0.53721  0.80022  1.0000
  H   H1045     1.0  0.24644  0.88513  0.83666  1.0000
  H   H1046     1.0  0.25247  0.98278  0.93943  1.0000
  H   H1047     1.0  0.21451  0.86094  0.77270  1.0000
  H   H1048     1.0  0.15595  0.90931  0.77241  1.0000
  C   C594      1.0  0.03448  0.84977  0.85354  1.0000
  H   H1049     1.0  0.17357  0.82853  0.81892  1.0000
  H   H1050     1.0  0.45032  0.95413  0.78908  1.0000
  H   H1051     1.0  0.43129  0.59938  0.80243  1.0000
  H   H1052     1.0  0.06314  0.83429  0.98203  1.0000
  H   H1053     1.0  0.02174  0.59939  0.75895  1.0000
  H   H1054     1.0  0.16898  0.90248  0.85521  1.0000
  S   S128      1.0  0.25353  0.90688  0.75538  1.0000
  H   H1055     1.0  0.10222  0.59900  0.76024  1.0000
  H   H1056     1.0  0.40626  0.87626  0.76793  1.0000
  S   S129      1.0  0.35076  0.51375  0.77310  1.0000
  C   C595      1.0  0.08110  0.70337  0.83339  1.0000
  C   C596      1.0  0.07932  0.89083  0.85029  1.0000
  H   H1057     1.0  0.21464  0.85280  0.83658  1.0000
  H   H1058     1.0  0.45868  0.94409  0.82921  1.0000
  Fe  Fe67      1.0  0.16687  0.97427  0.90221  1.0000
  H   H1059     1.0  0.11821  0.89940  0.83610  1.0000
  H   H1060     1.0  0.06326  0.60519  0.82140  1.0000
  C   C597      1.0  0.26672  0.95813  0.92300  1.0000
  C   C598      1.0  0.42036  0.95286  0.80798  1.0000
  H   H1061     1.0  0.27422  0.97024  0.95089  1.0000
  C   C599      1.0  0.24049  0.93086  0.92627  1.0000
  H   H1062     1.0  0.08769  0.86226  0.87391  1.0000
  C   C600      1.0  0.01623  0.50599  0.81851  1.0000
  C   C601      1.0  0.19130  0.91793  0.85452  1.0000
  C   C602      1.0  0.07918  0.84789  0.86191  1.0000
  C   C603      1.0  0.98679  0.84839  0.84688  1.0000
  H   H1063     1.0  0.07432  0.82168  0.80013  1.0000
  S   S130      1.0  0.26067  0.96074  0.79208  1.0000
  H   H1064     1.0  0.08670  0.69334  0.82202  1.0000
  H   H1065     1.0  0.21380  0.89297  0.85270  1.0000
  C   C604      1.0  0.15757  0.79690  0.77069  1.0000
  H   H1066     1.0  0.02242  0.82656  0.85313  1.0000
  H   H1067     1.0  0.15926  0.75744  0.76752  1.0000
  H   H1068     1.0  0.06553  0.78789  0.88667  1.0000
  C   C605      1.0  0.04746  0.64303  0.83697  1.0000
  C   C606      1.0  0.03128  0.66246  0.86183  1.0000
  C   C607      1.0  0.02125  0.55854  0.75657  1.0000
  C   C608      1.0  0.05235  0.81346  0.80445  1.0000
  H   H1069     1.0  0.32711  0.55577  0.74597  1.0000
  H   H1070     1.0  0.02925  0.80931  0.82820  1.0000
  C   C609      1.0  0.16769  0.91872  0.78532  1.0000
  H   H1071     1.0  0.22170  0.93470  0.92712  1.0000
  C   C610      1.0  0.21658  0.82177  0.76939  1.0000
  C   C611      1.0  0.05160  0.81882  0.82467  1.0000
  C   C612      1.0  0.44321  0.94479  0.80231  1.0000
  H   H1072     1.0  0.25525  0.84731  0.82428  1.0000
  C   C613      1.0  0.09427  0.73493  0.83027  1.0000
  H   H1073     1.0  0.01475  0.50194  0.83314  1.0000
  H   H1074     1.0  0.08926  0.85721  0.82655  1.0000
  H   H1075     1.0  0.04157  0.79051  0.80136  1.0000
  H   H1076     1.0  0.04934  0.80289  0.85934  1.0000
  C   C614      1.0  0.04863  0.69070  0.83445  1.0000
  H   H1077     1.0  0.23155  0.90298  0.81138  1.0000
  H   H1078     1.0  0.13144  0.80734  0.83774  1.0000
  H   H1079     1.0  0.43116  0.49225  0.79818  1.0000
  S   S131      1.0  0.47461  0.58906  0.74707  1.0000
  C   C615      1.0  0.01324  0.53294  0.81552  1.0000
  H   H1080     1.0  0.12373  0.79568  0.81442  1.0000
  H   H1081     1.0  0.22661  0.83744  0.80791  1.0000
  H   H1082     1.0  0.19230  0.93653  0.88080  1.0000
  H   H1083     1.0  0.20468  0.92804  0.81237  1.0000
  N   N37       1.0  0.06466  0.85911  0.84871  1.0000
  H   H1084     1.0  0.20493  0.86998  0.80428  1.0000
  C   C616      1.0  0.42676  0.53950  0.75005  1.0000
  S   S132      1.0  0.05083  0.73754  0.75139  1.0000
  H   H1085     1.0  0.11813  0.94378  0.86299  1.0000
  S   S133      1.0  0.25359  0.83694  0.76958  1.0000
  H   H1086     1.0  0.44316  0.56608  0.79117  1.0000
  H   H1087     1.0  0.12186  0.89870  0.86024  1.0000
  C   C617      1.0  0.15818  0.83732  0.81850  1.0000
  N   N38       1.0  0.03355  0.66142  0.84161  1.0000
  C   C618      1.0  0.06651  0.55829  0.75707  1.0000
  H   H1088     1.0  0.11581  0.94477  0.83866  1.0000
  H   H1089     1.0  0.07364  0.68134  0.90142  1.0000
  C   C619      1.0  0.44996  0.93960  0.75168  1.0000
  H   H1090     1.0  0.04129  0.82343  0.79659  1.0000
  H   H1091     1.0  0.37322  0.89766  0.76670  1.0000
  S   S134      1.0  0.99417  0.70149  0.78825  1.0000
  S   S135      1.0  0.12104  0.78272  0.77299  1.0000
  H   H1092     1.0  0.05116  0.65363  0.80809  1.0000
  H   H1093     1.0  0.02596  0.88425  0.84369  1.0000
  H   H1094     1.0  0.43340  0.92161  0.80053  1.0000
  C   C620      1.0  0.43133  0.95193  0.75141  1.0000
  H   H1095     1.0  0.07465  0.89801  0.86340  1.0000
  H   H1096     1.0  0.18243  0.88765  0.78827  1.0000
  H   H1097     1.0  0.07126  0.90014  0.83960  1.0000
  H   H1098     1.0  0.47430  0.61396  0.78400  1.0000
  H   H1099     1.0  0.02069  0.67557  0.86560  1.0000
  H   H1100     1.0  0.22600  0.94040  0.87401  1.0000
  H   H1101     1.0  0.14982  0.86834  0.83286  1.0000
  C   C621      1.0  0.11181  0.90497  0.84901  1.0000
  S   S136      1.0  0.46459  0.89698  0.76079  1.0000
  H   H1102     1.0  0.09096  0.82349  0.89204  1.0000
  H   H1103     1.0  0.20001  0.90688  0.88141  1.0000
  H   H1104     1.0  0.43192  0.60356  0.76170  1.0000
  H   H1105     1.0  0.09776  0.84732  0.85580  1.0000
  S   S137      1.0  0.31257  0.96101  0.75124  1.0000
  H   H1106     1.0  0.18875  0.93549  0.78220  1.0000
  C   C622      1.0  0.16795  0.86346  0.83138  1.0000
  C   C623      1.0  0.21465  0.88326  0.81653  1.0000
  H   H1107     1.0  0.08636  0.73931  0.81727  1.0000
  H   H1108     1.0  0.25739  0.87079  0.80645  1.0000
  H   H1109     1.0  0.39060  0.49980  0.75408  1.0000
  C   C624      1.0  0.17065  0.89609  0.79639  1.0000
  C   C625      1.0  0.17128  0.78003  0.76842  1.0000
  H   H1110     1.0  0.17126  0.91473  0.82205  1.0000
  H   H1111     1.0  0.14916  0.87935  0.79835  1.0000
  H   H1112     1.0  0.03370  0.85614  0.86780  1.0000
  S   S138      1.0  0.20854  0.97835  0.91225  1.0000
  H   H1113     1.0  0.43890  0.52986  0.74429  1.0000
  H   H1114     1.0  0.44145  0.56225  0.81482  1.0000
  H   H1115     1.0  0.44691  0.64232  0.78387  1.0000
  C   C626      1.0  0.46785  0.95499  0.81662  1.0000
  C   C627      1.0  0.45534  0.56494  0.80334  1.0000
  H   H1116     1.0  0.46842  0.90978  0.79806  1.0000
  C   C628      1.0  0.27994  0.97120  0.82849  1.0000
  H   H1117     1.0  0.08882  0.63958  0.81476  1.0000
  C   C629      1.0  0.45114  0.61812  0.80634  1.0000
  H   H1118     1.0  0.07259  0.66477  0.87019  1.0000
  C   C630      1.0  0.26125  0.97209  0.81509  1.0000
  C   C631      1.0  0.05344  0.67162  0.89343  1.0000
  S   S139      1.0  0.09221  0.70931  0.74276  1.0000
  H   H1119     1.0  0.06375  0.61556  0.79840  1.0000
  H   H1120     1.0  0.99247  0.53045  0.81980  1.0000
  H   H1121     1.0  0.04070  0.69159  0.82051  1.0000
  H   H1122     1.0  0.09128  0.70018  0.84575  1.0000
  S   S140      1.0  0.01981  0.50618  0.75401  1.0000
  S   S141      1.0  0.30665  0.89792  0.74159  1.0000
  H   H1123     1.0  0.07063  0.69791  0.87113  1.0000
  H   H1124     1.0  0.29519  0.96389  0.82498  1.0000
  H   H1125     1.0  0.46991  0.90761  0.82162  1.0000
  H   H1126     1.0  0.47127  0.95136  0.74754  1.0000
  H   H1127     1.0  0.04049  0.68220  0.89748  1.0000
  H   H1128     1.0  0.29409  0.97977  0.85654  1.0000
  C   C632      1.0  0.04628  0.63521  0.81663  1.0000
  H   H1129     1.0  0.06975  0.65264  0.84179  1.0000
  C   C633      1.0  0.05909  0.67503  0.87332  1.0000
  H   H1130     1.0  0.42139  0.51020  0.81530  1.0000
  H   H1131     1.0  0.43007  0.64481  0.80401  1.0000
  C   C634      1.0  0.24168  0.98181  0.82011  1.0000
  H   H1132     1.0  0.45265  0.62058  0.82123  1.0000
  H   H1133     1.0  0.42875  0.97603  0.80915  1.0000
  H   H1134     1.0  0.47747  0.77241  0.75528  1.0000
  H   H1135     1.0  0.22719  0.98284  0.80995  1.0000
  C   C635      1.0  0.44892  0.64372  0.79883  1.0000
  H   H1136     1.0  0.47474  0.97766  0.81976  1.0000
  H   H1137     1.0  0.48115  0.86651  0.81722  1.0000
  H   H1138     1.0  0.04319  0.85316  0.98716  1.0000
  H   H1139     1.0  0.19499  0.90693  0.75145  1.0000
  H   H1140     1.0  0.46773  0.66335  0.80306  1.0000
  H   H1141     1.0  0.17440  0.85796  0.74014  1.0000
  C   C636      1.0  0.25951  0.98976  0.85146  1.0000
  H   H1142     1.0  0.04241  0.64906  0.89669  1.0000
  H   H1143     1.0  0.47248  0.53480  0.81004  1.0000
  H   H1144     1.0  0.02489  0.61893  0.81250  1.0000
  H   H1145     1.0  0.47360  0.59769  0.83353  1.0000
  C   C637      1.0  0.47702  0.61566  0.79899  1.0000
  H   H1146     1.0  0.03750  0.62291  0.84420  1.0000
  H   H1147     1.0  0.35359  0.97475  0.93047  1.0000
  H   H1148     1.0  0.48063  0.87033  0.79301  1.0000
  H   H1149     1.0  0.00449  0.64850  0.81834  1.0000
  H   H1150     1.0  0.01787  0.64097  0.86664  1.0000
  H   H1151     1.0  0.32203  0.98896  0.94683  1.0000
  H   H1152     1.0  0.32059  0.98531  0.91102  1.0000
  H   H1153     1.0  0.99435  0.68308  0.83848  1.0000
  C   C638      1.0  0.00401  0.64751  0.83334  1.0000
  H   H1154     1.0  0.48199  0.55676  0.83636  1.0000
  H   H1155     1.0  0.99359  0.62477  0.83644  1.0000
  C   C639      1.0  0.98403  0.65993  0.83921  1.0000
  Fe  Fe68      1.0  0.76838  0.04084  0.08779  1.0000
  S   S142      1.0  0.74252  0.06332  0.08141  1.0000
  S   S143      1.0  0.81598  0.06285  0.08931  1.0000
  Fe  Fe69      1.0  0.71352  0.03649  0.10255  1.0000
  S   S144      1.0  0.70027  0.06258  0.12205  1.0000
  Fe  Fe70      1.0  0.71947  0.02847  0.06086  1.0000
  S   S145      1.0  0.70818  0.03875  0.03256  1.0000
  S   S146      1.0  0.74099  0.01540  0.10988  1.0000
  S   S147      1.0  0.74716  0.00754  0.06607  1.0000
  Fe  Fe71      1.0  0.64692  0.08431  0.22120  1.0000
  S   S148      1.0  0.65781  0.12871  0.21460  1.0000
  S   S149      1.0  0.64467  0.05200  0.19939  1.0000
  H   H1156     1.0  0.88934  0.24611  0.18522  1.0000
  S   S150      1.0  0.59054  0.13986  0.22310  1.0000
  H   H1157     1.0  0.86991  0.25769  0.15727  1.0000
  C   C640      1.0  0.73989  0.24561  0.22743  1.0000
  H   H1158     1.0  0.50437  0.32666  0.15880  1.0000
  Fe  Fe72      1.0  0.96253  0.26661  0.04586  1.0000
  S   S151      1.0  0.95485  0.22340  0.05437  1.0000
  Fe  Fe73      1.0  0.87199  0.38365  0.21855  1.0000
  Fe  Fe74      1.0  0.95378  0.28207  0.08585  1.0000
  S   S152      1.0  0.94747  0.24006  0.09569  1.0000
  S   S153      1.0  0.94413  0.31214  0.10432  1.0000
  Fe  Fe75      1.0  0.91988  0.22257  0.07067  1.0000
  S   S154      1.0  0.87361  0.19150  0.07039  1.0000
  S   S155      1.0  0.92531  0.26435  0.06084  1.0000
  Fe  Fe76      1.0  0.88748  0.33631  0.20590  1.0000
  S   S156      1.0  0.85261  0.34745  0.19819  1.0000
  S   S157      1.0  0.90841  0.31710  0.18648  1.0000
  Fe  Fe77      1.0  0.83001  0.32236  0.22165  1.0000
  H   H1159     1.0  0.57593  0.00042  0.23813  1.0000
  H   H1160     1.0  0.82237  0.17742  0.15482  1.0000
  H   H1161     1.0  0.83862  0.22507  0.15800  1.0000
  H   H1162     1.0  0.83637  0.18095  0.11456  1.0000
  N   N39       1.0  0.55108  0.04162  0.18847  1.0000
  C   C641      1.0  0.48679  0.48432  0.22445  1.0000
  C   C642      1.0  0.88873  0.17780  0.12925  1.0000
  C   C643      1.0  0.93423  0.31295  0.12727  1.0000
  C   C644      1.0  0.87128  0.24061  0.12261  1.0000
  C   C645      1.0  0.91243  0.33094  0.14972  1.0000
  C   C646      1.0  0.91801  0.31610  0.16348  1.0000
  C   C647      1.0  0.93165  0.29957  0.15889  1.0000
  C   C648      1.0  0.93966  0.29796  0.14102  1.0000
  H   H1163     1.0  0.77002  0.13759  0.00481  1.0000
  C   C649      1.0  0.90136  0.47069  0.23070  1.0000
  H   H1164     1.0  0.85716  0.21385  0.18663  1.0000
  H   H1165     1.0  0.58765  0.03274  0.21298  1.0000
  C   C650      1.0  0.51523  0.06024  0.19610  1.0000
  C   C651      1.0  0.91328  0.17409  0.12166  1.0000
  C   C652      1.0  0.52040  0.43630  0.19019  1.0000
  H   H1166     1.0  0.93630  0.28806  0.16931  1.0000
  H   H1167     1.0  0.78253  0.15333  0.13215  1.0000
  C   C653      1.0  0.54181  0.10044  0.23828  1.0000
  C   C654      1.0  0.53871  0.13960  0.22409  1.0000
  H   H1168     1.0  0.87383  0.42996  0.15805  1.0000
  H   H1169     1.0  0.54847  0.15905  0.21699  1.0000
  C   C655      1.0  0.83299  0.09939  0.08609  1.0000
  C   C656      1.0  0.81824  0.11546  0.08684  1.0000
  C   C657      1.0  0.83138  0.14393  0.08258  1.0000
  C   C658      1.0  0.85953  0.15676  0.07781  1.0000
  C   C659      1.0  0.87475  0.14110  0.07778  1.0000
  C   C660      1.0  0.86148  0.11245  0.08194  1.0000
  H   H1170     1.0  0.79660  0.10589  0.09052  1.0000
  H   H1171     1.0  0.81949  0.15594  0.08266  1.0000
  H   H1172     1.0  0.89646  0.15080  0.07405  1.0000
  H   H1173     1.0  0.87312  0.10020  0.08148  1.0000
  C   C661      1.0  0.71597  0.03225  0.01023  1.0000
  C   C662      1.0  0.73364  0.01976  0.00678  1.0000
  H   H1174     1.0  0.84511  0.36552  0.15424  1.0000
  H   H1175     1.0  0.93466  0.41214  0.14458  1.0000
  H   H1176     1.0  0.56739  0.01609  0.12981  1.0000
  C   C663      1.0  0.68557  0.05921  0.14389  1.0000
  C   C664      1.0  0.68428  0.08271  0.15203  1.0000
  C   C665      1.0  0.67249  0.08113  0.16908  1.0000
  C   C666      1.0  0.66141  0.05585  0.17826  1.0000
  C   C667      1.0  0.66248  0.03232  0.17006  1.0000
  C   C668      1.0  0.67465  0.03401  0.15313  1.0000
  H   H1177     1.0  0.69231  0.10221  0.14497  1.0000
  H   H1178     1.0  0.67149  0.09932  0.17497  1.0000
  H   H1179     1.0  0.65389  0.01258  0.17688  1.0000
  H   H1180     1.0  0.67527  0.01568  0.14714  1.0000
  H   H1181     1.0  0.72657  0.25584  0.22495  1.0000
  H   H1182     1.0  0.85674  0.24748  0.18854  1.0000
  H   H1183     1.0  0.84231  0.14683  0.00864  1.0000
  C   C669      1.0  0.54493  0.02759  0.20653  1.0000
  H   H1184     1.0  0.90181  0.34356  0.15281  1.0000
  H   H1185     1.0  0.87963  0.19598  0.01330  1.0000
  N   N40       1.0  0.73829  0.18435  0.17965  1.0000
  C   C670      1.0  0.75788  0.21535  0.18122  1.0000
  C   C671      1.0  0.71010  0.17872  0.18706  1.0000
  C   C672      1.0  0.75092  0.16921  0.19111  1.0000
  C   C673      1.0  0.73498  0.17292  0.16058  1.0000
  C   C674      1.0  0.72473  0.18713  0.14603  1.0000
  C   C675      1.0  0.78818  0.22480  0.17500  1.0000
  C   C676      1.0  0.73239  0.13719  0.19312  1.0000
  C   C677      1.0  0.69983  0.20170  0.18457  1.0000
  C   C678      1.0  0.66981  0.19179  0.19057  1.0000
  C   C679      1.0  0.72584  0.17578  0.12720  1.0000
  C   C680      1.0  0.80470  0.25683  0.17620  1.0000
  H   H1186     1.0  0.57352  0.08459  0.16312  1.0000
  H   H1187     1.0  0.75946  0.22271  0.19549  1.0000
  H   H1188     1.0  0.74940  0.22781  0.17355  1.0000
  H   H1189     1.0  0.69339  0.15847  0.18141  1.0000
  H   H1190     1.0  0.71050  0.17610  0.20193  1.0000
  H   H1191     1.0  0.75640  0.17892  0.20492  1.0000
  H   H1192     1.0  0.77091  0.17133  0.18559  1.0000
  H   H1193     1.0  0.75498  0.17327  0.15628  1.0000
  H   H1194     1.0  0.71949  0.15040  0.15981  1.0000
  H   H1195     1.0  0.73778  0.21016  0.14615  1.0000
  H   H1196     1.0  0.70253  0.18231  0.14808  1.0000
  H   H1197     1.0  0.79962  0.21621  0.18374  1.0000
  H   H1198     1.0  0.78808  0.21798  0.16082  1.0000
  H   H1199     1.0  0.72856  0.12583  0.17994  1.0000
  H   H1200     1.0  0.71187  0.13277  0.19879  1.0000
  H   H1201     1.0  0.71325  0.22068  0.19296  1.0000
  H   H1202     1.0  0.70056  0.20814  0.17043  1.0000
  H   H1203     1.0  0.65520  0.17294  0.18254  1.0000
  H   H1204     1.0  0.66843  0.18692  0.20512  1.0000
  H   H1205     1.0  0.66318  0.20863  0.18855  1.0000
  H   H1206     1.0  0.74777  0.18064  0.12406  1.0000
  H   H1207     1.0  0.71268  0.15267  0.12618  1.0000
  H   H1208     1.0  0.71768  0.18567  0.11698  1.0000
  H   H1209     1.0  0.80644  0.26462  0.19037  1.0000
  H   H1210     1.0  0.82622  0.26357  0.17141  1.0000
  H   H1211     1.0  0.79430  0.26681  0.16771  1.0000
  C   C681      1.0  0.56265  0.00864  0.14378  1.0000
  C   C682      1.0  0.92372  0.45667  0.17404  1.0000
  H   H1212     1.0  0.93361  0.19089  0.12706  1.0000
  H   H1213     1.0  0.86280  0.26385  0.07991  1.0000
  H   H1214     1.0  0.80501  0.03305  0.04147  1.0000
  C   C683      1.0  0.89673  0.40614  0.16756  1.0000
  C   C684      1.0  0.52531  0.04473  0.18236  1.0000
  H   H1215     1.0  0.54524  0.03695  0.14977  1.0000
  H   H1216     1.0  0.91632  0.34130  0.12149  1.0000
  H   H1217     1.0  0.88015  0.40978  0.14070  1.0000
  C   C685      1.0  0.86149  0.23543  0.16123  1.0000
  H   H1218     1.0  0.73282  0.10177  0.20697  1.0000
  H   H1219     1.0  0.57845  0.07917  0.20426  1.0000
  H   H1220     1.0  0.83862  0.38653  0.17115  1.0000
  H   H1221     1.0  0.78909  0.12907  0.14594  1.0000
  H   H1222     1.0  0.84359  0.26349  0.09959  1.0000
  C   C686      1.0  0.56162  0.03174  0.15572  1.0000
  C   C687      1.0  0.51011  0.12872  0.22815  1.0000
  C   C688      1.0  0.76898  0.26065  0.22566  1.0000
  H   H1223     1.0  0.86155  0.20111  0.03199  1.0000
  H   H1224     1.0  0.69078  0.05027  0.99791  1.0000
  H   H1225     1.0  0.82360  0.20121  0.12681  1.0000
  H   H1226     1.0  0.91182  0.45901  0.23629  1.0000
  H   H1227     1.0  0.91276  0.17476  0.10671  1.0000
  C   C689      1.0  0.78613  0.24740  0.22880  1.0000
  C   C690      1.0  0.94818  0.47908  0.18588  1.0000
  C   C691      1.0  0.87486  0.41000  0.15503  1.0000
  C   C692      1.0  0.96753  0.39370  0.19187  1.0000
  S   S158      1.0  0.78314  0.29550  0.21877  1.0000
  C   C693      1.0  0.84547  0.38619  0.15718  1.0000
  H   H1228     1.0  0.78241  0.05982  0.02716  1.0000
  H   H1229     1.0  0.91194  0.15347  0.12555  1.0000
  H   H1230     1.0  0.54436  0.04233  0.21713  1.0000
  H   H1231     1.0  0.83339  0.06498  0.05051  1.0000
  H   H1232     1.0  0.83033  0.38884  0.14771  1.0000
  H   H1233     1.0  0.76688  0.12712  0.20025  1.0000
  H   H1234     1.0  0.52839  0.05562  0.16941  1.0000
  C   C694      1.0  0.81753  0.05577  0.03921  1.0000
  H   H1235     1.0  0.82838  0.05825  0.02635  1.0000
  N   N41       1.0  0.92594  0.43018  0.16853  1.0000
  C   C695      1.0  0.49448  0.44619  0.23628  1.0000
  H   H1236     1.0  0.62447  0.10862  0.17433  1.0000
  C   C696      1.0  0.82602  0.16850  0.14216  1.0000
  C   C697      1.0  0.57929  0.09261  0.17716  1.0000
  C   C698      1.0  0.70450  0.04061  0.99546  1.0000
  H   H1237     1.0  0.56503  0.10179  0.18090  1.0000
  H   H1238     1.0  0.80847  0.25870  0.22716  1.0000
  C   C699      1.0  0.86648  0.23559  0.18164  1.0000
  H   H1239     1.0  0.56325  0.99778  0.20562  1.0000
  C   C700      1.0  0.86356  0.26441  0.09489  1.0000
  C   C701      1.0  0.86641  0.47356  0.21045  1.0000
  C   C702      1.0  0.87940  0.45780  0.21777  1.0000
  H   H1240     1.0  0.57943  0.00318  0.14885  1.0000
  H   H1241     1.0  0.96449  0.44033  0.18433  1.0000
  S   S159      1.0  0.68792  0.00325  0.08123  1.0000
  H   H1242     1.0  0.89226  0.25804  0.12615  1.0000
  H   H1243     1.0  0.91052  0.22265  0.12509  1.0000
  C   C703      1.0  0.51559  0.34992  0.16010  1.0000
  C   C704      1.0  0.78135  0.12707  0.99830  1.0000
  H   H1244     1.0  0.51760  0.40150  0.16105  1.0000
  C   C705      1.0  0.72794  0.21740  0.23241  1.0000
  H   H1245     1.0  0.93347  0.42171  0.19601  1.0000
  C   C706      1.0  0.88884  0.20543  0.12292  1.0000
  C   C707      1.0  0.83836  0.19159  0.12792  1.0000
  C   C708      1.0  0.92065  0.32953  0.13188  1.0000
  C   C709      1.0  0.57697  0.06953  0.19062  1.0000
  H   H1246     1.0  0.53308  0.07912  0.20212  1.0000
  H   H1247     1.0  0.86915  0.15963  0.12416  1.0000
  N   N42       1.0  0.86821  0.21391  0.13133  1.0000
  H   H1248     1.0  0.84012  0.15890  0.14557  1.0000
  H   H1249     1.0  0.53755  0.00107  0.17523  1.0000
  H   H1250     1.0  0.50739  0.02367  0.17946  1.0000
  C   C710      1.0  0.79784  0.14496  0.13538  1.0000
  H   H1251     1.0  0.51684  0.35867  0.14646  1.0000
  H   H1252     1.0  0.80188  0.14360  0.99425  1.0000
  H   H1253     1.0  0.88709  0.24080  0.09566  1.0000
  H   H1254     1.0  0.87346  0.20165  0.15850  1.0000
  H   H1255     1.0  0.88831  0.40183  0.18130  1.0000
  H   H1256     1.0  0.84962  0.21997  0.09674  1.0000
  H   H1257     1.0  0.80056  0.13431  0.12315  1.0000
  C   C711      1.0  0.87650  0.22068  0.15109  1.0000
  H   H1258     1.0  0.85577  0.24726  0.12788  1.0000
  H   H1259     1.0  0.88498  0.20238  0.10812  1.0000
  C   C712      1.0  0.86778  0.23954  0.10174  1.0000
  H   H1260     1.0  0.54037  0.43832  0.19666  1.0000
  H   H1261     1.0  0.49810  0.13977  0.22416  1.0000
  C   C713      1.0  0.55479  0.12563  0.22915  1.0000
  H   H1262     1.0  0.92493  0.37730  0.18183  1.0000
  C   C714      1.0  0.95150  0.29352  0.99132  1.0000
  N   N43       1.0  0.79752  0.11677  0.02987  1.0000
  C   C715      1.0  0.81649  0.14795  0.03117  1.0000
  C   C716      1.0  0.77415  0.10993  0.04279  1.0000
  C   C717      1.0  0.81461  0.10196  0.03612  1.0000
  C   C718      1.0  0.78575  0.10621  0.01095  1.0000
  S   S160      1.0  0.90885  0.37438  0.22493  1.0000
  C   C719      1.0  0.84492  0.15782  0.02187  1.0000
  C   C720      1.0  0.79802  0.06984  0.03842  1.0000
  C   C721      1.0  0.75389  0.12310  0.03903  1.0000
  C   C722      1.0  0.73293  0.11655  0.05397  1.0000
  C   C723      1.0  0.93780  0.43293  0.15007  1.0000
  C   C724      1.0  0.85864  0.18942  0.01897  1.0000
  H   H1263     1.0  0.89946  0.23485  0.15277  1.0000
  H   H1264     1.0  0.82170  0.15506  0.04558  1.0000
  H   H1265     1.0  0.80577  0.16016  0.02586  1.0000
  H   H1266     1.0  0.76044  0.08696  0.04281  1.0000
  H   H1267     1.0  0.78305  0.11597  0.05683  1.0000
  H   H1268     1.0  0.82584  0.11120  0.04923  1.0000
  H   H1269     1.0  0.83134  0.10522  0.02651  1.0000
  H   H1270     1.0  0.51168  0.44557  0.20027  1.0000
  H   H1271     1.0  0.76531  0.08702  0.01149  1.0000
  C   C725      1.0  0.56005  0.00719  0.23320  1.0000
  H   H1272     1.0  0.79883  0.99511  0.06060  1.0000
  H   H1273     1.0  0.85968  0.15323  0.03057  1.0000
  H   H1274     1.0  0.94836  0.47096  0.19959  1.0000
  H   H1275     1.0  0.89058  0.17724  0.14412  1.0000
  H   H1276     1.0  0.78682  0.06560  0.05125  1.0000
  H   H1277     1.0  0.76526  0.14623  0.03824  1.0000
  H   H1278     1.0  0.74146  0.11405  0.02628  1.0000
  H   H1279     1.0  0.71884  0.12647  0.05110  1.0000
  H   H1280     1.0  0.71975  0.09353  0.05468  1.0000
  H   H1281     1.0  0.74401  0.12478  0.06725  1.0000
  C   C726      1.0  0.52372  0.46346  0.23637  1.0000
  H   H1282     1.0  0.84554  0.19501  0.00948  1.0000
  C   C727      1.0  0.94522  0.39554  0.17925  1.0000
  H   H1283     1.0  0.79952  0.09911  0.00364  1.0000
  C   C728      1.0  0.94285  0.42324  0.18259  1.0000
  C   C729      1.0  0.49439  0.06938  0.18736  1.0000
  H   H1284     1.0  0.88128  0.28453  0.09968  1.0000
  H   H1285     1.0  0.96886  0.48477  0.18010  1.0000
  H   H1286     1.0  0.89703  0.38642  0.16275  1.0000
  H   H1287     1.0  0.48262  0.40154  0.21249  1.0000
  H   H1288     1.0  0.90487  0.45150  0.18212  1.0000
  C   C730      1.0  0.56567  0.01648  0.21370  1.0000
  H   H1289     1.0  0.53671  0.39913  0.18021  1.0000
  H   H1290     1.0  0.61419  0.12761  0.19067  1.0000
  C   C731      1.0  0.52875  0.45547  0.17367  1.0000
  H   H1291     1.0  0.84954  0.46391  0.20036  1.0000
  H   H1292     1.0  0.51010  0.45523  0.16646  1.0000
  C   C732      1.0  0.96601  0.27742  0.99413  1.0000
  H   H1293     1.0  0.54025  0.44867  0.16408  1.0000
  C   C733      1.0  0.51494  0.39297  0.17485  1.0000
  C   C734      1.0  0.74512  0.20418  0.23549  1.0000
  H   H1294     1.0  0.94485  0.30143  0.00279  1.0000
  H   H1295     1.0  0.50454  0.04618  0.20726  1.0000
  C   C735      1.0  0.49975  0.36046  0.17253  1.0000
  C   C736      1.0  0.60892  0.11657  0.17733  1.0000
  C   C737      1.0  0.54794  0.48589  0.17952  1.0000
  H   H1296     1.0  0.95030  0.28533  0.13792  1.0000
  C   C738      1.0  0.74671  0.12455  0.20570  1.0000
  H   H1297     1.0  0.49827  0.35019  0.18564  1.0000
  H   H1298     1.0  0.49151  0.34985  0.22696  1.0000
  C   C739      1.0  0.55582  0.02230  0.17541  1.0000
  H   H1299     1.0  0.61007  0.13190  0.16700  1.0000
  S   S161      1.0  0.86875  0.42301  0.20913  1.0000
  H   H1300     1.0  0.59625  0.06633  0.19000  1.0000
  H   H1301     1.0  0.92030  0.46717  0.16197  1.0000
  N   N44       1.0  0.50050  0.40585  0.18629  1.0000
  S   S162      1.0  0.86326  0.30873  0.22848  1.0000
  C   C740      1.0  0.51668  0.39061  0.21570  1.0000
  H   H1302     1.0  0.92596  0.43983  0.14033  1.0000
  H   H1303     1.0  0.95096  0.39354  0.16527  1.0000
  H   H1304     1.0  0.75068  0.13464  0.21935  1.0000
  H   H1305     1.0  0.57456  0.01950  0.17986  1.0000
  H   H1306     1.0  0.58253  0.05011  0.15517  1.0000
  C   C741      1.0  0.49233  0.39128  0.20397  1.0000
  C   C742      1.0  0.50550  0.37167  0.23175  1.0000
  H   H1307     1.0  0.52367  0.00934  0.20601  1.0000
  H   H1308     1.0  0.74262  0.01319  0.01793  1.0000
  H   H1309     1.0  0.50457  0.08486  0.17679  1.0000
  S   S163      1.0  0.97559  0.27028  0.01611  1.0000
  H   H1310     1.0  0.53714  0.35596  0.16575  1.0000
  H   H1311     1.0  0.83370  0.00124  0.99360  1.0000
  H   H1312     1.0  0.52920  0.38259  0.20799  1.0000
  H   H1313     1.0  0.96317  0.39592  0.20618  1.0000
  H   H1314     1.0  0.96741  0.37292  0.18988  1.0000
  C   C743      1.0  0.97881  0.45331  0.12950  1.0000
  S   S164      1.0  0.61007  0.07948  0.23778  1.0000
  H   H1315     1.0  0.96626  0.45897  0.11957  1.0000
  C   C744      1.0  0.77415  0.21915  0.23349  1.0000
  C   C745      1.0  0.96908  0.45385  0.14861  1.0000
  H   H1316     1.0  0.97225  0.47552  0.15162  1.0000
  H   H1317     1.0  0.56724  0.48755  0.18675  1.0000
  H   H1318     1.0  0.70551  0.20595  0.23389  1.0000
  H   H1319     1.0  0.53094  0.41197  0.22110  1.0000
  H   H1320     1.0  0.48705  0.07949  0.19777  1.0000
  H   H1321     1.0  0.84025  0.03741  0.99244  1.0000
  Fe  Fe78      1.0  0.62254  0.12459  0.23245  1.0000
  H   H1322     1.0  0.78739  0.20872  0.23535  1.0000
  C   C746      1.0  0.49703  0.10338  0.23708  1.0000
  C   C747      1.0  0.73979  0.01590  0.98885  1.0000
  H   H1323     1.0  0.97678  0.43214  0.12588  1.0000
  Fe  Fe79      1.0  0.64010  0.09579  0.26204  1.0000
  S   S165      1.0  0.65098  0.14101  0.25738  1.0000
  S   S166      1.0  0.62435  0.07686  0.28942  1.0000
  C   C748      1.0  0.58896  0.04257  0.35739  1.0000
  Fe  Fe80      1.0  0.64802  0.09890  0.39601  1.0000
  S   S167      1.0  0.63142  0.13076  0.39700  1.0000
  S   S168      1.0  0.66727  0.09011  0.37107  1.0000
  Fe  Fe81      1.0  0.63719  0.08533  0.43679  1.0000
  S   S169      1.0  0.62060  0.11724  0.44024  1.0000
  S   S170      1.0  0.64344  0.06053  0.46034  1.0000
  Fe  Fe82      1.0  0.59747  0.09968  0.41365  1.0000
  S   S171      1.0  0.55111  0.08370  0.40660  1.0000
  Fe  Fe83      1.0  0.65652  0.14538  0.42328  1.0000
  S   S172      1.0  0.68219  0.19242  0.42874  1.0000
  S   S173      1.0  0.61235  0.06635  0.41090  1.0000
  S   S174      1.0  0.67488  0.11497  0.42158  1.0000
  H   H1324     1.0  0.84685  0.44533  0.30250  1.0000
  H   H1325     1.0  0.52800  0.04683  0.36401  1.0000
  S   S175      1.0  0.89874  0.34354  0.27518  1.0000
  C   C749      1.0  0.57776  0.09521  0.35808  1.0000
  H   H1326     1.0  0.50446  0.10657  0.36655  1.0000
  Fe  Fe84      1.0  0.84999  0.36990  0.41962  1.0000
  S   S176      1.0  0.89106  0.38651  0.40617  1.0000
  S   S177      1.0  0.83196  0.39890  0.42947  1.0000
  Fe  Fe85      1.0  0.84145  0.30913  0.41630  1.0000
  S   S178      1.0  0.88320  0.32279  0.40312  1.0000
  S   S179      1.0  0.81436  0.26190  0.41946  1.0000
  Fe  Fe86      1.0  0.90027  0.35792  0.42472  1.0000
  S   S180      1.0  0.94273  0.37950  0.44107  1.0000
  Fe  Fe87      1.0  0.87014  0.35037  0.38607  1.0000
  S   S181      1.0  0.86427  0.35696  0.35570  1.0000
  S   S182      1.0  0.85943  0.34230  0.43860  1.0000
  S   S183      1.0  0.82812  0.33531  0.39877  1.0000
  H   H1327     1.0  0.60077  0.12838  0.33943  1.0000
  C   C750      1.0  0.95458  0.38339  0.46440  1.0000
  H   H1328     1.0  0.92019  0.42472  0.43955  1.0000
  C   C751      1.0  0.72949  0.13379  0.46204  1.0000
  C   C752      1.0  0.54347  0.07432  0.46435  1.0000
  C   C753      1.0  0.88884  0.34760  0.29742  1.0000
  C   C754      1.0  0.86747  0.35539  0.30067  1.0000
  C   C755      1.0  0.86038  0.35815  0.31854  1.0000
  C   C756      1.0  0.87451  0.35325  0.33346  1.0000
  C   C757      1.0  0.89559  0.34508  0.33019  1.0000
  C   C758      1.0  0.90269  0.34232  0.31232  1.0000
  H   H1329     1.0  0.85645  0.35934  0.28941  1.0000
  H   H1330     1.0  0.84364  0.36391  0.32080  1.0000
  H   H1331     1.0  0.90658  0.34105  0.34143  1.0000
  H   H1332     1.0  0.91919  0.33620  0.31002  1.0000
  C   C759      1.0  0.71897  0.21151  0.42618  1.0000
  C   C760      1.0  0.73120  0.24094  0.42533  1.0000
  C   C761      1.0  0.76038  0.25677  0.42348  1.0000
  C   C762      1.0  0.77766  0.24329  0.42246  1.0000
  C   C763      1.0  0.76542  0.21387  0.42356  1.0000
  C   C764      1.0  0.73629  0.19809  0.42543  1.0000
  H   H1333     1.0  0.71805  0.25159  0.42613  1.0000
  H   H1334     1.0  0.76950  0.27939  0.42281  1.0000
  H   H1335     1.0  0.77862  0.20326  0.42293  1.0000
  H   H1336     1.0  0.72722  0.17557  0.42631  1.0000
  C   C765      1.0  0.53194  0.10074  0.41494  1.0000
  C   C766      1.0  0.50301  0.08889  0.41091  1.0000
  C   C767      1.0  0.49982  0.12752  0.42670  1.0000
  H   H1337     1.0  0.83850  0.36762  0.46638  1.0000
  C   C768      1.0  0.52873  0.13916  0.43100  1.0000
  C   C769      1.0  0.54480  0.12584  0.42511  1.0000
  H   H1338     1.0  0.49539  0.01588  0.38753  1.0000
  H   H1339     1.0  0.57186  0.17137  0.37711  1.0000
  H   H1340     1.0  0.56714  0.13513  0.42830  1.0000
  C   C770      1.0  0.63143  0.03865  0.47956  1.0000
  C   C771      1.0  0.52813  0.46113  0.43324  1.0000
  H   H1341     1.0  0.87979  0.26887  0.28890  1.0000
  C   C772      1.0  0.52115  0.00532  0.36949  1.0000
  H   H1342     1.0  0.54187  0.99937  0.33971  1.0000
  H   H1343     1.0  0.56310  0.00609  0.29216  1.0000
  C   C773      1.0  0.54186  0.03635  0.36619  1.0000
  C   C774      1.0  0.81721  0.39738  0.38211  1.0000
  H   H1344     1.0  0.53546  0.45401  0.44494  1.0000
  H   H1345     1.0  0.50325  0.45287  0.33089  1.0000
  C   C775      1.0  0.64311  0.08743  0.31057  1.0000
  C   C776      1.0  0.63779  0.10495  0.32261  1.0000
  C   C777      1.0  0.64578  0.10685  0.34114  1.0000
  C   C778      1.0  0.65928  0.09128  0.34774  1.0000
  C   C779      1.0  0.66612  0.07522  0.33551  1.0000
  C   C780      1.0  0.65773  0.07296  0.31715  1.0000
  H   H1346     1.0  0.62619  0.11592  0.31768  1.0000
  H   H1347     1.0  0.64104  0.11985  0.35036  1.0000
  H   H1348     1.0  0.67672  0.06323  0.34039  1.0000
  H   H1349     1.0  0.66137  0.05881  0.30821  1.0000
  H   H1350     1.0  0.54904  0.07010  0.33646  1.0000
  H   H1351     1.0  0.95784  0.45227  0.41960  1.0000
  H   H1352     1.0  0.50539  0.45022  0.35517  1.0000
  C   C781      1.0  0.56558  0.02538  0.31844  1.0000
  H   H1353     1.0  0.50316  0.06964  0.24891  1.0000
  C   C782      1.0  0.87659  0.44568  0.41754  1.0000
  C   C783      1.0  0.84911  0.43434  0.42323  1.0000
  C   C784      1.0  0.83526  0.45145  0.42382  1.0000
  H   H1354     1.0  0.94886  0.43455  0.46803  1.0000
  H   H1355     1.0  0.88770  0.43313  0.41746  1.0000
  H   H1356     1.0  0.81400  0.44293  0.42836  1.0000
  H   H1357     1.0  0.71627  0.48915  0.47668  1.0000
  H   H1358     1.0  0.53879  0.15870  0.43876  1.0000
  H   H1359     1.0  0.61482  0.99641  0.37298  1.0000
  C   C785      1.0  0.84118  0.45241  0.36163  1.0000
  H   H1360     1.0  0.87758  0.48773  0.35016  1.0000
  H   H1361     1.0  0.52327  0.37148  0.23988  1.0000
  C   C786      1.0  0.93938  0.44886  0.46466  1.0000
  C   C787      1.0  0.73132  0.10820  0.45386  1.0000
  H   H1362     1.0  0.81808  0.44532  0.36039  1.0000
  C   C788      1.0  0.90152  0.45766  0.36535  1.0000
  H   H1363     1.0  0.49475  0.11704  0.33133  1.0000
  C   C789      1.0  0.92622  0.45477  0.37448  1.0000
  H   H1364     1.0  0.92262  0.45027  0.38900  1.0000
  H   H1365     1.0  0.49642  0.07330  0.44820  1.0000
  C   C790      1.0  0.51869  0.07561  0.47349  1.0000
  C   C791      1.0  0.54583  0.48679  0.42567  1.0000
  H   H1366     1.0  0.60449  0.04991  0.34666  1.0000
  H   H1367     1.0  0.68595  0.19485  0.48661  1.0000
  H   H1368     1.0  0.63563  0.47976  0.42060  1.0000
  H   H1369     1.0  0.49499  0.40727  0.34601  1.0000
  H   H1370     1.0  0.49563  0.17837  0.37497  1.0000
  S   S184      1.0  0.84663  0.35887  0.24145  1.0000
  H   H1371     1.0  0.49613  0.12701  0.38218  1.0000
  H   H1372     1.0  0.49828  0.36964  0.36254  1.0000
  C   C792      1.0  0.82722  0.41721  0.32435  1.0000
  C   C793      1.0  0.50900  0.47950  0.40314  1.0000
  H   H1373     1.0  0.91129  0.48196  0.40759  1.0000
  C   C794      1.0  0.55095  0.15433  0.38008  1.0000
  H   H1374     1.0  0.74787  0.14497  0.47145  1.0000
  H   H1375     1.0  0.50452  0.99737  0.35856  1.0000
  H   H1376     1.0  0.55306  0.13472  0.38214  1.0000
  H   H1377     1.0  0.88436  0.40727  0.45826  1.0000
  H   H1378     1.0  0.77288  0.28860  0.26027  1.0000
  H   H1379     1.0  0.73100  0.14802  0.45087  1.0000
  H   H1380     1.0  0.58458  0.07715  0.33383  1.0000
  H   H1381     1.0  0.81370  0.39430  0.32540  1.0000
  H   H1382     1.0  0.58587  0.02504  0.32180  1.0000
  N   N45       1.0  0.84823  0.42854  0.35706  1.0000
  H   H1383     1.0  0.86990  0.44648  0.33258  1.0000
  H   H1384     1.0  0.48785  0.38953  0.37782  1.0000
  N   N46       1.0  0.82013  0.25560  0.28875  1.0000
  C   C795      1.0  0.80931  0.22454  0.29154  1.0000
  C   C796      1.0  0.83360  0.27101  0.30628  1.0000
  C   C797      1.0  0.79584  0.26129  0.28269  1.0000
  C   C798      1.0  0.84170  0.26574  0.27441  1.0000
  C   C799      1.0  0.86655  0.25811  0.27672  1.0000
  H   H1385     1.0  0.77828  0.20700  0.26917  1.0000
  C   C800      1.0  0.80175  0.29262  0.28284  1.0000
  C   C801      1.0  0.81421  0.26296  0.32259  1.0000
  C   C802      1.0  0.82772  0.28340  0.33857  1.0000
  N   N47       1.0  0.56163  0.04211  0.35085  1.0000
  H   H1386     1.0  0.77176  0.16737  0.28871  1.0000
  C   C803      1.0  0.77685  0.29605  0.27459  1.0000
  H   H1387     1.0  0.79198  0.21717  0.30113  1.0000
  H   H1388     1.0  0.82588  0.21997  0.29806  1.0000
  H   H1389     1.0  0.85170  0.26702  0.31043  1.0000
  H   H1390     1.0  0.84300  0.29411  0.30462  1.0000
  H   H1391     1.0  0.77719  0.24970  0.29088  1.0000
  H   H1392     1.0  0.78863  0.25295  0.26866  1.0000
  H   H1393     1.0  0.83160  0.25815  0.26077  1.0000
  H   H1394     1.0  0.85129  0.28898  0.27380  1.0000
  H   H1395     1.0  0.85919  0.23520  0.27783  1.0000
  S   S185      1.0  0.73132  0.16896  0.24165  1.0000
  H   H1396     1.0  0.52978  0.00197  0.29990  1.0000
  N   N48       1.0  0.70067  0.14693  0.48454  1.0000
  H   H1397     1.0  0.82034  0.30544  0.27499  1.0000
  H   H1398     1.0  0.80546  0.30142  0.29684  1.0000
  H   H1399     1.0  0.79373  0.26281  0.31922  1.0000
  H   H1400     1.0  0.81029  0.24177  0.32713  1.0000
  H   H1401     1.0  0.84991  0.28750  0.34113  1.0000
  H   H1402     1.0  0.82683  0.30343  0.33591  1.0000
  H   H1403     1.0  0.81616  0.27467  0.35093  1.0000
  H   H1404     1.0  0.57670  0.99717  0.35443  1.0000
  H   H1405     1.0  0.59880  0.05819  0.36866  1.0000
  H   H1406     1.0  0.52781  0.02136  0.33101  1.0000
  H   H1407     1.0  0.78716  0.35324  0.37856  1.0000
  H   H1408     1.0  0.48720  0.42514  0.43178  1.0000
  C   C804      1.0  0.89378  0.41105  0.47225  1.0000
  H   H1409     1.0  0.66755  0.48463  0.47631  1.0000
  C   C805      1.0  0.84878  0.36841  0.47977  1.0000
  C   C806      1.0  0.49157  0.06204  0.46115  1.0000
  C   C807      1.0  0.82382  0.40122  0.36185  1.0000
  C   C808      1.0  0.50093  0.12566  0.36779  1.0000
  C   C809      1.0  0.88539  0.26733  0.26056  1.0000
  Fe  Fe88      1.0  0.68467  0.14019  0.24013  1.0000
  N   N49       1.0  0.72761  0.19052  0.36625  1.0000
  C   C810      1.0  0.74834  0.21813  0.37486  1.0000
  C   C811      1.0  0.72375  0.16740  0.37906  1.0000
  C   C812      1.0  0.73875  0.18628  0.34862  1.0000
  C   C813      1.0  0.69941  0.19012  0.36248  1.0000
  C   C814      1.0  0.68675  0.19889  0.37853  1.0000
  C   C815      1.0  0.75313  0.24475  0.36428  1.0000
  C   C816      1.0  0.72164  0.15726  0.33892  1.0000
  C   C817      1.0  0.74981  0.16210  0.38283  1.0000
  C   C818      1.0  0.74295  0.13752  0.39536  1.0000
  C   C819      1.0  0.65830  0.19763  0.37307  1.0000
  C   C820      1.0  0.77183  0.27141  0.37530  1.0000
  C   C821      1.0  0.73486  0.15526  0.32132  1.0000
  H   H1410     1.0  0.76936  0.21864  0.37678  1.0000
  H   H1411     1.0  0.74221  0.22056  0.38872  1.0000
  H   H1412     1.0  0.71735  0.17181  0.39235  1.0000
  H   H1413     1.0  0.70603  0.14730  0.37427  1.0000
  H   H1414     1.0  0.76095  0.18992  0.35049  1.0000
  H   H1415     1.0  0.73936  0.20224  0.33888  1.0000
  H   H1416     1.0  0.70022  0.20353  0.35091  1.0000
  H   H1417     1.0  0.68360  0.16861  0.35816  1.0000
  H   H1418     1.0  0.70052  0.22062  0.38349  1.0000
  H   H1419     1.0  0.68348  0.18458  0.38985  1.0000
  H   H1420     1.0  0.76368  0.24516  0.35156  1.0000
  H   H1421     1.0  0.73317  0.24572  0.36091  1.0000
  H   H1422     1.0  0.69994  0.15385  0.33545  1.0000
  H   H1423     1.0  0.72055  0.13983  0.34741  1.0000
  H   H1424     1.0  0.75738  0.15692  0.37024  1.0000
  H   H1425     1.0  0.76722  0.18078  0.38946  1.0000
  H   H1426     1.0  0.72589  0.11799  0.38924  1.0000
  H   H1427     1.0  0.76184  0.13402  0.39771  1.0000
  H   H1428     1.0  0.73640  0.14198  0.40858  1.0000
  H   H1429     1.0  0.64931  0.20297  0.38500  1.0000
  H   H1430     1.0  0.66068  0.21292  0.36242  1.0000
  H   H1431     1.0  0.64346  0.17621  0.36806  1.0000
  H   H1432     1.0  0.76072  0.27353  0.38720  1.0000
  H   H1433     1.0  0.79168  0.27105  0.38003  1.0000
  H   H1434     1.0  0.77717  0.29012  0.36692  1.0000
  H   H1435     1.0  0.75646  0.15765  0.32399  1.0000
  H   H1436     1.0  0.72205  0.13436  0.31469  1.0000
  H   H1437     1.0  0.73547  0.17161  0.31194  1.0000
  H   H1438     1.0  0.53914  0.05221  0.46142  1.0000
  H   H1439     1.0  0.88787  0.45137  0.45614  1.0000
  C   C822      1.0  0.49762  0.45883  0.34394  1.0000
  C   C823      1.0  0.79720  0.20544  0.27445  1.0000
  C   C824      1.0  0.78829  0.17467  0.27860  1.0000
  C   C825      1.0  0.60414  0.02826  0.48613  1.0000
  H   H1440     1.0  0.86003  0.35516  0.47934  1.0000
  C   C826      1.0  0.56792  0.07076  0.34382  1.0000
  N   N50       1.0  0.91363  0.44177  0.47542  1.0000
  C   C827      1.0  0.84866  0.47944  0.41818  1.0000
  H   H1441     1.0  0.51594  0.06452  0.48637  1.0000
  H   H1442     1.0  0.91672  0.35110  0.47452  1.0000
  H   H1443     1.0  0.72265  0.24373  0.48363  1.0000
  C   C828      1.0  0.70142  0.12527  0.47155  1.0000
  C   C829      1.0  0.70926  0.17392  0.47450  1.0000
  H   H1444     1.0  0.89444  0.29042  0.25916  1.0000
  C   C830      1.0  0.52998  0.15047  0.36450  1.0000
  H   H1445     1.0  0.90053  0.47621  0.37166  1.0000
  H   H1446     1.0  0.87338  0.25681  0.24792  1.0000
  H   H1447     1.0  0.71312  0.09639  0.44437  1.0000
  H   H1448     1.0  0.94574  0.47459  0.37335  1.0000
  H   H1449     1.0  0.62935  0.02289  0.35630  1.0000
  H   H1450     1.0  0.89507  0.48592  0.27312  1.0000
  H   H1451     1.0  0.95596  0.47029  0.46838  1.0000
  H   H1452     1.0  0.48837  0.04033  0.45796  1.0000
  H   H1453     1.0  0.77948  0.16159  0.26608  1.0000
  H   H1454     1.0  0.62754  0.03277  0.37948  1.0000
  H   H1455     1.0  0.77153  0.37732  0.37889  1.0000
  H   H1456     1.0  0.80420  0.39882  0.35467  1.0000
  H   H1457     1.0  0.90525  0.39795  0.47292  1.0000
  H   H1458     1.0  0.92562  0.46063  0.43918  1.0000
  H   H1459     1.0  0.50168  0.48681  0.39154  1.0000
  H   H1460     1.0  0.53151  0.99138  0.36979  1.0000
  H   H1461     1.0  0.97674  0.47742  0.43755  1.0000
  H   H1462     1.0  0.53849  0.14621  0.35198  1.0000
  H   H1463     1.0  0.52895  0.17059  0.36293  1.0000
  H   H1464     1.0  0.54399  0.16019  0.39274  1.0000
  H   H1465     1.0  0.58878  0.03321  0.47924  1.0000
  H   H1466     1.0  0.90300  0.26169  0.26252  1.0000
  C   C831      1.0  0.86900  0.39866  0.48517  1.0000
  C   C832      1.0  0.70804  0.19869  0.48512  1.0000
  H   H1467     1.0  0.84869  0.41215  0.30101  1.0000
  H   H1468     1.0  0.90624  0.46158  0.35095  1.0000
  H   H1469     1.0  0.75089  0.11507  0.44634  1.0000
  H   H1470     1.0  0.56477  0.12171  0.34201  1.0000
  C   C833      1.0  0.78845  0.37285  0.38484  1.0000
  H   H1471     1.0  0.73159  0.09399  0.46462  1.0000
  H   H1472     1.0  0.67203  0.03984  0.48408  1.0000
  C   C834      1.0  0.83538  0.42249  0.30472  1.0000
  H   H1473     1.0  0.49295  0.06927  0.40326  1.0000
  C   C835      1.0  0.85340  0.42646  0.33733  1.0000
  C   C836      1.0  0.61659  0.01693  0.36850  1.0000
  C   C837      1.0  0.93458  0.44660  0.44391  1.0000
  C   C838      1.0  0.58391  0.12299  0.34919  1.0000
  H   H1474     1.0  0.71114  0.22511  0.46232  1.0000
  H   H1475     1.0  0.75764  0.28411  0.28217  1.0000
  H   H1476     1.0  0.78157  0.31858  0.27501  1.0000
  H   H1477     1.0  0.81276  0.21122  0.26378  1.0000
  C   C839      1.0  0.88995  0.47344  0.41197  1.0000
  H   H1478     1.0  0.52468  0.09805  0.47660  1.0000
  C   C840      1.0  0.87367  0.43112  0.36800  1.0000
  H   H1479     1.0  0.55383  0.08940  0.24225  1.0000
  H   H1480     1.0  0.48266  0.12389  0.29887  1.0000
  H   H1481     1.0  0.50250  0.15225  0.33606  1.0000
  H   H1482     1.0  0.92920  0.43747  0.36789  1.0000
  H   H1483     1.0  0.81458  0.42838  0.32771  1.0000
  H   H1484     1.0  0.85671  0.41085  0.48505  1.0000
  H   H1485     1.0  0.73122  0.18183  0.47014  1.0000
  H   H1486     1.0  0.54776  0.08583  0.45154  1.0000
  H   H1487     1.0  0.59712  0.09778  0.36550  1.0000
  C   C841      1.0  0.58734  0.01467  0.36441  1.0000
  C   C842      1.0  0.96213  0.45508  0.43441  1.0000
  H   H1488     1.0  0.68479  0.12003  0.46072  1.0000
  H   H1489     1.0  0.49022  0.15984  0.30459  1.0000
  H   H1490     1.0  0.83303  0.39268  0.38944  1.0000
  C   C843      1.0  0.54790  0.02110  0.33543  1.0000
  H   H1491     1.0  0.59101  0.14006  0.35965  1.0000
  H   H1492     1.0  0.84691  0.45911  0.37609  1.0000
  H   H1493     1.0  0.81734  0.41648  0.38833  1.0000
  C   C844      1.0  0.50081  0.44477  0.42582  1.0000
  H   H1494     1.0  0.87013  0.43119  0.38259  1.0000
  H   H1495     1.0  0.87731  0.41239  0.36540  1.0000
  C   C845      1.0  0.89841  0.45865  0.46971  1.0000
  Fe  Fe89      1.0  0.88181  0.34728  0.24691  1.0000
  C   C846      1.0  0.49115  0.45409  0.41079  1.0000
  H   H1496     1.0  0.78515  0.36963  0.39950  1.0000
  S   S186      1.0  0.67545  0.09567  0.24617  1.0000
  H   H1497     1.0  0.86200  0.41102  0.33525  1.0000
  H   H1498     1.0  0.82726  0.38301  0.35725  1.0000
  H   H1499     1.0  0.88101  0.45496  0.47882  1.0000
  H   H1500     1.0  0.69603  0.17010  0.46186  1.0000
  C   C847      1.0  0.48545  0.13060  0.33659  1.0000
  C   C848      1.0  0.93778  0.36693  0.47799  1.0000
  H   H1501     1.0  0.56148  0.09163  0.36802  1.0000
  H   H1502     1.0  0.80655  0.17162  0.28369  1.0000
  H   H1503     1.0  0.69605  0.10507  0.47817  1.0000
  H   H1504     1.0  0.56990  0.04555  0.31204  1.0000
  H   H1505     1.0  0.55406  0.04577  0.37904  1.0000
  C   C849      1.0  0.48703  0.10228  0.41670  1.0000
  H   H1506     1.0  0.48642  0.42499  0.24100  1.0000
  H   H1507     1.0  0.81618  0.41375  0.29573  1.0000
  H   H1508     1.0  0.97230  0.44173  0.43861  1.0000
  H   H1509     1.0  0.49380  0.37945  0.24051  1.0000
  H   H1510     1.0  0.53797  0.45511  0.24083  1.0000
  H   H1511     1.0  0.52255  0.00958  0.39883  1.0000
  C   C850      1.0  0.50678  0.00274  0.38737  1.0000
  H   H1512     1.0  0.65697  0.13458  0.47764  1.0000
  H   H1513     1.0  0.57622  0.00953  0.37724  1.0000
  C   C851      1.0  0.55005  0.00219  0.30418  1.0000
  H   H1514     1.0  0.89438  0.46246  0.29056  1.0000
  C   C852      1.0  0.51306  0.08928  0.24204  1.0000
  H   H1515     1.0  0.56259  0.08418  0.47336  1.0000
  H   H1516     1.0  0.84625  0.47441  0.33602  1.0000
  C   C853      1.0  0.90444  0.48466  0.28646  1.0000
  H   H1517     1.0  0.56970  0.48424  0.29114  1.0000
  H   H1518     1.0  0.74468  0.23109  0.47259  1.0000
  C   C854      1.0  0.85448  0.47911  0.35021  1.0000
  H   H1519     1.0  0.49027  0.17975  0.35088  1.0000
  C   C855      1.0  0.72260  0.22626  0.47527  1.0000
  H   H1520     1.0  0.55389  0.48929  0.27055  1.0000
  H   H1521     1.0  0.56146  0.02466  0.24216  1.0000
  H   H1522     1.0  0.48813  0.10694  0.46597  1.0000
  H   H1523     1.0  0.61547  0.09395  0.48845  1.0000
  C   C856      1.0  0.59674  0.01138  0.50173  1.0000
  H   H1524     1.0  0.65933  0.01087  0.51102  1.0000
  H   H1525     1.0  0.90467  0.44590  0.50328  1.0000
  C   C857      1.0  0.72024  0.15242  0.50090  1.0000
  H   H1526     1.0  0.54569  0.99252  0.60901  1.0000
  H   H1527     1.0  0.56288  0.99237  0.66348  1.0000
  H   H1528     1.0  0.83214  0.35970  0.48976  1.0000
  H   H1529     1.0  0.93537  0.35703  0.50627  1.0000
  C   C858      1.0  0.65753  0.11045  0.50096  1.0000
  H   H1530     1.0  0.72937  0.13937  0.53641  1.0000
  H   H1531     1.0  0.66886  0.15373  0.49849  1.0000
  C   C859      1.0  0.94849  0.37034  0.49606  1.0000
  C   C860      1.0  0.61665  0.00490  0.51089  1.0000
  H   H1532     1.0  0.71286  0.16082  0.51233  1.0000
  H   H1533     1.0  0.73719  0.12163  0.49823  1.0000
  C   C861      1.0  0.93706  0.43131  0.50358  1.0000
  C   C862      1.0  0.97038  0.43869  0.60446  1.0000
  H   H1534     1.0  0.97256  0.45195  0.59259  1.0000
  H   H1535     1.0  0.62103  0.11633  0.50830  1.0000
  C   C863      1.0  0.74135  0.13474  0.52597  1.0000
  H   H1536     1.0  0.94771  0.42517  0.60627  1.0000
  C   C864      1.0  0.97597  0.39060  0.50106  1.0000
  H   H1537     1.0  0.92104  0.42907  0.53050  1.0000
  H   H1538     1.0  0.74496  0.11671  0.53041  1.0000
  C   C865      1.0  0.72491  0.12733  0.50786  1.0000
  C   C866      1.0  0.64369  0.01552  0.50421  1.0000
  C   C867      1.0  0.94152  0.43654  0.52398  1.0000
  H   H1539     1.0  0.95444  0.45918  0.52733  1.0000
  H   H1540     1.0  0.76207  0.15322  0.52476  1.0000
  H   H1541     1.0  0.66673  0.11486  0.51495  1.0000
  H   H1542     1.0  0.53280  0.01801  0.61316  1.0000
  H   H1543     1.0  0.70501  0.10835  0.50966  1.0000
  H   H1544     1.0  0.95797  0.43754  0.49788  1.0000
  C   C868      1.0  0.62585  0.09996  0.50211  1.0000
  H   H1545     1.0  0.61714  0.08107  0.51053  1.0000
  H   H1546     1.0  0.93816  0.47079  0.49703  1.0000
  H   H1547     1.0  0.92440  0.40845  0.50114  1.0000
  H   H1548     1.0  0.95267  0.42481  0.52955  1.0000
  C   C869      1.0  0.92272  0.44839  0.49506  1.0000
  H   H1549     1.0  0.74156  0.16924  0.49822  1.0000
  H   H1550     1.0  0.71840  0.20177  0.49870  1.0000
  H   H1551     1.0  0.87672  0.39856  0.49921  1.0000
  C   C870      1.0  0.52648  0.99566  0.60949  1.0000
  H   H1552     1.0  0.97131  0.46870  0.62427  1.0000
  H   H1553     1.0  0.66080  0.09311  0.49500  1.0000
  H   H1554     1.0  0.51588  0.99114  0.59591  1.0000
  H   H1555     1.0  0.57578  0.00349  0.50667  1.0000
  H   H1556     1.0  0.69626  0.46827  0.49477  1.0000
  C   C871      1.0  0.67073  0.13747  0.48992  1.0000
  H   H1557     1.0  0.98084  0.44254  0.63272  1.0000
  H   H1558     1.0  0.98060  0.42488  0.60187  1.0000
  C   C872      1.0  0.65095  0.03206  0.48883  1.0000
  H   H1559     1.0  0.48246  0.09587  0.48864  1.0000
  C   C873      1.0  0.70605  0.48977  0.48939  1.0000
  H   H1560     1.0  0.79752  0.01734  0.93529  1.0000
  H   H1561     1.0  0.95828  0.39840  0.82718  1.0000
  Fe  Fe90      1.0  0.75573  0.06164  0.88907  1.0000
  S   S187      1.0  0.71570  0.05132  0.90348  1.0000
  S   S188      1.0  0.78128  0.10725  0.88077  1.0000
  Fe  Fe91      1.0  0.72796  0.02424  0.92170  1.0000
  C   C874      1.0  0.66420  0.03603  0.78622  1.0000
  Fe  Fe92      1.0  0.69590  0.01399  0.88362  1.0000
  H   H1562     1.0  0.89103  0.23681  0.92639  1.0000
  S   S189      1.0  0.76879  0.03688  0.90796  1.0000
  S   S190      1.0  0.73545  0.02561  0.86879  1.0000
  Fe  Fe93      1.0  0.94029  0.23466  0.88433  1.0000
  S   S191      1.0  0.92455  0.26731  0.88641  1.0000
  S   S192      1.0  0.91381  0.18705  0.88627  1.0000
  H   H1563     1.0  0.90143  0.24421  0.95660  1.0000
  H   H1564     1.0  0.65665  0.03600  0.81446  1.0000
  H   H1565     1.0  0.70097  0.03547  0.81561  1.0000
  H   H1566     1.0  0.71775  0.11001  0.85672  1.0000
  C   C875      1.0  0.87257  0.21690  0.92225  1.0000
  N   N51       1.0  0.86676  0.19460  0.93609  1.0000
  H   H1567     1.0  0.71549  0.06131  0.79944  1.0000
  C   C876      1.0  0.68231  0.08325  0.87168  1.0000
  C   C877      1.0  0.84766  0.22366  0.91751  1.0000
  C   C878      1.0  0.69534  0.06930  0.84166  1.0000
  H   H1568     1.0  0.96290  0.21549  0.94491  1.0000
  C   C879      1.0  0.71049  0.03659  0.97753  1.0000
  C   C880      1.0  0.79065  0.08166  0.82838  1.0000
  C   C881      1.0  0.83467  0.01915  0.92256  1.0000
  Fe  Fe94      1.0  0.95778  0.28625  0.90888  1.0000
  H   H1569     1.0  0.84106  0.00550  0.91443  1.0000
  C   C882      1.0  0.81823  0.12893  0.88225  1.0000
  C   C883      1.0  0.83717  0.11902  0.88843  1.0000
  C   C884      1.0  0.86628  0.13707  0.88942  1.0000
  C   C885      1.0  0.87686  0.16527  0.88437  1.0000
  C   C886      1.0  0.85789  0.17522  0.87828  1.0000
  C   C887      1.0  0.82880  0.15713  0.87720  1.0000
  H   H1570     1.0  0.82944  0.09741  0.89231  1.0000
  H   H1571     1.0  0.88072  0.12909  0.89408  1.0000
  H   H1572     1.0  0.86564  0.19678  0.87428  1.0000
  H   H1573     1.0  0.81438  0.16506  0.87239  1.0000
  H   H1574     1.0  0.67536  0.06987  0.83747  1.0000
  C   C888      1.0  0.96616  0.34448  0.80966  1.0000
  S   S193      1.0  0.94769  0.29913  0.93636  1.0000
  C   C889      1.0  0.97462  0.26759  0.97893  1.0000
  H   H1575     1.0  0.78389  0.05919  0.83131  1.0000
  C   C890      1.0  0.86258  0.20372  0.95469  1.0000
  H   H1576     1.0  0.82188  0.17362  0.93000  1.0000
  C   C891      1.0  0.52371  0.00519  0.77409  1.0000
  H   H1577     1.0  0.83189  0.05836  0.91825  1.0000
  H   H1578     1.0  0.80799  0.08839  0.81886  1.0000
  C   C892      1.0  0.72826  0.02426  0.97407  1.0000
  H   H1579     1.0  0.69104  0.09561  0.88445  1.0000
  C   C893      1.0  0.91991  0.20938  0.94229  1.0000
  H   H1580     1.0  0.49080  0.99651  0.79238  1.0000
  C   C894      1.0  0.80272  0.11974  0.93557  1.0000
  H   H1581     1.0  0.87005  0.24774  0.95256  1.0000
  H   H1582     1.0  0.72067  0.08095  0.86699  1.0000
  S   S194      1.0  0.95282  0.31597  0.84181  1.0000
  H   H1583     1.0  0.66947  0.06979  0.80457  1.0000
  H   H1584     1.0  0.83361  0.14662  0.95543  1.0000
  H   H1585     1.0  0.86770  0.19169  0.96515  1.0000
  H   H1586     1.0  0.79878  0.09438  0.84111  1.0000
  C   C895      1.0  0.84032  0.16903  0.92979  1.0000
  H   H1587     1.0  0.83906  0.25580  0.90501  1.0000
  H   H1588     1.0  0.67042  0.06083  0.87503  1.0000
  H   H1589     1.0  0.70139  0.04312  0.96639  1.0000
  Fe  Fe95      1.0  0.74471  0.99973  0.88928  1.0000
  H   H1590     1.0  0.75788  0.15813  0.80594  1.0000
  H   H1591     1.0  0.92047  0.21513  0.95677  1.0000
  C   C896      1.0  0.89043  0.18629  0.93649  1.0000
  H   H1592     1.0  0.96732  0.44615  0.83271  1.0000
  H   H1593     1.0  0.97261  0.47991  0.81020  1.0000
  H   H1594     1.0  0.94866  0.42825  0.80272  1.0000
  H   H1595     1.0  0.66777  0.09048  0.86509  1.0000
  H   H1596     1.0  0.85948  0.05508  0.90656  1.0000
  H   H1597     1.0  0.79794  0.10036  0.94314  1.0000
  S   S195      1.0  0.97286  0.25334  0.90718  1.0000
  H   H1598     1.0  0.80075  0.11427  0.92093  1.0000
  H   H1599     1.0  0.75942  0.07333  0.80724  1.0000
  H   H1600     1.0  0.72193  0.15235  0.80188  1.0000
  H   H1601     1.0  0.82635  0.03147  0.96025  1.0000
  H   H1602     1.0  0.84008  0.19842  0.95646  1.0000
  C   C897      1.0  0.83748  0.04350  0.91074  1.0000
  H   H1603     1.0  0.94899  0.42102  0.75165  1.0000
  H   H1604     1.0  0.74223  0.15027  0.78344  1.0000
  C   C898      1.0  0.51035  0.99398  0.79202  1.0000
  H   H1605     1.0  0.78700  0.12733  0.93880  1.0000
  H   H1606     1.0  0.97570  0.26610  0.94977  1.0000
  H   H1607     1.0  0.94374  0.33431  0.80677  1.0000
  H   H1608     1.0  0.88637  0.16919  0.94609  1.0000
  H   H1609     1.0  0.84186  0.16351  0.91550  1.0000
  C   C899      1.0  0.70625  0.08732  0.85939  1.0000
  H   H1610     1.0  0.66711  0.01663  0.78588  1.0000
  H   H1611     1.0  0.52507  0.00748  0.80289  1.0000
  C   C900      1.0  0.95512  0.29049  0.95845  1.0000
  H   H1612     1.0  0.87373  0.26881  0.91548  1.0000
  N   N52       1.0  0.71533  0.07782  0.82635  1.0000
  C   C901      1.0  0.96917  0.27399  0.96126  1.0000
  H   H1613     1.0  0.83707  0.22526  0.92979  1.0000
  C   C902      1.0  0.70218  0.05598  0.81133  1.0000
  C   C903      1.0  0.83245  0.14204  0.94072  1.0000
  H   H1614     1.0  0.84684  0.13265  0.93777  1.0000
  C   C904      1.0  0.94626  0.30011  0.97361  1.0000
  H   H1615     1.0  0.87873  0.21056  0.90940  1.0000
  C   C905      1.0  0.81957  0.01233  0.96833  1.0000
  H   H1616     1.0  0.83192  0.20672  0.90855  1.0000
  H   H1617     1.0  0.89181  0.17770  0.92298  1.0000
  C   C906      1.0  0.87912  0.23546  0.95991  1.0000
  H   H1618     1.0  0.73720  0.05577  0.83781  1.0000
  Fe  Fe96      1.0  0.95819  0.29263  0.86675  1.0000
  C   C907      1.0  0.94211  0.19886  0.94014  1.0000
  C   C908      1.0  0.85717  0.25107  0.90747  1.0000
  H   H1619     1.0  0.94331  0.19369  0.92573  1.0000
  H   H1620     1.0  0.76345  0.12767  0.97169  1.0000
  H   H1621     1.0  0.93720  0.17995  0.94824  1.0000
  H   H1622     1.0  0.86533  0.24910  0.89422  1.0000
  C   C909      1.0  0.67199  0.05022  0.80495  1.0000
  H   H1623     1.0  0.68938  0.04711  0.84518  1.0000
  H   H1624     1.0  0.92609  0.22835  0.93414  1.0000
  C   C910      1.0  0.74202  0.07719  0.83322  1.0000
  C   C911      1.0  0.72085  0.10700  0.82076  1.0000
  C   C912      1.0  0.72785  0.11435  0.80075  1.0000
  H   H1625     1.0  0.97508  0.25714  0.80123  1.0000
  H   H1626     1.0  0.93531  0.31286  0.97166  1.0000
  C   C913      1.0  0.73808  0.14572  0.79790  1.0000
  H   H1627     1.0  0.75125  0.09153  0.84518  1.0000
  H   H1628     1.0  0.70234  0.11093  0.82325  1.0000
  H   H1629     1.0  0.73824  0.12298  0.82942  1.0000
  H   H1630     1.0  0.70890  0.10299  0.79181  1.0000
  H   H1631     1.0  0.74420  0.10864  0.79609  1.0000
  H   H1632     1.0  0.64179  0.03009  0.78272  1.0000
  H   H1633     1.0  0.77447  0.10852  0.81719  1.0000
  S   S196      1.0  0.97130  0.25807  0.86312  1.0000
  S   S197      1.0  0.73720  0.01904  0.95177  1.0000
  H   H1634     1.0  0.75352  0.00631  0.98640  1.0000
  C   C914      1.0  0.76621  0.08587  0.82004  1.0000
  H   H1635     1.0  0.82367  0.03552  0.89836  1.0000
  C   C915      1.0  0.76459  0.11210  0.98108  1.0000
  C   C916      1.0  0.84009  0.01941  0.98461  1.0000
  C   C917      1.0  0.94935  0.41445  0.76577  1.0000
  H   H1636     1.0  0.52708  0.02721  0.77272  1.0000
  H   H1637     1.0  0.95654  0.39779  0.76583  1.0000
  H   H1638     1.0  0.77458  0.10041  0.97421  1.0000
  H   H1639     1.0  0.67730  0.05045  0.77591  1.0000
  H   H1640     1.0  0.84976  0.02814  0.93422  1.0000
  C   C918      1.0  0.96940  0.43187  0.79751  1.0000
  H   H1641     1.0  0.92769  0.40580  0.77070  1.0000
  H   H1642     1.0  0.88806  0.26370  0.98312  1.0000
  C   C919      1.0  0.87793  0.24076  0.98007  1.0000
  C   C920      1.0  0.97618  0.27203  0.81219  1.0000
  H   H1643     1.0  0.95862  0.26093  0.82127  1.0000
  H   H1644     1.0  0.79071  0.99498  0.91620  1.0000
  H   H1645     1.0  0.97339  0.28973  0.80626  1.0000
  H   H1646     1.0  0.50984  0.99246  0.76261  1.0000
  H   H1647     1.0  0.86170  0.02537  0.98016  1.0000
  C   C921      1.0  0.96926  0.43972  0.77750  1.0000
  H   H1648     1.0  0.97563  0.36513  0.78396  1.0000
  H   H1649     1.0  0.96970  0.41108  0.79757  1.0000
  S   S198      1.0  0.65362  0.00158  0.86774  1.0000
  H   H1650     1.0  0.79865  0.00741  0.97354  1.0000
  H   H1651     1.0  0.54438  0.00486  0.77346  1.0000
  H   H1652     1.0  0.85586  0.23193  0.98425  1.0000
  C   C922      1.0  0.97676  0.33924  0.82611  1.0000
  H   H1653     1.0  0.96711  0.41290  0.85987  1.0000
  H   H1654     1.0  0.96195  0.45620  0.77609  1.0000
  C   C923      1.0  0.80412  0.00243  0.92873  1.0000
  H   H1655     1.0  0.74284  0.09716  0.98432  1.0000
  H   H1656     1.0  0.84059  0.99249  0.95312  1.0000
  H   H1657     1.0  0.88949  0.23137  0.98799  1.0000
  H   H1658     1.0  0.97632  0.38510  0.85423  1.0000
  C   C924      1.0  0.98190  0.40763  0.85232  1.0000
  C   C925      1.0  0.97991  0.41279  0.83226  1.0000
  Fe  Fe97      1.0  0.94516  0.80670  0.09761  1.0000
  S   S199      1.0  0.94034  0.76725  0.08373  1.0000
  S   S200      1.0  0.91027  0.81889  0.10242  1.0000
  H   H1659     1.0  0.52411  0.52303  0.22019  1.0000
  S   S201      1.0  0.95627  0.72504  0.12136  1.0000
  H   H1660     1.0  0.64535  0.83886  0.99303  1.0000
  Fe  Fe98      1.0  0.89727  0.63853  0.21689  1.0000
  S   S202      1.0  0.87707  0.59512  0.20393  1.0000
  S   S203      1.0  0.92155  0.68052  0.20213  1.0000
  C   C926      1.0  0.51604  0.50180  0.22488  1.0000
  H   H1661     1.0  0.94555  0.87281  0.03633  1.0000
  Fe  Fe99      1.0  0.83895  0.59012  0.21895  1.0000
  S   S204      1.0  0.79535  0.57340  0.20586  1.0000
  Fe  Fe100     1.0  0.75210  0.75898  0.07698  1.0000
  S   S205      1.0  0.70804  0.72573  0.07087  1.0000
  S   S206      1.0  0.78610  0.74558  0.07161  1.0000
  Fe  Fe101     1.0  0.73199  0.80227  0.08806  1.0000
  S   S207      1.0  0.68684  0.77158  0.08273  1.0000
  S   S208      1.0  0.74763  0.84762  0.09847  1.0000
  Fe  Fe102     1.0  0.69760  0.73998  0.09725  1.0000
  S   S209      1.0  0.66800  0.70765  0.11723  1.0000
  Fe  Fe103     1.0  0.70187  0.76017  0.05704  1.0000
  S   S210      1.0  0.67864  0.75669  0.02972  1.0000
  S   S211      1.0  0.74222  0.77150  0.10386  1.0000
  S   S212      1.0  0.74652  0.79257  0.06182  1.0000
  H   H1662     1.0  0.92423  0.50128  0.19410  1.0000
  C   C927      1.0  0.64910  0.74421  0.17221  1.0000
  Fe  Fe104     1.0  0.60431  0.55708  0.23082  1.0000
  H   H1663     1.0  0.71549  0.80084  0.12262  1.0000
  C   C928      1.0  0.74132  0.89234  0.04341  1.0000
  H   H1664     1.0  0.62807  0.76422  0.09190  1.0000
  Fe  Fe105     1.0  0.64157  0.61642  0.21628  1.0000
  S   S213      1.0  0.66145  0.65092  0.19482  1.0000
  S   S214      1.0  0.64450  0.57520  0.21524  1.0000
  C   C929      1.0  0.82848  0.75479  0.13294  1.0000
  C   C930      1.0  0.96602  0.75122  0.99430  1.0000
  S   S215      1.0  0.69700  0.93538  0.08677  1.0000
  H   H1665     1.0  0.61192  0.75092  0.12277  1.0000
  H   H1666     1.0  0.66073  0.81396  0.01619  1.0000
  C   C931      1.0  0.71817  0.92257  0.03813  1.0000
  H   H1667     1.0  0.81576  0.73493  0.13972  1.0000
  C   C932      1.0  0.73255  0.87130  0.09567  1.0000
  C   C933      1.0  0.74814  0.89943  0.10162  1.0000
  C   C934      1.0  0.73750  0.91923  0.09925  1.0000
  C   C935      1.0  0.71106  0.91114  0.09087  1.0000
  C   C936      1.0  0.69519  0.88285  0.08526  1.0000
  C   C937      1.0  0.70582  0.86303  0.08763  1.0000
  H   H1668     1.0  0.76873  0.90603  0.10801  1.0000
  H   H1669     1.0  0.74985  0.94081  0.10382  1.0000
  H   H1670     1.0  0.67457  0.87628  0.07894  1.0000
  H   H1671     1.0  0.69339  0.84143  0.08318  1.0000
  C   C938      1.0  0.71865  0.76168  0.00463  1.0000
  C   C939      1.0  0.69096  0.75650  0.00761  1.0000
  H   H1672     1.0  0.77126  0.93300  0.07035  1.0000
  H   H1673     1.0  0.73318  0.76551  0.01602  1.0000
  H   H1674     1.0  0.69018  0.95311  0.05061  1.0000
  C   C940      1.0  0.66765  0.69173  0.13862  1.0000
  C   C941      1.0  0.64431  0.66634  0.14251  1.0000
  C   C942      1.0  0.64222  0.65344  0.15938  1.0000
  C   C943      1.0  0.66321  0.66601  0.17297  1.0000
  C   C944      1.0  0.68655  0.69149  0.16914  1.0000
  C   C945      1.0  0.68891  0.70410  0.15212  1.0000
  H   H1675     1.0  0.62759  0.65648  0.13234  1.0000
  H   H1676     1.0  0.62410  0.63393  0.16193  1.0000
  H   H1677     1.0  0.70296  0.70159  0.17945  1.0000
  H   H1678     1.0  0.70706  0.72355  0.14955  1.0000
  H   H1679     1.0  0.83847  0.70976  0.15116  1.0000
  H   H1680     1.0  0.76096  0.88997  0.04221  1.0000
  C   C946      1.0  0.77025  0.57634  0.21950  1.0000
  C   C947      1.0  0.74257  0.56746  0.21277  1.0000
  C   C948      1.0  0.72269  0.57078  0.22336  1.0000
  H   H1681     1.0  0.67026  0.74547  0.17473  1.0000
  H   H1682     1.0  0.73656  0.55806  0.19936  1.0000
  H   H1683     1.0  0.70133  0.56367  0.21825  1.0000
  C   C949      1.0  0.87602  0.79844  0.09345  1.0000
  C   C950      1.0  0.85572  0.80818  0.09547  1.0000
  C   C951      1.0  0.82794  0.79203  0.08897  1.0000
  C   C952      1.0  0.82041  0.76605  0.08035  1.0000
  C   C953      1.0  0.84067  0.75622  0.07838  1.0000
  C   C954      1.0  0.86842  0.77240  0.08490  1.0000
  H   H1684     1.0  0.86147  0.82829  0.10215  1.0000
  H   H1685     1.0  0.81242  0.79972  0.09053  1.0000
  H   H1686     1.0  0.83486  0.73607  0.07177  1.0000
  H   H1687     1.0  0.88386  0.76466  0.08338  1.0000
  H   H1688     1.0  0.72881  0.63851  0.15358  1.0000
  H   H1689     1.0  0.77463  0.96254  0.03434  1.0000
  Fe  Fe106     1.0  0.88963  0.58010  0.22960  1.0000
  C   C955      1.0  0.94654  0.71322  0.14396  1.0000
  C   C956      1.0  0.95315  0.73168  0.15892  1.0000
  C   C957      1.0  0.94531  0.72128  0.17643  1.0000
  C   C958      1.0  0.93056  0.69223  0.17944  1.0000
  C   C959      1.0  0.92362  0.67379  0.16444  1.0000
  C   C960      1.0  0.93167  0.68419  0.14694  1.0000
  H   H1690     1.0  0.72988  0.68694  0.14016  1.0000
  C   C961      1.0  0.64054  0.80320  0.00828  1.0000
  H   H1691     1.0  0.91238  0.65143  0.16633  1.0000
  H   H1692     1.0  0.62263  0.74796  0.15139  1.0000
  H   H1693     1.0  0.74947  0.81956  0.15871  1.0000
  H   H1694     1.0  0.76210  0.82909  0.13635  1.0000
  C   C962      1.0  0.74616  0.91677  0.01433  1.0000
  H   H1695     1.0  0.87820  0.79150  0.00063  1.0000
  C   C963      1.0  0.71577  0.86467  0.03689  1.0000
  H   H1696     1.0  0.96687  0.74779  0.02338  1.0000
  C   C964      1.0  0.71929  0.83903  0.04292  1.0000
  H   H1697     1.0  0.78401  0.72542  0.00711  1.0000
  H   H1698     1.0  0.78768  0.91650  0.01516  1.0000
  H   H1699     1.0  0.74813  0.69561  0.17287  1.0000
  H   H1700     1.0  0.75264  0.93782  0.00847  1.0000
  H   H1701     1.0  0.69636  0.86352  0.04279  1.0000
  H   H1702     1.0  0.71260  0.86301  0.02204  1.0000
  H   H1703     1.0  0.96164  0.52108  0.19731  1.0000
  H   H1704     1.0  0.76532  0.71371  0.14371  1.0000
  H   H1705     1.0  0.63807  0.80074  0.09756  1.0000
  H   H1706     1.0  0.69985  0.81957  0.03944  1.0000
  H   H1707     1.0  0.73697  0.83780  0.03606  1.0000
  S   S216      1.0  0.97313  0.80573  0.12051  1.0000
  C   C965      1.0  0.89720  0.51477  0.22874  1.0000
  S   S217      1.0  0.85839  0.63357  0.23110  1.0000
  H   H1708     1.0  0.93493  0.81447  0.02363  1.0000
  H   H1709     1.0  0.66706  0.54550  0.16166  1.0000
  H   H1710     1.0  0.88549  0.68189  0.10504  1.0000
  C   C966      1.0  0.75909  0.63112  0.18255  1.0000
  H   H1711     1.0  0.63559  0.78075  0.00624  1.0000
  C   C967      1.0  0.94465  0.50591  0.18812  1.0000
  H   H1712     1.0  0.91193  0.82936  0.01852  1.0000
  H   H1713     1.0  0.71393  0.82507  0.13883  1.0000
  H   H1714     1.0  0.84048  0.67419  0.17132  1.0000
  H   H1715     1.0  0.89204  0.71541  0.09620  1.0000
  C   C968      1.0  0.72981  0.65069  0.16600  1.0000
  H   H1716     1.0  0.85629  0.68915  0.09900  1.0000
  Fe  Fe107     1.0  0.97002  0.76691  0.10633  1.0000
  H   H1717     1.0  0.70909  0.65120  0.16592  1.0000
  H   H1718     1.0  0.75860  0.88287  0.01020  1.0000
  H   H1719     1.0  0.77934  0.64543  0.15681  1.0000
  C   C969      1.0  0.91036  0.49909  0.23599  1.0000
  H   H1720     1.0  0.65458  0.56818  0.17233  1.0000
  C   C970      1.0  0.73626  0.65536  0.19879  1.0000
  C   C971      1.0  0.53476  0.49128  0.23051  1.0000
  C   C972      1.0  0.73677  0.64305  0.21759  1.0000
  H   H1721     1.0  0.75071  0.61105  0.15506  1.0000
  C   C973      1.0  0.87934  0.70968  0.12404  1.0000
  H   H1722     1.0  0.62113  0.78702  0.12879  1.0000
  H   H1723     1.0  0.75593  0.67526  0.19831  1.0000
  H   H1724     1.0  0.77781  0.64917  0.18883  1.0000
  H   H1725     1.0  0.75598  0.61322  0.19131  1.0000
  H   H1726     1.0  0.75151  0.63350  0.21821  1.0000
  H   H1727     1.0  0.71547  0.62683  0.22066  1.0000
  C   C974      1.0  0.67238  0.75134  0.99255  1.0000
  H   H1728     1.0  0.73129  0.67558  0.23259  1.0000
  H   H1729     1.0  0.72529  0.90336  0.00768  1.0000
  C   C975      1.0  0.67169  0.56161  0.17255  1.0000
  C   C976      1.0  0.96984  0.76171  0.01230  1.0000
  C   C977      1.0  0.74569  0.66558  0.23260  1.0000
  H   H1730     1.0  0.68754  0.84566  0.19352  1.0000
  H   H1731     1.0  0.92429  0.79496  0.99551  1.0000
  H   H1732     1.0  0.64433  0.73279  0.14381  1.0000
  C   C978      1.0  0.69995  0.58671  0.16959  1.0000
  H   H1733     1.0  0.90126  0.71800  0.12919  1.0000
  H   H1734     1.0  0.79743  0.61116  0.15292  1.0000
  H   H1735     1.0  0.75005  0.79331  0.14318  1.0000
  H   H1736     1.0  0.81366  0.77798  0.15064  1.0000
  N   N53       1.0  0.89132  0.78659  0.02767  1.0000
  C   C979      1.0  0.88363  0.77666  0.00828  1.0000
  C   C980      1.0  0.86602  0.78676  0.03620  1.0000
  C   C981      1.0  0.91570  0.81553  0.02823  1.0000
  C   C982      1.0  0.89997  0.76737  0.03815  1.0000
  C   C983      1.0  0.88005  0.73550  0.03608  1.0000
  H   H1737     1.0  0.69200  0.97156  0.03023  1.0000
  C   C984      1.0  0.92363  0.83082  0.04699  1.0000
  C   C985      1.0  0.85542  0.80734  0.02829  1.0000
  C   C986      1.0  0.83124  0.80702  0.03902  1.0000
  C   C987      1.0  0.88969  0.71861  0.04857  1.0000
  H   H1738     1.0  0.86899  0.68403  0.18778  1.0000
  H   H1739     1.0  0.91543  0.76101  0.00464  1.0000
  C   C988      1.0  0.87499  0.50173  0.21603  1.0000
  H   H1740     1.0  0.86440  0.75624  0.00737  1.0000
  H   H1741     1.0  0.84788  0.76556  0.03514  1.0000
  H   H1742     1.0  0.87020  0.79151  0.05089  1.0000
  H   H1743     1.0  0.81677  0.97376  0.06536  1.0000
  H   H1744     1.0  0.73630  0.96866  0.03652  1.0000
  H   H1745     1.0  0.92134  0.77053  0.03462  1.0000
  H   H1746     1.0  0.90195  0.77282  0.05279  1.0000
  H   H1747     1.0  0.87975  0.72775  0.02209  1.0000
  H   H1748     1.0  0.85830  0.73078  0.03944  1.0000
  H   H1749     1.0  0.86474  0.51349  0.21025  1.0000
  H   H1750     1.0  0.69859  0.59474  0.15608  1.0000
  H   H1751     1.0  0.92856  0.81826  0.05704  1.0000
  H   H1752     1.0  0.90635  0.83487  0.05206  1.0000
  H   H1753     1.0  0.87224  0.82921  0.02866  1.0000
  H   H1754     1.0  0.84747  0.80129  0.01414  1.0000
  H   H1755     1.0  0.81365  0.78549  0.03915  1.0000
  H   H1756     1.0  0.83849  0.81453  0.05313  1.0000
  H   H1757     1.0  0.82327  0.82110  0.03283  1.0000
  H   H1758     1.0  0.95104  0.73588  0.18782  1.0000
  H   H1759     1.0  0.70115  0.78133  0.16112  1.0000
  H   H1760     1.0  0.87600  0.69583  0.04620  1.0000
  H   H1761     1.0  0.91169  0.72291  0.04600  1.0000
  Fe  Fe108     1.0  0.97871  0.79457  0.06843  1.0000
  C   C989      1.0  0.66223  0.80220  0.15469  1.0000
  H   H1762     1.0  0.92640  0.66953  0.13561  1.0000
  H   H1763     1.0  0.72337  0.83990  0.05773  1.0000
  H   H1764     1.0  0.75889  0.67950  0.13497  1.0000
  S   S218      1.0  0.59986  0.59748  0.23043  1.0000
  H   H1765     1.0  0.69910  0.90485  0.03199  1.0000
  H   H1766     1.0  0.63226  0.71036  0.19112  1.0000
  H   H1767     1.0  0.84495  0.69930  0.18938  1.0000
  C   C990      1.0  0.74640  0.81223  0.14438  1.0000
  N   N54       1.0  0.74394  0.91866  0.03447  1.0000
  H   H1768     1.0  0.71899  0.95011  0.01594  1.0000
  C   C991      1.0  0.71814  0.94977  0.03085  1.0000
  H   H1769     1.0  0.90874  0.80554  0.15837  1.0000
  H   H1770     1.0  0.88008  0.74796  0.11399  1.0000
  H   H1771     1.0  0.73910  0.89389  0.05816  1.0000
  H   H1772     1.0  0.71433  0.92156  0.05278  1.0000
  H   H1773     1.0  0.68869  0.61408  0.18586  1.0000
  H   H1774     1.0  0.66088  0.76148  0.11800  1.0000
  C   C992      1.0  0.69156  0.95207  0.03575  1.0000
  C   C993      1.0  0.71685  0.80580  0.13728  1.0000
  C   C994      1.0  0.75153  0.69087  0.14446  1.0000
  C   C995      1.0  0.68156  0.81566  0.17176  1.0000
  H   H1775     1.0  0.67255  0.93385  0.03008  1.0000
  H   H1776     1.0  0.80660  0.62521  0.17573  1.0000
  Fe  Fe109     1.0  0.71724  0.98366  0.08744  1.0000
  H   H1777     1.0  0.69432  0.76122  0.14095  1.0000
  H   H1778     1.0  0.77779  0.59092  0.17131  1.0000
  C   C996      1.0  0.77033  0.94321  0.04189  1.0000
  C   C997      1.0  0.87809  0.69839  0.10485  1.0000
  H   H1779     1.0  0.60611  0.71273  0.17614  1.0000
  C   C998      1.0  0.62365  0.77870  0.10069  1.0000
  H   H1780     1.0  0.70836  0.59911  0.19720  1.0000
  H   H1781     1.0  0.82714  0.75034  0.11820  1.0000
  C   C999      1.0  0.79779  0.97666  0.06793  1.0000
  C   C1000     1.0  0.77115  0.95030  0.06227  1.0000
  H   H1782     1.0  0.75302  0.95400  0.06587  1.0000
  N   N55       1.0  0.73347  0.63650  0.18267  1.0000
  C   C1001     1.0  0.69409  0.78048  0.14683  1.0000
  H   H1783     1.0  0.67159  0.79829  0.11941  1.0000
  C   C1002     1.0  0.70709  0.60951  0.18462  1.0000
  H   H1784     1.0  0.67217  0.55197  0.18568  1.0000
  N   N56       1.0  0.66481  0.77814  0.14526  1.0000
  C   C1003     1.0  0.81524  0.77468  0.13600  1.0000
  C   C1004     1.0  0.65746  0.77798  0.12540  1.0000
  C   C1005     1.0  0.62778  0.71472  0.17710  1.0000
  H   H1785     1.0  0.71597  0.57872  0.16982  1.0000
  H   H1786     1.0  0.88826  0.72396  0.06288  1.0000
  H   H1787     1.0  0.95591  0.80531  0.15938  1.0000
  N   N57       1.0  0.87251  0.74797  0.14233  1.0000
  H   H1788     1.0  0.89090  0.73220  0.17709  1.0000
  H   H1789     1.0  0.70364  0.82803  0.16798  1.0000
  C   C1006     1.0  0.64440  0.75022  0.15236  1.0000
  C   C1007     1.0  0.76699  0.90572  0.00791  1.0000
  C   C1008     1.0  0.78886  0.61250  0.16615  1.0000
  C   C1009     1.0  0.62701  0.77308  0.12055  1.0000
  H   H1790     1.0  0.68132  0.79991  0.18139  1.0000
  H   H1791     1.0  0.91423  0.75208  0.14909  1.0000
  H   H1792     1.0  0.82790  0.79527  0.12991  1.0000
  H   H1793     1.0  0.94327  0.77838  0.17609  1.0000
  C   C1010     1.0  0.94077  0.79625  0.17022  1.0000
  H   H1794     1.0  0.71883  0.66154  0.19848  1.0000
  H   H1795     1.0  0.53549  0.59903  0.23595  1.0000
  C   C1011     1.0  0.75232  0.68133  0.16373  1.0000
  H   H1796     1.0  0.84665  0.72157  0.11986  1.0000
  C   C1012     1.0  0.85960  0.76800  0.13995  1.0000
  S   S219      1.0  0.57179  0.51055  0.22859  1.0000
  H   H1797     1.0  0.89630  0.77749  0.17401  1.0000
  H   H1798     1.0  0.64012  0.79554  0.15845  1.0000
  H   H1799     1.0  0.67386  0.85263  0.17268  1.0000
  C   C1013     1.0  0.90685  0.77389  0.99758  1.0000
  H   H1800     1.0  0.95431  0.86976  0.05959  1.0000
  H   H1801     1.0  0.94572  0.81261  0.18099  1.0000
  H   H1802     1.0  0.78787  0.75968  0.00141  1.0000
  H   H1803     1.0  0.66683  0.81983  0.14534  1.0000
  H   H1804     1.0  0.64596  0.75899  0.18142  1.0000
  H   H1805     1.0  0.77374  0.68379  0.16712  1.0000
  C   C1014     1.0  0.91071  0.78661  0.16284  1.0000
  H   H1806     1.0  0.62906  0.69873  0.16797  1.0000
  H   H1807     1.0  0.60176  0.77518  0.09762  1.0000
  H   H1808     1.0  0.91392  0.77796  0.13480  1.0000
  H   H1809     1.0  0.87193  0.78480  0.13051  1.0000
  H   H1810     1.0  0.88624  0.70747  0.15938  1.0000
  C   C1015     1.0  0.67295  0.83575  0.18169  1.0000
  H   H1811     1.0  0.78892  0.93933  0.03992  1.0000
  C   C1016     1.0  0.90346  0.76544  0.14667  1.0000
  H   H1812     1.0  0.86066  0.77910  0.15296  1.0000
  H   H1813     1.0  0.65135  0.82427  0.18659  1.0000
  C   C1017     1.0  0.85764  0.72779  0.15699  1.0000
  H   H1814     1.0  0.79381  0.76553  0.12955  1.0000
  C   C1018     1.0  0.85603  0.69189  0.17984  1.0000
  H   H1815     1.0  0.86579  0.69166  0.13219  1.0000
  H   H1816     1.0  0.84980  0.73789  0.16714  1.0000
  H   H1817     1.0  0.81783  0.75214  0.00124  1.0000
  C   C1019     1.0  0.86905  0.73259  0.12450  1.0000
  C   C1020     1.0  0.87493  0.71572  0.16803  1.0000
  C   C1021     1.0  0.76848  0.62545  0.16395  1.0000
  H   H1818     1.0  0.76754  0.68181  0.23091  1.0000
  H   H1819     1.0  0.62372  0.80432  0.01623  1.0000
  H   H1820     1.0  0.79765  0.98106  0.08260  1.0000
  C   C1022     1.0  0.98167  0.80785  0.00114  1.0000
  C   C1023     1.0  0.77774  0.58785  0.23698  1.0000
  H   H1821     1.0  0.96789  0.85618  0.04199  1.0000
  C   C1024     1.0  0.94944  0.85915  0.04607  1.0000
  H   H1822     1.0  0.96005  0.72919  0.99175  1.0000
  H   H1823     1.0  0.94569  0.51584  0.17492  1.0000
  H   H1824     1.0  0.82688  0.67898  0.23093  1.0000
  C   C1025     1.0  0.79494  0.74344  0.99823  1.0000
  S   S220      1.0  0.90986  0.55071  0.23555  1.0000
  H   H1825     1.0  0.65076  0.74667  0.99467  1.0000
  H   H1826     1.0  0.96486  0.75399  0.15704  1.0000
  C   C1026     1.0  0.97793  0.79020  0.01585  1.0000
  S   S221      1.0  0.98119  0.83406  0.08135  1.0000
  C   C1027     1.0  0.64209  0.81706  0.99014  1.0000
  H   H1827     1.0  0.53886  0.98930  0.23405  1.0000
  H   H1828     1.0  0.55422  0.49921  0.16751  1.0000
  H   H1829     1.0  0.53689  0.49411  0.18856  1.0000
  H   H1830     1.0  0.54217  0.98955  0.14341  1.0000
  Fe  Fe110     1.0  0.87197  0.61533  0.25471  1.0000
  C   C1028     1.0  0.83769  0.68695  0.24430  1.0000
  S   S222      1.0  0.85860  0.61733  0.28386  1.0000
  H   H1831     1.0  0.91497  0.65090  0.30055  1.0000
  H   H1832     1.0  0.68654  0.67221  0.38156  1.0000
  Fe  Fe111     1.0  0.88756  0.61239  0.39184  1.0000
  S   S223      1.0  0.85361  0.56834  0.38926  1.0000
  S   S224      1.0  0.90608  0.63621  0.36597  1.0000
  Fe  Fe112     1.0  0.89333  0.60965  0.43413  1.0000
  S   S225      1.0  0.85891  0.56504  0.43333  1.0000
  S   S226      1.0  0.91060  0.62685  0.46333  1.0000
  Fe  Fe113     1.0  0.87982  0.55817  0.40932  1.0000
  S   S227      1.0  0.89369  0.52444  0.40391  1.0000
  Fe  Fe114     1.0  0.83543  0.57952  0.41344  1.0000
  S   S228      1.0  0.78737  0.56099  0.41304  1.0000
  S   S229      1.0  0.91533  0.60175  0.41083  1.0000
  S   S230      1.0  0.86830  0.62466  0.41528  1.0000
  Fe  Fe115     1.0  0.62537  0.60770  0.25688  1.0000
  S   S231      1.0  0.61723  0.62627  0.28274  1.0000
  S   S232      1.0  0.62773  0.56702  0.25773  1.0000
  Fe  Fe116     1.0  0.60845  0.61078  0.42993  1.0000
  S   S233      1.0  0.63013  0.58796  0.44349  1.0000
  S   S234      1.0  0.59069  0.63610  0.44633  1.0000
  Fe  Fe117     1.0  0.61271  0.58760  0.39150  1.0000
  S   S235      1.0  0.63376  0.56294  0.40367  1.0000
  S   S236      1.0  0.60645  0.57532  0.36123  1.0000
  Fe  Fe118     1.0  0.60211  0.55162  0.42505  1.0000
  H   H1833     1.0  0.75937  0.69608  0.32605  1.0000
  Fe  Fe119     1.0  0.65967  0.60132  0.42051  1.0000
  S   S237      1.0  0.70747  0.62043  0.42298  1.0000
  S   S238      1.0  0.57913  0.57365  0.41224  1.0000
  S   S239      1.0  0.64016  0.62706  0.40780  1.0000
  C   C1029     1.0  0.77381  0.70138  0.31470  1.0000
  H   H1834     1.0  0.82535  0.66158  0.32260  1.0000
  H   H1835     1.0  0.90672  0.49901  0.31379  1.0000
  C   C1030     1.0  0.58657  0.63962  0.47005  1.0000
  C   C1031     1.0  0.81986  0.66836  0.25907  1.0000
  H   H1836     1.0  0.86971  0.53124  0.27769  1.0000
  H   H1837     1.0  0.56607  0.66616  0.46590  1.0000
  H   H1838     1.0  0.73268  0.62629  0.48553  1.0000
  C   C1032     1.0  0.61758  0.61343  0.30477  1.0000
  C   C1033     1.0  0.61834  0.58780  0.30754  1.0000
  C   C1034     1.0  0.61539  0.57682  0.32497  1.0000
  C   C1035     1.0  0.61281  0.59175  0.34000  1.0000
  C   C1036     1.0  0.61356  0.61806  0.33741  1.0000
  C   C1037     1.0  0.61550  0.62860  0.31985  1.0000
  H   H1839     1.0  0.62028  0.57598  0.29621  1.0000
  H   H1840     1.0  0.61494  0.55650  0.32680  1.0000
  H   H1841     1.0  0.61147  0.62975  0.34881  1.0000
  H   H1842     1.0  0.61499  0.64848  0.31792  1.0000
  H   H1843     1.0  0.85149  0.66769  0.27761  1.0000
  C   C1038     1.0  0.87954  0.54892  0.30569  1.0000
  C   C1039     1.0  0.55402  0.51541  0.29344  1.0000
  C   C1040     1.0  0.72931  0.60378  0.41920  1.0000
  C   C1041     1.0  0.71827  0.57512  0.41491  1.0000
  C   C1042     1.0  0.73635  0.56239  0.41316  1.0000
  C   C1043     1.0  0.76567  0.57824  0.41530  1.0000
  C   C1044     1.0  0.77672  0.60703  0.41919  1.0000
  C   C1045     1.0  0.75860  0.61967  0.42122  1.0000
  H   H1844     1.0  0.69580  0.56273  0.41323  1.0000
  H   H1845     1.0  0.72762  0.54012  0.41007  1.0000
  H   H1846     1.0  0.79920  0.61948  0.42090  1.0000
  H   H1847     1.0  0.76735  0.64185  0.42460  1.0000
  H   H1848     1.0  0.87678  0.49676  0.30049  1.0000
  C   C1046     1.0  0.93979  0.63675  0.47935  1.0000
  H   H1849     1.0  0.52728  0.53006  0.47381  1.0000
  H   H1850     1.0  0.85608  0.50853  0.37147  1.0000
  N   N58       1.0  0.70298  0.59905  0.35563  1.0000
  S   S240      1.0  0.84961  0.57138  0.24308  1.0000
  S   S241      1.0  0.57979  0.50745  0.43535  1.0000
  H   H1851     1.0  0.89238  0.56995  0.34083  1.0000
  H   H1852     1.0  0.78390  0.60332  0.35776  1.0000
  H   H1853     1.0  0.76370  0.59959  0.26104  1.0000
  H   H1854     1.0  0.54982  0.51501  0.40425  1.0000
  C   C1047     1.0  0.87336  0.62000  0.30620  1.0000
  C   C1048     1.0  0.85557  0.60537  0.32007  1.0000
  C   C1049     1.0  0.86538  0.60932  0.33831  1.0000
  C   C1050     1.0  0.89309  0.62850  0.34304  1.0000
  C   C1051     1.0  0.91093  0.64296  0.32915  1.0000
  C   C1052     1.0  0.90119  0.63879  0.31089  1.0000
  H   H1855     1.0  0.83393  0.59101  0.31673  1.0000
  H   H1856     1.0  0.85131  0.59808  0.34877  1.0000
  H   H1857     1.0  0.93233  0.65802  0.33259  1.0000
  H   H1858     1.0  0.63624  0.56276  0.48029  1.0000
  H   H1859     1.0  0.96252  0.73014  0.45907  1.0000
  H   H1860     1.0  0.76518  0.65874  0.30970  1.0000
  H   H1861     1.0  0.85659  0.52081  0.34896  1.0000
  H   H1862     1.0  0.64401  0.50219  0.36394  1.0000
  H   H1863     1.0  0.72173  0.68078  0.37507  1.0000
  C   C1053     1.0  0.51324  0.49081  0.34597  1.0000
  H   H1864     1.0  0.75418  0.57608  0.31403  1.0000
  H   H1865     1.0  0.53621  0.49782  0.34533  1.0000
  H   H1866     1.0  0.71845  0.62275  0.38083  1.0000
  H   H1867     1.0  0.57291  0.55618  0.28149  1.0000
  S   S242      1.0  0.66600  0.62985  0.24298  1.0000
  N   N59       1.0  0.81800  0.66651  0.29412  1.0000
  H   H1868     1.0  0.70739  0.65940  0.39444  1.0000
  H   H1869     1.0  0.52654  0.61159  0.25628  1.0000
  H   H1870     1.0  0.66059  0.54319  0.34438  1.0000
  C   C1054     1.0  0.84739  0.50210  0.35746  1.0000
  H   H1871     1.0  0.66153  0.54804  0.44550  1.0000
  H   H1872     1.0  0.48752  0.53880  0.28815  1.0000
  H   H1873     1.0  0.50915  0.49801  0.35918  1.0000
  H   H1874     1.0  0.77777  0.57958  0.37597  1.0000
  H   H1875     1.0  0.97178  0.64567  0.46008  1.0000
  C   C1055     1.0  0.64810  0.50216  0.42479  1.0000
  H   H1876     1.0  0.68909  0.54015  0.35623  1.0000
  H   H1877     1.0  0.95083  0.58019  0.27863  1.0000
  C   C1056     1.0  0.83717  0.66888  0.31015  1.0000
  C   C1057     1.0  0.53916  0.60154  0.25081  1.0000
  H   H1878     1.0  0.68535  0.64363  0.35515  1.0000
  H   H1879     1.0  0.86643  0.52941  0.31284  1.0000
  H   H1880     1.0  0.49918  0.51628  0.25938  1.0000
  H   H1881     1.0  0.87624  0.56566  0.31276  1.0000
  C   C1058     1.0  0.68980  0.60095  0.33773  1.0000
  H   H1882     1.0  0.71877  0.64541  0.33290  1.0000
  H   H1883     1.0  0.59078  0.50162  0.48110  1.0000
  C   C1059     1.0  0.65397  0.50454  0.44519  1.0000
  H   H1884     1.0  0.80602  0.62502  0.28240  1.0000
  H   H1885     1.0  0.88861  0.68349  0.32845  1.0000
  C   C1060     1.0  0.72813  0.59398  0.35216  1.0000
  H   H1886     1.0  0.56772  0.52491  0.30571  1.0000
  H   H1887     1.0  0.94925  0.59335  0.30997  1.0000
  H   H1888     1.0  0.74949  0.60536  0.37908  1.0000
  H   H1889     1.0  0.67648  0.63457  0.31361  1.0000
  H   H1890     1.0  0.48866  0.85989  0.48077  1.0000
  H   H1891     1.0  0.79179  0.72223  0.31775  1.0000
  C   C1061     1.0  0.86123  0.69847  0.31475  1.0000
  C   C1062     1.0  0.83477  0.53647  0.28710  1.0000
  C   C1063     1.0  0.86647  0.54645  0.28646  1.0000
  H   H1892     1.0  0.51707  0.61542  0.48425  1.0000
  H   H1893     1.0  0.74476  0.61267  0.34597  1.0000
  C   C1064     1.0  0.83587  0.67633  0.27779  1.0000
  H   H1894     1.0  0.49150  0.98054  0.38926  1.0000
  C   C1065     1.0  0.89831  0.50525  0.46328  1.0000
  C   C1066     1.0  0.96755  0.64572  0.47423  1.0000
  H   H1895     1.0  0.66217  0.57863  0.36711  1.0000
  H   H1896     1.0  0.68161  0.60764  0.30139  1.0000
  H   H1897     1.0  0.56181  0.61553  0.25376  1.0000
  C   C1067     1.0  0.68357  0.49978  0.48588  1.0000
  H   H1898     1.0  0.73206  0.64273  0.36160  1.0000
  N   N60       1.0  0.67679  0.54132  0.47160  1.0000
  H   H1899     1.0  0.92042  0.58364  0.36910  1.0000
  C   C1068     1.0  0.76798  0.58398  0.36375  1.0000
  N   N61       1.0  0.53180  0.54961  0.28959  1.0000
  C   C1069     1.0  0.55136  0.53867  0.28233  1.0000
  C   C1070     1.0  0.53600  0.57576  0.27974  1.0000
  C   C1071     1.0  0.54032  0.55821  0.30918  1.0000
  H   H1900     1.0  0.88877  0.49741  0.44962  1.0000
  H   H1901     1.0  0.73572  0.58296  0.47577  1.0000
  C   C1072     1.0  0.95446  0.71146  0.46767  1.0000
  C   C1073     1.0  0.52475  0.57287  0.31883  1.0000
  C   C1074     1.0  0.73048  0.58295  0.24069  1.0000
  H   H1902     1.0  0.55390  0.58731  0.34228  1.0000
  H   H1903     1.0  0.71816  0.62804  0.46345  1.0000
  C   C1075     1.0  0.87892  0.69774  0.33117  1.0000
  H   H1904     1.0  0.54533  0.53058  0.26822  1.0000
  H   H1905     1.0  0.52186  0.58436  0.28475  1.0000
  H   H1906     1.0  0.56306  0.57270  0.31058  1.0000
  H   H1907     1.0  0.77832  0.63518  0.28268  1.0000
  H   H1908     1.0  0.83778  0.49244  0.41840  1.0000
  H   H1909     1.0  0.54614  0.98138  0.30946  1.0000
  C   C1076     1.0  0.97285  0.57447  0.47170  1.0000
  C   C1077     1.0  0.50133  0.52806  0.28843  1.0000
  H   H1910     1.0  0.63573  0.51352  0.42089  1.0000
  H   H1911     1.0  0.93880  0.55424  0.32825  1.0000
  H   H1912     1.0  0.75333  0.63167  0.46582  1.0000
  H   H1913     1.0  0.53187  0.59454  0.31396  1.0000
  H   H1914     1.0  0.62372  0.53775  0.46158  1.0000
  H   H1915     1.0  0.93897  0.54019  0.29747  1.0000
  C   C1078     1.0  0.62829  0.54028  0.47628  1.0000
  C   C1079     1.0  0.80365  0.68517  0.29645  1.0000
  H   H1916     1.0  0.94069  0.63255  0.28096  1.0000
  C   C1080     1.0  0.53100  0.57533  0.33920  1.0000
  H   H1917     1.0  0.85277  0.71355  0.31799  1.0000
  H   H1918     1.0  0.67005  0.60272  0.33974  1.0000
  H   H1919     1.0  0.79990  0.67009  0.25898  1.0000
  C   C1081     1.0  0.70246  0.66415  0.38062  1.0000
  H   H1920     1.0  0.74333  0.59233  0.29620  1.0000
  H   H1921     1.0  0.72769  0.56834  0.37540  1.0000
  H   H1922     1.0  0.52340  0.55425  0.34511  1.0000
  H   H1923     1.0  0.76224  0.70253  0.30226  1.0000
  H   H1924     1.0  0.53327  0.49972  0.29780  1.0000
  H   H1925     1.0  0.84701  0.65459  0.30793  1.0000
  C   C1082     1.0  0.78592  0.61745  0.30735  1.0000
  C   C1083     1.0  0.65037  0.52354  0.36981  1.0000
  H   H1926     1.0  0.90962  0.54709  0.36397  1.0000
  H   H1927     1.0  0.84854  0.69955  0.27847  1.0000
  H   H1928     1.0  0.70676  0.64392  0.30019  1.0000
  C   C1084     1.0  0.72101  0.58899  0.46824  1.0000
  H   H1929     1.0  0.63887  0.50618  0.48021  1.0000
  H   H1930     1.0  0.71250  0.53235  0.46892  1.0000
  C   C1085     1.0  0.92300  0.56874  0.35959  1.0000
  S   S243      1.0  0.70701  0.58900  0.25422  1.0000
  H   H1931     1.0  0.82556  0.53416  0.27321  1.0000
  C   C1086     1.0  0.71254  0.62587  0.36680  1.0000
  H   H1932     1.0  0.80288  0.61303  0.31331  1.0000
  H   H1933     1.0  0.68322  0.58127  0.32955  1.0000
  H   H1934     1.0  0.79464  0.67808  0.32533  1.0000
  H   H1935     1.0  0.67806  0.58225  0.46775  1.0000
  H   H1936     1.0  0.58839  0.51518  0.27831  1.0000
  C   C1087     1.0  0.69081  0.63774  0.36846  1.0000
  C   C1088     1.0  0.76123  0.58925  0.30199  1.0000
  H   H1937     1.0  0.53730  0.53972  0.31727  1.0000
  C   C1089     1.0  0.53097  0.54911  0.46615  1.0000
  C   C1090     1.0  0.67158  0.53550  0.45151  1.0000
  Fe  Fe120     1.0  0.66695  0.58827  0.24239  1.0000
  H   H1938     1.0  0.86589  0.69044  0.34318  1.0000
  H   H1939     1.0  0.92722  0.49119  0.28514  1.0000
  C   C1091     1.0  0.74232  0.58783  0.36895  1.0000
  H   H1940     1.0  0.68903  0.57579  0.38010  1.0000
  C   C1092     1.0  0.69055  0.57284  0.47471  1.0000
  H   H1941     1.0  0.55778  0.59248  0.28260  1.0000
  H   H1942     1.0  0.50654  0.50073  0.33499  1.0000
  H   H1943     1.0  0.95230  0.69300  0.45941  1.0000
  H   H1944     1.0  0.79883  0.59417  0.24243  1.0000
  C   C1093     1.0  0.75786  0.59096  0.24753  1.0000
  H   H1945     1.0  0.77912  0.62737  0.31805  1.0000
  C   C1094     1.0  0.56731  0.50014  0.28266  1.0000
  H   H1946     1.0  0.48341  0.59783  0.47320  1.0000
  H   H1947     1.0  0.72206  0.58479  0.45375  1.0000
  H   H1948     1.0  0.81936  0.70760  0.29751  1.0000
  C   C1095     1.0  0.53623  0.49570  0.41047  1.0000
  C   C1096     1.0  0.78405  0.67891  0.31243  1.0000
  C   C1097     1.0  0.49568  0.55822  0.48409  1.0000
  C   C1098     1.0  0.70888  0.62486  0.32555  1.0000
  H   H1949     1.0  0.91230  0.53651  0.28141  1.0000
  C   C1099     1.0  0.59583  0.62663  0.48320  1.0000
  H   H1950     1.0  0.53165  0.58919  0.46967  1.0000
  C   C1100     1.0  0.67135  0.54544  0.35776  1.0000
  H   H1951     1.0  0.90301  0.53079  0.33147  1.0000
  C   C1101     1.0  0.97456  0.71582  0.48386  1.0000
  C   C1102     1.0  0.79679  0.63620  0.29071  1.0000
  H   H1952     1.0  0.91869  0.58179  0.27267  1.0000
  H   H1953     1.0  0.76184  0.56602  0.35402  1.0000
  H   H1954     1.0  0.52029  0.58659  0.34572  1.0000
  C   C1103     1.0  0.53079  0.57283  0.25902  1.0000
  H   H1955     1.0  0.91137  0.52827  0.46268  1.0000
  H   H1956     1.0  0.69181  0.54270  0.44471  1.0000
  C   C1104     1.0  0.91620  0.53471  0.29603  1.0000
  H   H1957     1.0  0.72562  0.62004  0.32038  1.0000
  H   H1958     1.0  0.95966  0.58542  0.47419  1.0000
  C   C1105     1.0  0.68135  0.57550  0.36593  1.0000
  C   C1106     1.0  0.52639  0.57039  0.47790  1.0000
  H   H1959     1.0  0.82450  0.51576  0.29350  1.0000
  H   H1960     1.0  0.55297  0.55863  0.46172  1.0000
  H   H1961     1.0  0.87547  0.56727  0.28021  1.0000
  H   H1962     1.0  0.54314  0.56345  0.25244  1.0000
  C   C1107     1.0  0.69234  0.62782  0.30922  1.0000
  H   H1963     1.0  0.96102  0.62466  0.26486  1.0000
  H   H1964     1.0  0.50814  0.55996  0.25561  1.0000
  H   H1965     1.0  0.65988  0.52476  0.38353  1.0000
  H   H1966     1.0  0.60606  0.61403  0.47911  1.0000
  C   C1108     1.0  0.49179  0.50638  0.27241  1.0000
  H   H1967     1.0  0.79047  0.68383  0.28424  1.0000
  N   N62       1.0  0.91008  0.55507  0.30722  1.0000
  H   H1968     1.0  0.66801  0.51078  0.41754  1.0000
  C   C1109     1.0  0.92884  0.58496  0.30210  1.0000
  C   C1110     1.0  0.91700  0.55205  0.32675  1.0000
  H   H1969     1.0  0.92786  0.59512  0.33710  1.0000
  H   H1970     1.0  0.72261  0.57652  0.34205  1.0000
  C   C1111     1.0  0.57330  0.65591  0.47584  1.0000
  C   C1112     1.0  0.91436  0.57300  0.34048  1.0000
  C   C1113     1.0  0.93719  0.59024  0.28214  1.0000
  H   H1971     1.0  0.81469  0.64628  0.25529  1.0000
  H   H1972     1.0  0.67124  0.62216  0.37431  1.0000
  H   H1973     1.0  0.50170  0.56114  0.31644  1.0000
  H   H1974     1.0  0.49576  0.51535  0.30080  1.0000
  H   H1975     1.0  0.91928  0.59898  0.30582  1.0000
  H   H1976     1.0  0.63124  0.52681  0.37082  1.0000
  H   H1977     1.0  0.76762  0.57787  0.29186  1.0000
  H   H1978     1.0  0.94534  0.57278  0.36037  1.0000
  H   H1979     1.0  0.87554  0.70643  0.30340  1.0000
  C   C1114     1.0  0.60049  0.52413  0.48543  1.0000
  H   H1980     1.0  0.74469  0.65571  0.24584  1.0000
  H   H1981     1.0  0.83021  0.55197  0.29469  1.0000
  C   C1115     1.0  0.73186  0.62066  0.47099  1.0000
  C   C1116     1.0  0.89965  0.50325  0.30044  1.0000
  H   H1982     1.0  0.89602  0.71908  0.33427  1.0000
  H   H1983     1.0  0.51675  0.54300  0.45392  1.0000
  C   C1117     1.0  0.69667  0.53029  0.47904  1.0000
  H   H1984     1.0  0.66575  0.49230  0.44813  1.0000
  H   H1985     1.0  0.84088  0.70888  0.24642  1.0000
  H   H1986     1.0  0.63335  0.49490  0.45155  1.0000
  H   H1987     1.0  0.96042  0.55172  0.47388  1.0000
  H   H1988     1.0  0.51388  0.66067  0.48167  1.0000
  C   C1118     1.0  0.49440  0.60325  0.48675  1.0000
  H   H1989     1.0  0.85849  0.68681  0.24427  1.0000
  H   H1990     1.0  0.93328  0.70722  0.47221  1.0000
  C   C1119     1.0  0.95394  0.62159  0.27894  1.0000
  S   S244      1.0  0.91277  0.62409  0.24183  1.0000
  H   H1991     1.0  0.92547  0.49965  0.48298  1.0000
  H   H1992     1.0  0.82431  0.49467  0.35737  1.0000
  H   H1993     1.0  0.93366  0.49680  0.45994  1.0000
  H   H1994     1.0  0.92775  0.50904  0.24568  1.0000
  H   H1995     1.0  0.88131  0.50123  0.47278  1.0000
  C   C1120     1.0  0.49130  0.64941  0.48467  1.0000
  H   H1996     1.0  0.97280  0.63105  0.28820  1.0000
  H   H1997     1.0  0.48917  0.82752  0.48714  1.0000
  H   H1998     1.0  0.58572  0.53282  0.48138  1.0000
  H   H1999     1.0  0.97891  0.57733  0.45741  1.0000
  C   C1121     1.0  0.64991  0.52937  0.48170  1.0000
  C   C1122     1.0  0.87602  0.49033  0.41207  1.0000
  H   H2000     1.0  0.50012  0.49080  0.27440  1.0000
  C   C1123     1.0  0.91634  0.49094  0.46939  1.0000
  Fe  Fe121     1.0  0.53178  0.71140  0.56157  1.0000
  S   S245      1.0  0.55944  0.69269  0.57304  1.0000
  S   S246      1.0  0.54875  0.75840  0.56828  1.0000
  H   H2001     1.0  0.51073  0.75935  0.53905  1.0000
  S   S247      1.0  0.51039  0.63189  0.56103  1.0000
  C   C1124     1.0  0.58387  0.76675  0.68964  1.0000
  Fe  Fe122     1.0  0.51998  0.66111  0.58531  1.0000
  S   S248      1.0  0.50913  0.64331  0.61372  1.0000
  Fe  Fe123     1.0  0.54715  0.66524  0.54742  1.0000
  S   S249      1.0  0.57389  0.64927  0.53116  1.0000
  C   C1125     1.0  0.65683  0.90761  0.53091  1.0000
  S   S250      1.0  0.52251  0.68629  0.53526  1.0000
  Fe  Fe124     1.0  0.54221  0.67787  0.72078  1.0000
  H   H2002     1.0  0.67887  0.91840  0.50575  1.0000
  S   S251      1.0  0.56250  0.68762  0.69327  1.0000
  Fe  Fe125     1.0  0.51821  0.94545  0.56436  1.0000
  C   C1126     1.0  0.61027  0.76216  0.68981  1.0000
  H   H2003     1.0  0.64822  0.92288  0.52902  1.0000
  Fe  Fe126     1.0  0.53229  0.89706  0.55603  1.0000
  S   S252      1.0  0.57706  0.92277  0.56533  1.0000
  S   S253      1.0  0.51418  0.85308  0.54329  1.0000
  Fe  Fe127     1.0  0.55949  0.93607  0.58901  1.0000
  S   S254      1.0  0.57243  0.92895  0.61760  1.0000
  Fe  Fe128     1.0  0.57503  0.95832  0.54981  1.0000
  H   H2004     1.0  0.51037  0.85932  0.49992  1.0000
  S   S255      1.0  0.51453  0.90839  0.58010  1.0000
  S   S256      1.0  0.53119  0.93152  0.53918  1.0000
  Fe  Fe129     1.0  0.55248  0.94135  0.72362  1.0000
  S   S257      1.0  0.51719  0.89791  0.72451  1.0000
  H   H2005     1.0  0.48606  0.63103  0.64894  1.0000
  C   C1127     1.0  0.56685  0.93911  0.63959  1.0000
  C   C1128     1.0  0.55081  0.84612  0.67306  1.0000
  H   H2006     1.0  0.69364  0.90342  0.52231  1.0000
  C   C1129     1.0  0.56081  0.95485  0.67546  1.0000
  C   C1130     1.0  0.56139  0.92922  0.67190  1.0000
  C   C1131     1.0  0.56459  0.92155  0.65413  1.0000
  H   H2007     1.0  0.55987  0.91552  0.68290  1.0000
  H   H2008     1.0  0.56561  0.90199  0.65164  1.0000
  C   C1132     1.0  0.56933  0.65919  0.49436  1.0000
  C   C1133     1.0  0.53549  0.78256  0.56239  1.0000
  C   C1134     1.0  0.54489  0.80776  0.57261  1.0000
  C   C1135     1.0  0.53755  0.82906  0.56737  1.0000
  C   C1136     1.0  0.52119  0.82562  0.55159  1.0000
  C   C1137     1.0  0.51108  0.80012  0.54163  1.0000
  C   C1138     1.0  0.51803  0.77859  0.54706  1.0000
  H   H2009     1.0  0.55835  0.81100  0.58451  1.0000
  H   H2010     1.0  0.54517  0.84840  0.57531  1.0000
  H   H2011     1.0  0.56341  0.77717  0.52624  1.0000
  H   H2012     1.0  0.56452  0.80276  0.72150  1.0000
  C   C1139     1.0  0.52373  0.65784  0.63559  1.0000
  C   C1140     1.0  0.55142  0.67851  0.63835  1.0000
  C   C1141     1.0  0.56288  0.68734  0.65604  1.0000
  C   C1142     1.0  0.54678  0.67600  0.67123  1.0000
  C   C1143     1.0  0.51885  0.65594  0.66846  1.0000
  C   C1144     1.0  0.50751  0.64684  0.65079  1.0000
  H   H2013     1.0  0.56428  0.68707  0.62687  1.0000
  H   H2014     1.0  0.58453  0.70282  0.65796  1.0000
  H   H2015     1.0  0.50611  0.64712  0.67995  1.0000
  C   C1145     1.0  0.53699  0.81465  0.66841  1.0000
  H   H2016     1.0  0.56837  0.75073  0.69824  1.0000
  C   C1146     1.0  0.59202  0.63006  0.50173  1.0000
  C   C1147     1.0  0.57870  0.64632  0.50750  1.0000
  C   C1148     1.0  0.50672  0.97682  0.62340  1.0000
  H   H2017     1.0  0.59941  0.61997  0.51168  1.0000
  C   C1149     1.0  0.48572  0.85701  0.62002  1.0000
  H   H2018     1.0  0.67326  0.49893  0.49881  1.0000
  C   C1150     1.0  0.95743  0.64683  0.51109  1.0000
  C   C1151     1.0  0.56604  0.96462  0.64314  1.0000
  C   C1152     1.0  0.48380  0.91249  0.68186  1.0000
  H   H2019     1.0  0.63733  0.90778  0.58140  1.0000
  H   H2020     1.0  0.51799  0.98328  0.63675  1.0000
  H   H2021     1.0  0.52618  0.71996  0.61106  1.0000
  H   H2022     1.0  0.56870  0.97880  0.63228  1.0000
  C   C1153     1.0  0.61886  0.86796  0.56608  1.0000
  C   C1154     1.0  0.50769  0.58519  0.51358  1.0000
  H   H2023     1.0  0.57061  0.81792  0.50717  1.0000
  H   H2024     1.0  0.96753  0.78429  0.50945  1.0000
  H   H2025     1.0  0.52993  0.55493  0.54825  1.0000
  H   H2026     1.0  0.60022  0.78595  0.52510  1.0000
  C   C1155     1.0  0.63551  0.87723  0.52497  1.0000
  H   H2027     1.0  0.49391  0.93467  0.68686  1.0000
  H   H2028     1.0  0.60369  0.52605  0.50033  1.0000
  C   C1156     1.0  0.55777  0.80188  0.67222  1.0000
  H   H2029     1.0  0.59002  0.78775  0.69587  1.0000
  H   H2030     1.0  0.60761  0.82728  0.50651  1.0000
  C   C1157     1.0  0.98066  0.56841  0.54378  1.0000
  H   H2031     1.0  0.50185  0.59816  0.52282  1.0000
  H   H2032     1.0  0.52980  0.81189  0.65402  1.0000
  C   C1158     1.0  0.97206  0.57689  0.56143  1.0000
  C   C1159     1.0  0.52943  0.76771  0.73226  1.0000
  H   H2033     1.0  0.53208  0.57324  0.64922  1.0000
  C   C1160     1.0  0.54546  0.79619  0.72880  1.0000
  H   H2034     1.0  0.48731  0.55058  0.53181  1.0000
  H   H2035     1.0  0.61436  0.91374  0.50827  1.0000
  H   H2036     1.0  0.97283  0.56467  0.50613  1.0000
  C   C1161     1.0  0.57195  0.90778  0.50600  1.0000
  H   H2037     1.0  0.61598  0.90106  0.55095  1.0000
  N   N63       1.0  0.54711  0.77101  0.66743  1.0000
  C   C1162     1.0  0.59536  0.90425  0.51638  1.0000
  H   H2038     1.0  0.60217  0.88385  0.58752  1.0000
  H   H2039     1.0  0.94234  0.68664  0.55130  1.0000
  C   C1163     1.0  0.93505  0.63726  0.49793  1.0000
  H   H2040     1.0  0.49887  0.71528  0.66453  1.0000
  C   C1164     1.0  0.51539  0.58018  0.64729  1.0000
  H   H2041     1.0  0.69870  0.93906  0.52520  1.0000
  C   C1165     1.0  0.97280  0.77857  0.52291  1.0000
  H   H2042     1.0  0.60755  0.82862  0.54169  1.0000
  C   C1166     1.0  0.51048  0.72242  0.67772  1.0000
  H   H2043     1.0  0.51835  0.80486  0.67679  1.0000
  H   H2044     1.0  0.53056  0.76081  0.69400  1.0000
  H   H2045     1.0  0.49111  0.53779  0.49014  1.0000
  S   S258      1.0  0.48705  0.96325  0.56209  1.0000
  H   H2046     1.0  0.56118  0.74750  0.63468  1.0000
  S   S259      1.0  0.55733  0.96590  0.69767  1.0000
  H   H2047     1.0  0.50679  0.58097  0.66062  1.0000
  H   H2048     1.0  0.72226  0.50390  0.49943  1.0000
  H   H2049     1.0  0.66296  0.90849  0.54542  1.0000
  H   H2050     1.0  0.52509  0.60165  0.64182  1.0000
  H   H2051     1.0  0.63150  0.87743  0.59441  1.0000
  H   H2052     1.0  0.70903  0.54331  0.49099  1.0000
  C   C1167     1.0  0.53683  0.76630  0.64781  1.0000
  H   H2053     1.0  0.60598  0.74189  0.68299  1.0000
  H   H2054     1.0  0.50584  0.76009  0.67736  1.0000
  H   H2055     1.0  0.52983  0.72200  0.64418  1.0000
  C   C1168     1.0  0.53714  0.81626  0.73488  1.0000
  C   C1169     1.0  0.56302  0.97239  0.66092  1.0000
  C   C1170     1.0  0.52355  0.75471  0.67967  1.0000
  C   C1171     1.0  0.68361  0.91761  0.52036  1.0000
  H   H2056     1.0  0.96817  0.73890  0.54980  1.0000
  H   H2057     1.0  0.95358  0.71301  0.52129  1.0000
  H   H2058     1.0  0.58358  0.87198  0.55395  1.0000
  H   H2059     1.0  0.50088  0.73012  0.61998  1.0000
  H   H2060     1.0  0.63884  0.79393  0.73359  1.0000
  H   H2061     1.0  0.61755  0.76162  0.70389  1.0000
  C   C1172     1.0  0.58889  0.81804  0.51487  1.0000
  C   C1173     1.0  0.60563  0.87783  0.55048  1.0000
  H   H2062     1.0  0.49144  0.94109  0.60458  1.0000
  H   H2063     1.0  0.48481  0.53855  0.63964  1.0000
  H   H2064     1.0  0.56743  0.89675  0.49263  1.0000
  S   S260      1.0  0.61006  0.98397  0.53063  1.0000
  H   H2065     1.0  0.51469  0.76311  0.64662  1.0000
  H   H2066     1.0  0.52970  0.59910  0.51029  1.0000
  H   H2067     1.0  0.95390  0.55859  0.56673  1.0000
  Fe  Fe130     1.0  0.48614  0.65346  0.54960  1.0000
  C   C1174     1.0  0.49822  0.94532  0.61913  1.0000
  H   H2068     1.0  0.54147  0.57610  0.48963  1.0000
  C   C1175     1.0  0.53883  0.74202  0.63703  1.0000
  H   H2069     1.0  0.55925  0.67191  0.49848  1.0000
  H   H2070     1.0  0.96583  0.59400  0.55920  1.0000
  H   H2071     1.0  0.57797  0.77574  0.50489  1.0000
  C   C1176     1.0  0.50756  0.56111  0.52507  1.0000
  H   H2072     1.0  0.57726  0.81453  0.66493  1.0000
  H   H2073     1.0  0.51108  0.54552  0.51690  1.0000
  H   H2074     1.0  0.63952  0.86939  0.56251  1.0000
  C   C1177     1.0  0.52366  0.73687  0.61854  1.0000
  H   H2075     1.0  0.95312  0.64717  0.52521  1.0000
  H   H2076     1.0  0.53559  0.85477  0.67035  1.0000
  N   N64       1.0  0.60621  0.86628  0.53191  1.0000
  C   C1178     1.0  0.53077  0.57242  0.53989  1.0000
  S   S261      1.0  0.49281  0.68040  0.57455  1.0000
  H   H2077     1.0  0.59926  0.91635  0.52924  1.0000
  C   C1179     1.0  0.57146  0.76394  0.67011  1.0000
  H   H2078     1.0  0.56935  0.85741  0.66476  1.0000
  H   H2079     1.0  0.57331  0.82634  0.53957  1.0000
  H   H2080     1.0  0.97799  0.62241  0.71030  1.0000
  S   S262      1.0  0.55885  0.85178  0.73077  1.0000
  H   H2081     1.0  0.91379  0.63043  0.50217  1.0000
  C   C1180     1.0  0.59383  0.83469  0.53300  1.0000
  H   H2082     1.0  0.56563  0.74197  0.66578  1.0000
  H   H2083     1.0  0.48685  0.88172  0.51908  1.0000
  N   N65       1.0  0.48903  0.57680  0.49668  1.0000
  H   H2084     1.0  0.55258  0.89941  0.51381  1.0000
  C   C1181     1.0  0.58730  0.87283  0.51923  1.0000
  H   H2085     1.0  0.60489  0.84578  0.56913  1.0000
  H   H2086     1.0  0.55750  0.85004  0.68758  1.0000
  C   C1182     1.0  0.58224  0.78741  0.51802  1.0000
  S   S263      1.0  0.56216  0.97424  0.57454  1.0000
  C   C1183     1.0  0.97926  0.74214  0.49544  1.0000
  H   H2087     1.0  0.56364  0.80610  0.68683  1.0000
  H   H2088     1.0  0.69110  0.57817  0.48934  1.0000
  H   H2089     1.0  0.96217  0.56080  0.53428  1.0000
  H   H2090     1.0  0.52663  0.71480  0.67899  1.0000
  H   H2091     1.0  0.51301  0.90081  0.61998  1.0000
  H   H2092     1.0  0.49983  0.88762  0.64162  1.0000
  H   H2093     1.0  0.58876  0.77715  0.66128  1.0000
  H   H2094     1.0  0.56534  0.86252  0.52387  1.0000
  H   H2095     1.0  0.65480  0.53385  0.49644  1.0000
  H   H2096     1.0  0.63452  0.87585  0.50995  1.0000
  H   H2097     1.0  0.64549  0.86365  0.52926  1.0000
  H   H2098     1.0  0.57849  0.93045  0.50390  1.0000
  H   H2099     1.0  0.58651  0.86393  0.50549  1.0000
  H   H2100     1.0  0.98175  0.79740  0.55006  1.0000
  H   H2101     1.0  0.62737  0.77942  0.68287  1.0000
  H   H2102     1.0  0.54916  0.78536  0.63997  1.0000
  H   H2103     1.0  0.55174  0.58268  0.53390  1.0000
  C   C1184     1.0  0.62269  0.88539  0.58337  1.0000
  H   H2104     1.0  0.50219  0.56020  0.62122  1.0000
  H   H2105     1.0  0.96544  0.69672  0.49193  1.0000
  H   H2106     1.0  0.53265  0.75612  0.61045  1.0000
  H   H2107     1.0  0.52821  0.58798  0.54877  1.0000
  C   C1185     1.0  0.97773  0.80266  0.53616  1.0000
  H   H2108     1.0  0.49829  0.79717  0.52945  1.0000
  S   S264      1.0  0.49592  0.66120  0.72417  1.0000
  H   H2109     1.0  0.98086  0.70292  0.52220  1.0000
  H   H2110     1.0  0.51791  0.94304  0.62038  1.0000
  C   C1186     1.0  0.48938  0.70861  0.69230  1.0000
  H   H2111     1.0  0.50775  0.93045  0.65115  1.0000
  C   C1187     1.0  0.97880  0.72599  0.54585  1.0000
  H   H2112     1.0  0.95806  0.74096  0.49710  1.0000
  H   H2113     1.0  0.95880  0.80640  0.53615  1.0000
  H   H2114     1.0  0.49792  0.63231  0.50925  1.0000
  H   H2115     1.0  0.95431  0.75954  0.52710  1.0000
  H   H2116     1.0  0.50335  0.85160  0.62272  1.0000
  C   C1188     1.0  0.97630  0.72094  0.52507  1.0000
  H   H2117     1.0  0.49998  0.71426  0.70589  1.0000
  C   C1189     1.0  0.48998  0.84750  0.49238  1.0000
  C   C1190     1.0  0.96487  0.69824  0.55559  1.0000
  H   H2118     1.0  0.49015  0.95110  0.65481  1.0000
  C   C1191     1.0  0.48576  0.62415  0.49633  1.0000
  S   S265      1.0  0.58436  0.92986  0.73681  1.0000
  H   H2119     1.0  0.48540  0.66417  0.49204  1.0000
  C   C1192     1.0  0.49411  0.88689  0.62706  1.0000
  C   C1193     1.0  0.49234  0.55989  0.63419  1.0000
  H   H2120     1.0  0.96643  0.70239  0.57038  1.0000
  C   C1194     1.0  0.48663  0.92990  0.64999  1.0000
  H   H2121     1.0  0.53593  0.75251  0.72731  1.0000
  H   H2122     1.0  0.50038  0.90543  0.68027  1.0000
  H   H2123     1.0  0.97976  0.58936  0.71026  1.0000
  H   H2124     1.0  0.97556  0.68492  0.55268  1.0000
  H   H2125     1.0  0.48822  0.98119  0.62342  1.0000
  H   H2126     1.0  0.60214  0.76943  0.73296  1.0000
  H   H2127     1.0  0.98099  0.52942  0.52015  1.0000
  H   H2128     1.0  0.65934  0.80889  0.93274  1.0000
  S   S266      1.0  0.94525  0.80054  0.92254  1.0000
  H   H2129     1.0  0.50007  0.92747  0.84501  1.0000
  C   C1195     1.0  0.73658  0.71221  0.84261  1.0000
  H   H2130     1.0  0.84483  0.76824  0.94376  1.0000
  H   H2131     1.0  0.72682  0.74682  0.84069  1.0000
  Fe  Fe131     1.0  0.92324  0.77123  0.89893  1.0000
  S   S267      1.0  0.87567  0.75085  0.89317  1.0000
  S   S268      1.0  0.94109  0.74098  0.90585  1.0000
  Fe  Fe132     1.0  0.74667  0.78831  0.88846  1.0000
  S   S269      1.0  0.71875  0.74433  0.89632  1.0000
  S   S270      1.0  0.79200  0.80561  0.88004  1.0000
  Fe  Fe133     1.0  0.70334  0.80848  0.89843  1.0000
  S   S271      1.0  0.67262  0.76575  0.90720  1.0000
  S   S272      1.0  0.68955  0.84248  0.90232  1.0000
  Fe  Fe134     1.0  0.71012  0.76413  0.92109  1.0000
  S   S273      1.0  0.72112  0.75534  0.94983  1.0000
  Fe  Fe135     1.0  0.68377  0.75027  0.88145  1.0000
  S   S274      1.0  0.65048  0.71631  0.86223  1.0000
  S   S275      1.0  0.73988  0.80780  0.91360  1.0000
  S   S276      1.0  0.71254  0.79334  0.87227  1.0000
  Fe  Fe136     1.0  0.55602  0.68704  0.76287  1.0000
  S   S277      1.0  0.50996  0.67027  0.76834  1.0000
  S   S278      1.0  0.59230  0.71279  0.78376  1.0000
  H   H2132     1.0  0.60084  0.98740  0.84867  1.0000
  H   H2133     1.0  0.77274  0.91716  0.94199  1.0000
  H   H2134     1.0  0.65523  0.89794  0.94826  1.0000
  C   C1196     1.0  0.60975  0.76347  0.93290  1.0000
  C   C1197     1.0  0.80170  0.90786  0.92727  1.0000
  C   C1198     1.0  0.81881  0.98722  0.95702  1.0000
  S   S279      1.0  0.76334  0.96973  0.88313  1.0000
  Fe  Fe137     1.0  0.57241  0.94024  0.76394  1.0000
  S   S280      1.0  0.53785  0.89641  0.76668  1.0000
  H   H2135     1.0  0.72877  0.81398  0.82794  1.0000
  N   N66       1.0  0.79976  0.75151  0.94553  1.0000
  H   H2136     1.0  0.59525  0.77806  0.80260  1.0000
  Fe  Fe138     1.0  0.50957  0.91159  0.75177  1.0000
  C   C1199     1.0  0.76402  0.80555  0.83588  1.0000
  H   H2137     1.0  0.54110  0.78911  0.77413  1.0000
  H   H2138     1.0  0.87919  0.73830  0.98030  1.0000
  C   C1200     1.0  0.68130  0.75153  0.97479  1.0000
  H   H2139     1.0  0.78684  0.81833  0.83894  1.0000
  H   H2140     1.0  0.75612  0.85670  0.96732  1.0000
  H   H2141     1.0  0.71277  0.81403  0.97186  1.0000
  H   H2142     1.0  0.53494  0.96228  0.82222  1.0000
  C   C1201     1.0  0.77188  0.91031  0.98779  1.0000
  H   H2143     1.0  0.64051  0.80348  0.79035  1.0000
  C   C1202     1.0  0.74659  0.74436  0.84140  1.0000
  C   C1203     1.0  0.50633  0.90913  0.80831  1.0000
  H   H2144     1.0  0.78159  0.93306  0.98508  1.0000
  C   C1204     1.0  0.49112  0.59793  0.82565  1.0000
  C   C1205     1.0  0.71011  0.87704  0.89550  1.0000
  C   C1206     1.0  0.73819  0.88660  0.89109  1.0000
  C   C1207     1.0  0.75424  0.91494  0.88680  1.0000
  C   C1208     1.0  0.74225  0.93371  0.88681  1.0000
  C   C1209     1.0  0.71395  0.92374  0.89062  1.0000
  C   C1210     1.0  0.69806  0.89566  0.89513  1.0000
  H   H2145     1.0  0.74757  0.87228  0.89118  1.0000
  H   H2146     1.0  0.77604  0.92238  0.88363  1.0000
  H   H2147     1.0  0.70415  0.93758  0.89004  1.0000
  H   H2148     1.0  0.67623  0.88829  0.89819  1.0000
  C   C1211     1.0  0.63427  0.71624  0.84054  1.0000
  C   C1212     1.0  0.61127  0.69141  0.83395  1.0000
  C   C1213     1.0  0.59803  0.68999  0.81684  1.0000
  C   C1214     1.0  0.60775  0.71334  0.80579  1.0000
  C   C1215     1.0  0.63083  0.73815  0.81234  1.0000
  C   C1216     1.0  0.64386  0.73970  0.82956  1.0000
  H   H2149     1.0  0.60361  0.67305  0.84218  1.0000
  H   H2150     1.0  0.58048  0.67075  0.81212  1.0000
  H   H2151     1.0  0.63877  0.75633  0.80396  1.0000
  H   H2152     1.0  0.66151  0.75896  0.83425  1.0000
  H   H2153     1.0  0.51918  0.91886  0.79659  1.0000
  C   C1217     1.0  0.81697  0.82813  0.93181  1.0000
  H   H2154     1.0  0.57167  0.77484  0.75703  1.0000
  C   C1218     1.0  0.50507  0.75901  0.74200  1.0000
  H   H2155     1.0  0.61776  0.88828  0.78202  1.0000
  C   C1219     1.0  0.85296  0.76686  0.89020  1.0000
  C   C1220     1.0  0.82401  0.74956  0.88747  1.0000
  C   C1221     1.0  0.80505  0.76117  0.88493  1.0000
  C   C1222     1.0  0.81489  0.79027  0.88480  1.0000
  C   C1223     1.0  0.84385  0.80760  0.88741  1.0000
  C   C1224     1.0  0.86280  0.79599  0.89031  1.0000
  H   H2156     1.0  0.81627  0.72701  0.88719  1.0000
  H   H2157     1.0  0.78293  0.74761  0.88258  1.0000
  H   H2158     1.0  0.85173  0.83015  0.88710  1.0000
  H   H2159     1.0  0.88505  0.80955  0.89229  1.0000
  H   H2160     1.0  0.74744  0.93532  0.92487  1.0000
  N   N67       1.0  0.76524  0.75919  0.82600  1.0000
  H   H2161     1.0  0.96186  0.65402  0.81308  1.0000
  C   C1225     1.0  0.95708  0.64830  0.82734  1.0000
  C   C1226     1.0  0.85436  0.72189  0.93891  1.0000
  H   H2162     1.0  0.49621  0.59070  0.86241  1.0000
  H   H2163     1.0  0.66654  0.74684  0.96344  1.0000
  H   H2164     1.0  0.71363  0.67775  0.86012  1.0000
  N   N68       1.0  0.66878  0.82712  0.95985  1.0000
  C   C1227     1.0  0.65762  0.84857  0.95779  1.0000
  H   H2165     1.0  0.61355  0.84149  0.77296  1.0000
  C   C1228     1.0  0.69950  0.84122  0.95557  1.0000
  H   H2166     1.0  0.81274  0.82496  0.91702  1.0000
  H   H2167     1.0  0.83530  0.84887  0.93441  1.0000
  C   C1229     1.0  0.65900  0.86080  0.93877  1.0000
  C   C1230     1.0  0.71560  0.82324  0.95833  1.0000
  H   H2168     1.0  0.68593  0.83133  0.98737  1.0000
  C   C1231     1.0  0.71670  0.94025  0.94029  1.0000
  H   H2169     1.0  0.61436  0.77299  0.91942  1.0000
  C   C1232     1.0  0.64498  0.88038  0.93820  1.0000
  C   C1233     1.0  0.50817  0.95058  0.84534  1.0000
  H   H2170     1.0  0.79496  0.71712  0.97610  1.0000
  S   S281      1.0  0.55373  0.71422  0.74042  1.0000
  H   H2171     1.0  0.83474  0.72784  0.96226  1.0000
  H   H2172     1.0  0.53117  0.60871  0.85388  1.0000
  H   H2173     1.0  0.82428  0.91735  0.92414  1.0000
  H   H2174     1.0  0.70222  0.84740  0.94124  1.0000
  H   H2175     1.0  0.70822  0.80588  0.94806  1.0000
  C   C1234     1.0  0.50515  0.59048  0.79493  1.0000
  C   C1235     1.0  0.97363  0.72781  0.83535  1.0000
  H   H2176     1.0  0.51118  0.87106  0.80456  1.0000
  H   H2177     1.0  0.68104  0.87326  0.93496  1.0000
  H   H2178     1.0  0.64798  0.84390  0.92842  1.0000
  C   C1236     1.0  0.97249  0.71650  0.81779  1.0000
  H   H2179     1.0  0.49738  0.74762  0.78482  1.0000
  H   H2180     1.0  0.61173  0.80020  0.94620  1.0000
  Fe  Fe139     1.0  0.97652  0.76614  0.88771  1.0000
  H   H2181     1.0  0.97525  0.85742  0.83860  1.0000
  H   H2182     1.0  0.82401  0.77095  0.97024  1.0000
  C   C1237     1.0  0.49642  0.77901  0.74784  1.0000
  Fe  Fe140     1.0  0.50786  0.69598  0.74502  1.0000
  H   H2183     1.0  0.58264  0.97088  0.81718  1.0000
  H   H2184     1.0  0.79118  0.77204  0.96839  1.0000
  C   C1238     1.0  0.50034  0.57750  0.83513  1.0000
  H   H2185     1.0  0.66566  0.79626  0.97960  1.0000
  H   H2186     1.0  0.51811  0.57297  0.86090  1.0000
  H   H2187     1.0  0.52044  0.91501  0.82055  1.0000
  H   H2188     1.0  0.95445  0.72452  0.84173  1.0000
  C   C1239     1.0  0.54046  0.75303  0.78746  1.0000
  C   C1240     1.0  0.51052  0.74151  0.79396  1.0000
  H   H2189     1.0  0.59270  0.76599  0.77212  1.0000
  H   H2190     1.0  0.55271  0.74693  0.79726  1.0000
  H   H2191     1.0  0.53948  0.74230  0.77436  1.0000
  H   H2192     1.0  0.78639  0.90174  0.98346  1.0000
  N   N69       1.0  0.49252  0.94986  0.81179  1.0000
  H   H2193     1.0  0.52124  0.98577  0.82810  1.0000
  H   H2194     1.0  0.51052  0.74955  0.80784  1.0000
  C   C1241     1.0  0.61511  0.80100  0.75463  1.0000
  H   H2195     1.0  0.50830  0.61962  0.82769  1.0000
  H   H2196     1.0  0.74879  0.76523  0.98482  1.0000
  H   H2197     1.0  0.74550  0.72002  0.77398  1.0000
  C   C1242     1.0  0.51536  0.96305  0.82632  1.0000
  C   C1243     1.0  0.53384  0.61707  0.79576  1.0000
  H   H2198     1.0  0.87373  0.74214  0.94003  1.0000
  C   C1244     1.0  0.89556  0.76020  0.97898  1.0000
  C   C1245     1.0  0.82334  0.80500  0.93951  1.0000
  H   H2199     1.0  0.58662  0.75189  0.93390  1.0000
  H   H2200     1.0  0.82605  0.96438  0.92687  1.0000
  H   H2201     1.0  0.64688  0.88938  0.92459  1.0000
  H   H2202     1.0  0.62591  0.76652  0.74984  1.0000
  C   C1246     1.0  0.75825  0.73968  0.80967  1.0000
  C   C1247     1.0  0.51214  0.58822  0.85424  1.0000
  S   S282      1.0  0.70428  0.98616  0.90333  1.0000
  H   H2203     1.0  0.82814  0.80965  0.95415  1.0000
  H   H2204     1.0  0.66921  0.86658  0.96743  1.0000
  Fe  Fe141     1.0  0.54840  0.88702  0.73917  1.0000
  C   C1248     1.0  0.65417  0.80239  0.94688  1.0000
  C   C1249     1.0  0.62061  0.97051  0.80867  1.0000
  N   N70       1.0  0.79892  0.97804  0.94069  1.0000
  H   H2205     1.0  0.58489  0.87750  0.76937  1.0000
  C   C1250     1.0  0.64810  0.97580  0.81441  1.0000
  C   C1251     1.0  0.62194  0.78618  0.94784  1.0000
  C   C1252     1.0  0.80169  0.75842  0.96557  1.0000
  C   C1253     1.0  0.61410  0.98404  0.83917  1.0000
  H   H2206     1.0  0.76548  0.98334  0.95337  1.0000
  H   H2207     1.0  0.98088  0.81126  0.97203  1.0000
  H   H2208     1.0  0.75179  0.89961  0.97979  1.0000
  C   C1254     1.0  0.51249  0.80766  0.74436  1.0000
  C   C1255     1.0  0.97001  0.76890  0.97956  1.0000
  H   H2209     1.0  0.71063  0.86101  0.96380  1.0000
  C   C1256     1.0  0.50418  0.96277  0.79406  1.0000
  H   H2210     1.0  0.71437  0.92331  0.94965  1.0000
  H   H2211     1.0  0.50100  0.71824  0.79405  1.0000
  H   H2212     1.0  0.52831  0.95435  0.87180  1.0000
  H   H2213     1.0  0.61635  0.77545  0.96087  1.0000
  C   C1257     1.0  0.74706  0.84073  0.95623  1.0000
  H   H2214     1.0  0.48991  0.95051  0.78256  1.0000
  C   C1258     1.0  0.60366  0.97461  0.82129  1.0000
  S   S283      1.0  0.60917  0.95997  0.78552  1.0000
  H   H2215     1.0  0.53192  0.63536  0.79015  1.0000
  H   H2216     1.0  0.50951  0.57274  0.79878  1.0000
  H   H2217     1.0  0.55965  0.59569  0.79031  1.0000
  H   H2218     1.0  0.72237  0.69151  0.92239  1.0000
  H   H2219     1.0  0.76580  0.95091  0.95769  1.0000
  H   H2220     1.0  0.80929  0.78574  0.82181  1.0000
  H   H2221     1.0  0.70030  0.93128  0.92929  1.0000
  C   C1259     1.0  0.79542  0.92778  0.93924  1.0000
  H   H2222     1.0  0.77854  0.77668  0.93838  1.0000
  C   C1260     1.0  0.60023  0.79994  0.79897  1.0000
  H   H2223     1.0  0.91285  0.75957  0.97130  1.0000
  H   H2224     1.0  0.55019  0.95640  0.85332  1.0000
  H   H2225     1.0  0.74629  0.96839  0.92234  1.0000
  H   H2226     1.0  0.80758  0.93082  0.95215  1.0000
  N   N71       1.0  0.58441  0.80010  0.78177  1.0000
  H   H2227     1.0  0.75466  0.72814  0.94509  1.0000
  H   H2228     1.0  0.76475  0.72383  0.97651  1.0000
  H   H2229     1.0  0.75112  0.85126  0.94308  1.0000
  H   H2230     1.0  0.63858  0.79659  0.82365  1.0000
  C   C1261     1.0  0.59008  0.78415  0.76669  1.0000
  C   C1262     1.0  0.53414  0.96264  0.85810  1.0000
  H   H2231     1.0  0.97664  0.82530  0.84442  1.0000
  C   C1263     1.0  0.65846  0.98498  0.83233  1.0000
  H   H2232     1.0  0.54754  0.60713  0.77040  1.0000
  C   C1264     1.0  0.79846  0.77554  0.93556  1.0000
  H   H2233     1.0  0.58856  0.89032  0.79235  1.0000
  C   C1265     1.0  0.55531  0.61265  0.78466  1.0000
  C   C1266     1.0  0.70895  0.75659  0.97183  1.0000
  H   H2234     1.0  0.79802  0.77215  0.92077  1.0000
  H   H2235     1.0  0.76491  0.73194  0.91232  1.0000
  H   H2236     1.0  0.56152  0.83923  0.79127  1.0000
  H   H2237     1.0  0.84923  0.71564  0.92442  1.0000
  H   H2238     1.0  0.50592  0.82304  0.74906  1.0000
  C   C1267     1.0  0.72747  0.76154  0.98688  1.0000
  C   C1268     1.0  0.66665  0.81755  0.97916  1.0000
  C   C1269     1.0  0.72170  0.70090  0.86008  1.0000
  H   H2239     1.0  0.76162  0.83664  0.81792  1.0000
  H   H2240     1.0  0.75700  0.75430  0.85461  1.0000
  H   H2241     1.0  0.75412  0.79562  0.84843  1.0000
  H   H2242     1.0  0.73650  0.71004  0.87189  1.0000
  H   H2243     1.0  0.70361  0.70584  0.86132  1.0000
  C   C1270     1.0  0.75188  0.82559  0.83032  1.0000
  H   H2244     1.0  0.61870  0.74824  0.93417  1.0000
  H   H2245     1.0  0.97768  0.65426  0.85327  1.0000
  H   H2246     1.0  0.57938  0.82853  0.76318  1.0000
  C   C1271     1.0  0.82978  0.72427  0.94756  1.0000
  H   H2247     1.0  0.84635  0.74884  0.84454  1.0000
  S   S284      1.0  0.54340  0.95604  0.75047  1.0000
  S   S285      1.0  0.54859  0.65182  0.74265  1.0000
  C   C1272     1.0  0.97771  0.79733  0.98314  1.0000
  C   C1273     1.0  0.55341  0.78539  0.78530  1.0000
  H   H2248     1.0  0.79996  0.78432  0.84445  1.0000
  H   H2249     1.0  0.59317  0.80837  0.81051  1.0000
  H   H2250     1.0  0.75418  0.70656  0.84195  1.0000
  C   C1274     1.0  0.58449  0.84791  0.78963  1.0000
  H   H2251     1.0  0.75623  0.84152  0.84131  1.0000
  Fe  Fe142     1.0  0.50207  0.63671  0.74690  1.0000
  S   S286      1.0  0.96496  0.75426  0.95712  1.0000
  H   H2252     1.0  0.54888  0.79430  0.79772  1.0000
  H   H2253     1.0  0.85865  0.70565  0.94570  1.0000
  H   H2254     1.0  0.63960  0.83079  0.82690  1.0000
  C   C1275     1.0  0.76763  0.71605  0.92051  1.0000
  H   H2255     1.0  0.78507  0.71242  0.91530  1.0000
  H   H2256     1.0  0.82574  0.74769  0.92484  1.0000
  H   H2257     1.0  0.66217  0.78657  0.94910  1.0000
  Fe  Fe143     1.0  0.96479  0.77173  0.92879  1.0000
  H   H2258     1.0  0.72130  0.70106  0.83129  1.0000
  C   C1276     1.0  0.79581  0.77110  0.83195  1.0000
  H   H2259     1.0  0.59505  0.84940  0.80298  1.0000
  H   H2260     1.0  0.84441  0.78051  0.85116  1.0000
  H   H2261     1.0  0.54334  0.98591  0.85902  1.0000
  H   H2262     1.0  0.74221  0.67147  0.92507  1.0000
  H   H2263     1.0  0.73700  0.77512  0.81539  1.0000
  H   H2264     1.0  0.67953  0.98868  0.83639  1.0000
  Fe  Fe144     1.0  0.98105  0.82114  0.90380  1.0000
  H   H2265     1.0  0.71335  0.95676  0.94761  1.0000
  C   C1277     1.0  0.59456  0.87777  0.78289  1.0000
  H   H2266     1.0  0.79654  0.88796  0.93427  1.0000
  C   C1278     1.0  0.82546  0.74894  0.93979  1.0000
  C   C1279     1.0  0.75914  0.78332  0.82074  1.0000
  H   H2267     1.0  0.95233  0.70465  0.81086  1.0000
  H   H2268     1.0  0.79747  0.73807  0.84847  1.0000
  C   C1280     1.0  0.74064  0.68876  0.91767  1.0000
  H   H2269     1.0  0.84250  0.80640  0.93310  1.0000
  C   C1281     1.0  0.77306  0.72534  0.94071  1.0000
  H   H2270     1.0  0.63467  0.81392  0.76257  1.0000
  H   H2271     1.0  0.77057  0.76865  0.78695  1.0000
  H   H2272     1.0  0.78891  0.90287  0.91445  1.0000
  H   H2273     1.0  0.85007  0.77459  0.82792  1.0000
  C   C1282     1.0  0.80354  0.95624  0.93001  1.0000
  H   H2274     1.0  0.94572  0.62511  0.82814  1.0000
  S   S287      1.0  0.95721  0.79442  0.87950  1.0000
  C   C1283     1.0  0.64559  0.81771  0.81788  1.0000
  H   H2275     1.0  0.73558  0.73173  0.80564  1.0000
  C   C1284     1.0  0.80720  0.74961  0.83625  1.0000
  H   H2276     1.0  0.79845  0.82829  0.93819  1.0000
  H   H2277     1.0  0.80319  0.73446  0.82490  1.0000
  H   H2278     1.0  0.77262  0.79533  0.80972  1.0000
  C   C1285     1.0  0.76926  0.96640  0.94698  1.0000
  C   C1286     1.0  0.83892  0.76437  0.84017  1.0000
  H   H2279     1.0  0.76100  0.72074  0.81280  1.0000
  H   H2280     1.0  0.79828  0.76102  0.79587  1.0000
  H   H2281     1.0  0.61010  0.81528  0.74604  1.0000
  C   C1287     1.0  0.76823  0.72946  0.77789  1.0000
  H   H2282     1.0  0.66884  0.82770  0.81737  1.0000
  H   H2283     1.0  0.63534  0.83981  0.96143  1.0000
  H   H2284     1.0  0.77375  0.71270  0.78252  1.0000
  H   H2285     1.0  0.62154  0.80560  0.98285  1.0000
  C   C1288     1.0  0.63262  0.81548  0.79889  1.0000
  C   C1289     1.0  0.77540  0.75209  0.79271  1.0000
  H   H2286     1.0  0.73700  0.68283  0.90309  1.0000
  H   H2287     1.0  0.94316  0.65739  0.83201  1.0000
  H   H2288     1.0  0.49540  0.63619  0.80221  1.0000
  H   H2289     1.0  0.79223  0.95198  0.91659  1.0000
  H   H2290     1.0  0.81105  0.70389  0.94510  1.0000
  H   H2291     1.0  0.78035  0.73891  0.76579  1.0000
  H   H2292     1.0  0.57528  0.63234  0.78492  1.0000
  C   C1290     1.0  0.59114  0.82950  0.77607  1.0000
  H   H2293     1.0  0.77209  0.70702  0.94813  1.0000
  H   H2294     1.0  0.64027  0.83710  0.79398  1.0000
  H   H2295     1.0  0.62232  0.86869  0.94091  1.0000
  H   H2296     1.0  0.88678  0.77237  0.97121  1.0000
  H   H2297     1.0  0.54249  0.62230  0.80983  1.0000
  C   C1291     1.0  0.74563  0.95263  0.93218  1.0000
  H   H2298     1.0  0.51694  0.57494  0.82785  1.0000
  H   H2299     1.0  0.49211  0.95580  0.85124  1.0000
  H   H2300     1.0  0.75755  0.82677  0.95678  1.0000
  H   H2301     1.0  0.81332  0.96964  0.96640  1.0000
  H   H2302     1.0  0.52419  0.96160  0.79172  1.0000
  H   H2303     1.0  0.49789  0.58603  0.78052  1.0000
  C   C1292     1.0  0.49395  0.87729  0.80564  1.0000
  C   C1293     1.0  0.78799  0.73356  0.97848  1.0000
  S   S288      1.0  0.48567  0.72345  0.74738  1.0000
  N   N72       1.0  0.48235  0.59181  0.80594  1.0000
  H   H2304     1.0  0.66150  0.97267  0.80490  1.0000
  C   C1294     1.0  0.62082  0.78144  0.74201  1.0000
  C   C1295     1.0  0.48284  0.91860  0.81010  1.0000
  C   C1296     1.0  0.64155  0.98927  0.84491  1.0000
