data_image0
_chemical_formula_structural       H2CHSC3HSFeS2FeS2FeSFeS2C8H2CHCH3CH3C7H4CH4NH2CH5CHCH4CHC2H2NH3C4H7SH2CH3C2HC2H3CH2CH6CHSCHCH2C2H2CHCH6SH6CH2C2H3CH6CH5C3HC2H5C2NC2SHCHCH15CNCFeCHCH5CNH5CH3C2HCH5FeH5CH2CH2C3H15CH4SFeS2FeS2FeSFeS3FeS2FeSFeSFeS3H2FeH2SHSHFeSHC2HCHNH2C4SHC6H4C6H4C6H5C5H2C6H7CHNC5HC4SCHCH6CH20SHC2H4C2HCH5C2HC2HCH7NH4CFeCH9SHFeC3HC2H6CHC3HCNCH3CHC2H2CHSCHNHFeH3NC12H30CHC2H2FeH2CH2CHCH2SCH2CHCH4CHCHSC2HFeCH5C2H3CH7CHC2H3C2FeH3CH2SH9C2HCH2SH6CH5C3SH5CHCFeS2FeS2FeSFeS3H2SH4SFeS2HSHFeSFeS3FeS2FeS2FeSFeS3HSH3SFe2S2FeSHFeSFeS3HCH2CH3C2H4C3H3CHNC4HCHC4HCHC9H4C6H4CH2CHC6H3C6H4C6H4C6H4C6H2CSHCH2C3H5CHCHCHC3H6CH3CH6CHC9H8SH8CHCH2C2H4CH3C2H2CH7CH5C2H6C2NH3C2H2CH3NHC3H2SH2C2H3SCHSCH8CH4CHC3HC2HNC9HC2H21CH6NC5HC4H6CH5CH2CH8CH2NSCHFeH2CHCH6CH5CH2CH3CH5CFeCH3C4HFeC2HSNH5SH2CHCHFeH4CH5C2H3CHC2H9CH2CH2NCH2CH3C2NH5CFeH4FeHSFeSH4SFeS2FeSFeS3FeS2FeS2FeSFeS3FeS2FeS2Fe2HS2HCHC6HSC8H4C6H4SCH3C6H4C6H7CHC3H3C4HCH4SHSH5CHC2HCH3CH2NC2HC2H2C2HCH2CFeC2HCH2C2H4CHCH2CH2CH2CH3NC11H27FeHCHCH2CH6C2H2CH2C2H5CHCH3CH7C2H7CH2C2H3C2H2CH5CSH2CH2NHCH7CHCH3CH3CNH5C2H3SHCH3CHC2H7CHCHCH3C2H3C2HFeCH2FeH7C2H3NCHCH2NHCHCH2CHCH5CHCH2CH3SH2SH4CH2CHCHCNCHC2FeS2FeSHFeSFeS3CHSH3FeSFeHSFeS3FeS2FeS2FeSFeS3CH2CHC6H4CHC4H4C2H6SHC6H4C6H4C6H7CHCH2CHCH2C2H2CH4CHCFeHCHCNCHCHCHNH3CH6C2H3C3H2NH2CHC2H3NH3CHCHNH2CSHC2H6CHC2H6SH5CH3CHC3HCH4NC8HC3H15CH12CSCH2CH5C2H6C2HCH5CH2CH2CH3CFeHNHCHCHCSCHCH5CHCH2CHCHC2H2SCH2NC3H4CH7C2HCH3CH2C2HCHCHCH6CHCHC2HCH3FeHSFeSHCS2FeCSFeS2FeSCS2FeS2FeSFeSFeHS2H4S2CHC2H2C3HCH2C6H4C6H4C6H4C5H4CHC3H2CH2CHC2FeHCSH2CH3CHCH3CNHC2HCH2CH2CHCH6NSH3CH4CH3C2H2CHCH5NH2NH2CH3CH2FeH2CH3CHFeCHC2H4CHCH3CHC2H3CH8CNC12H28CH5CH4CH2CH2C4H2CH5NHCHC2H2CH2SH2CHCHCHCHSCH2CH4C3NH4CH2SH5CH2SH2SCHCSCSH2C3FeHSFeHNFeHS2HSFeS2FeSFeSCSHSFeSHFeSFeS4CH3C6H3FeC6H4C6H4CHC8H4C6H5CH3C3SHCH2CH6CHCH10C2H2CNHCH2C6H9CH2C2H3CHCHC2H4CHCH7CH3C3HFeH2C2HC2HSH3SHCH2FeHCH6CSCHCHCSH2CH4SHSH2C2H2FeCHFeHSCH7CH4NCH4C2H3CH3CH5CHNC12H20C2H7CH4SH2CNCH2NC2HCHNC2FeS2FeSCFeSFeS3HFeSH2S2HFeHSH2SHFeS2FeS2FeSFeS3CH4C6H4C3H5SNFeSCHC6H4C6H4C6H4CHNCH9CHC2H3C2H2CH6CHNH2FeH10C2H2CHC3H2SCHC2H6CH5CH2CH2C2H3CH4CH3CFeH2CHC2H3CH2C2H4CH4C5HNCH2C2HCH2C2SCHCHC3H3CHC2H4CH10NC12H28SH4CH2NH2CH3CSCH2C2HCH2CHCHCHCH3CFeH3CHC3HCH6CHC2NH5CHCHC2HFeSCFeSH2CSFeS2FeSFeS3FeS2FeS2FeSFeS3CSFeS2FeSFeSH2C2H6C6H2SC6H4C6H5C6H4C6H8C6H6NC6H15CHC3H9CH4CHFeH6C2NC12H29NHCH6C2H2CH3SH2C2H5CH2CH2SH2CH2NCH2NC2HCHCH8C4H7CHCHC2H5C2HCH6CH3CHCH3CHCHCH3CH2SHSHC2H4CH4C2HCH2C2HC2H2CNHC3HCH2CH4CHCH7CH7C2HSC2NFeH3CH2C5H2C4H2SC2H5CH8C2HCHNCHCH3CHFeS2FeS2FeSFeS3H2SFeCFeS2FeSFeHS2FeHFeS2FeS3CFeHSHCS2FeS2FeS2FeSFeS3HSCH5CNCFeH3C6H4C6H4C7H9C4H3C6H4C6H4C6H4C6H4CHC2H4CHCH5C2H6NH9CHCH2CHC6H7CH5CHCH9CH3CFeH4CH8CH4CHCH3CH4CH8CHCHCH3NC11H24CHNC10H6CH17C2H3CH3SHCH3CH6NC2HCHC4SNH8C2HSH6NCH2CH4SH4CHCH4C3H2C2HCHCH2C2HC2HC2H2NHSNH3CHSHCHCH2C2SHCH8C3H2CHC2HCH2SC2H3CHCHCH2CSHCNC2HCHCHCH2CH3C2H5CHCHCH3CHCHCHCH5C3FeH2FeS2FeSHS2HSHFe2H2C2HSHFeS2FeS2FeSFeS3FeSFeS2FeSFeS4CFeSHC7H4C6H7CSH3C4H2C6H5CHCH6CH4C6H4CH6C6HC2H4CHCH3CH8C3H2NCH2CHC2HNC12H29CHCH2CNCH2C2HCH13CHNH10NH5CHC4HCHC3H2S2H2CHC2H3CHCHCHCH7C2HNC6H16SHC3HC2H4CHCH4C3H5SHCH9C2HCH3CHCHCHCH2CH3SFeS2FeSFeS2HSHC4H5NHCSC6H3CSC2HCH4CH5CHFeC2H3C2HCHSHC2H2CNH4C4HCH16CHCHCH4CH4CHCHCH3C3H3CH5CH3C2H4CH2C2H2CSH2CHNH5CH2C3HCHSHC4H4CHCH2CH4C2H2FeH4FeS2FeS2FeSFeS3HSHFeS2FeSHFeSFeCS2H3CFeS2FeSFeSHSCSHFeSCFeS2FeS2FeSFeS4C6H4C6H4C6H6C2HCSCHC6HCH4C6H4C6H4C6H4C6H9NH3C2HCH2FeHCH3NC6HC3H13CNH8CH3C2H3CH5C2H12SC2H2C4H9CH5CHC3H3NCHC2HC2H3CH2SCH10C3SFeH9C6H3CH4CH5NC10HCH22FeH5C3H4CHCNHCHCH3CHCH2CHCH3C3H5C3HSHSHNHC2HNH2NH2C2HC2H5CH2C2H5CH2CHSH5CHSHCH3CH7C5HC6H2CHCFeHCHFeSHSHFeSHCSFeSFeSCSFeS2FeS2FeSFeS3HSFeS2FeSFeS4HSH2CHCH2C2H4C7H4C6H4C6H4C3H3C6H4CH2CHSH2CHCHCHCH2SCH3CHCH2CH3CH2CH2NC3HC5HCH8CH5CH5SHCH5SHSH4NHCH5FeCNH5NC12H30FeH2CH4CHFeCHSCH3CH3C5HC2H2C2HSH3CH3CHCH2SHCFeNC10H26NH3SC2H5CH3CHCNH4C2FeC2HCHC3H5CHCH2CHCH2SH9CFeHC2HCSCHCNH2CFeS2HCH2FeSH6SHCHC2HCH5CH2C6H2C6H5C2H7CH4SH2CHCH4CH4SC2HCHC3H5NCFeH2CHC6H7C2HC3HC3H5C2H2CHCH2SHCH9SH4CH6CH3NH3C5HCSCHFeCH4CH2NC2HCH6SH4C2H2CH2CH3CH3CFeHSFeS2FeSHS2FeS2FeSHFeSFeS3FeSFeS2FeSFeS4CH2NFeS2CH2CHC2H2C6H4C6H4C6H4C6H4C6H6C4H5C3HCHC3H12C3H4CH2CH5NC12H28CHCH4NH2FeHCH2CHCHSH2C3HC3H3CH3CHCHC2HC2H4CSHCHCH2C2H4C2H2C2H6CHCH6CH3SHNHC2HCHCH5C3H6CHCH4C3NCHC2HC3H10CHCH2C2HC2H9CH5C2HCH5C2H4CH12CH5C2H4CHCH2FeS2FeS2FeSFeS2H3CS2CSFeHSCHS2FeS2FeS2FeSFeS3H2CSH2C3HC6H4C4H3CH2C6H4C6H4C6H5C2FeHCH4CH9CH3C2HC2HNHCHNH4CH4C4H4C4H3CH6CHCH3CH3C4HCH3CHCH2CHCHC2NH21CH2C2H8CH2C2HNCH2C2HCH7CHC4HCH2CH12CHCHCHCH2NC2H2CHCHC3H8NH2CFeCHC2SHCNH9C2H7C2H4C2HC3H3CHCH4SHC4H2CH2CH3CH8CH4CH3CHC2H3CFeH5SFeSFeS2FeS3H2FeS2H4SFeS2FeCHFeS3FeS2FeS2FeSFeS3HC6H3NC6H3CH3C6HC3H3CHC6H4C6H4C6H5C2NH7CH4CH2CNC3H4FeH6SCHCH3CH5CHC4H6NC12H28NCHC2HC2H2C3H2CH6FeH6CHCH5CH3SH3CFeCH3CHCHCH2CHCHCH2CH6C3HCH2CHCNCH3CH2C2H2NC12H17CH4CH2SCH5C2HCH3CH2CH4CH2C2H3CHS2C2HCH4CH4CHNH9C2HSH10FeHC2H2FeS2FeSFeSHSFeHCH3FeS2FeS2FeSFeS3HSFeSHFeSFeSHSHSCSHCH6C6H5SH3NH2C7H3C6H4C6H4C6NH4C5H4NHNC2HC3HC5H12CH3CH8CHCH2C3HC6H3CH2C2H5NC9H22CH2CH3CHCHC3H9CH3CHNC2H3CH2CHCH2C2H4CH6SC2HSCH2FeH3CH2CH4NH2CH6CH2CHCFeHSHC4HCHCH5CH2CHCHC4HCHCSH2C3H6SCHCHSHC2SHCH2C2NH2FeCHCH11FeH5CH3C2H3FeS2FeS2FeSFeS3HSHFeSHCSH2FeS2FeS2FeS2FeSFeS3HC2H3CH3C9H4NC4HCH5CH2C7H5C6H4C6H4CH2C2H2CH3NCHCHCH2NH2CH9CHCH3CH3FeH2CH7NH4C2HC2H3CH2C3HCH3CH3CH2CH3C2H2C2SCH2CSCHCH3C3HFeCHNHCFeH2CH4CH6CH2SCHSH2C2NCH6CH4CH4CHCNC9HC2H9CH10CH7NCH2CHC2H3SH4CHC2H3CHCHCH2CH2CH10CHCHCH2CHCH5CH3CH4CH2C3H3CH6C2H2CHC2HFeH7CH2SC2HSFeS2FeS2HFeS3FeS3FeSFeS2FeS2FeSFeSFeHS2H3SH3CHC7H4C6H2C6H4C6H4CHCHC6HCH4C6H8CH6CNC4HC2H2C3H19CH13FeCH2FeCSH11CH5S2NC6HC4H26CSH6C4HSCNCH4CHC2H11NC12H16CH2CH4CH4CH3C2FeH5CHC3HFeH3S2CSFeS2CSFeSFeSHS3H2CNC6H6SC6H3CHCH3FeCH3C6H11CH4CHCH4FeHC2H12CH4C2HCH9CH2C2HC2HCH3C3H3CH5C2H5CH2FeCNHCH5C3H2CH2C2H2C2H2CHCH5CH3SHCSCH2CFeS2FeSHFeSFeSFeS2FeS2FeSFeS3FeSHFeS2FeSFeS3C2HC3HC7H5C4H3C6H9CHC6H8C7H7CNC12H28C2H2CHC4H6NHCHSH7C2H4C2H4C2H6CH3CH3C2FeH2SCH9SH4C2H7NC9HC2H20CH9FeS2CNH5CHCH2C4H2CNH2SC3H6CH3C2NHC2H2CH3C5HC2HNC2H3SCH2NH2C4H6CHC2H3CHCHC3H9C4H2CHCH5CH7C2H2CH7CHCHCSH4CFeHCH2FeS2FeS2FeSFeS4HCFeS2FeS2FeSFeS3HSHFeSFeS2FeS3HFeHSH2SHFeS2FeS2FeSFeS3CH4SHC7H4C6H6CHC6H5CHC2H2CHCHSH2NH2C7H4C6H4C6H4C6H3C3HCHCH2CSH4CNC12H28NC12H25CH3C3HCH3C2FeCSC2H2CH3CHCHCH3CH4CH12C3HCHC3HCHCH3CH3CH4CHCH2NC3H2CH2C3H5CH4C2H2CH3CH2FeHNH3CH2NC2HCH2CHCHCH4CH2CHCH5C2H2CH3CH5NHCHCH4C2HC2H3CH2CHCHCH3CH2CHCH3CH4CH4CHCH3C2H4CH2CH2CNCH2CSCNH3CH10SCH2C2H4CHNCFeH2CH3C2H7NCH3CH5CH2C
_chemical_formula_sum              "H5248 C2952 S656 Fe328 N164"
_cell_length_a       70.9857
_cell_length_b       71.4533
_cell_length_c       71.8993
_cell_angle_alpha    85.2466
_cell_angle_beta     84.2358
_cell_angle_gamma    83.9574

_space_group_name_H-M_alt    "P 1"
_space_group_IT_number       1

loop_
  _space_group_symop_operation_xyz
  'x, y, z'

loop_
  _atom_site_type_symbol
  _atom_site_label
  _atom_site_symmetry_multiplicity
  _atom_site_fract_x
  _atom_site_fract_y
  _atom_site_fract_z
  _atom_site_occupancy
  H   H1        1.0  0.09645  0.23938  0.00089  1.0000
  H   H2        1.0  0.00492  0.02228  0.12747  1.0000
  C   C1        1.0  0.48767  0.20530  0.24188  1.0000
  H   H3        1.0  0.32670  0.18513  0.01521  1.0000
  S   S1        1.0  0.38193  0.03069  0.23117  1.0000
  C   C2        1.0  0.23399  0.06113  0.99715  1.0000
  C   C3        1.0  0.00893  0.10100  0.29983  1.0000
  C   C4        1.0  0.00502  0.23834  0.00973  1.0000
  H   H4        1.0  0.39732  0.20384  0.13896  1.0000
  S   S2        1.0  0.48006  0.22527  0.16534  1.0000
  Fe  Fe1       1.0  0.44986  0.14263  0.24036  1.0000
  S   S3        1.0  0.47414  0.14922  0.25537  1.0000
  S   S4        1.0  0.43694  0.16365  0.21812  1.0000
  Fe  Fe2       1.0  0.44558  0.10574  0.26501  1.0000
  S   S5        1.0  0.46980  0.11050  0.28175  1.0000
  S   S6        1.0  0.43173  0.07867  0.27505  1.0000
  Fe  Fe3       1.0  0.45708  0.14068  0.28227  1.0000
  S   S7        1.0  0.45555  0.16262  0.30425  1.0000
  Fe  Fe4       1.0  0.48487  0.11861  0.25375  1.0000
  S   S8        1.0  0.43187  0.13557  0.26733  1.0000
  S   S9        1.0  0.46155  0.11232  0.23685  1.0000
  C   C5        1.0  0.42802  0.18513  0.08708  1.0000
  C   C6        1.0  0.29588  0.01483  0.99612  1.0000
  C   C7        1.0  0.44918  0.18030  0.20301  1.0000
  C   C8        1.0  0.43861  0.19502  0.19320  1.0000
  C   C9        1.0  0.44778  0.20887  0.18155  1.0000
  C   C10       1.0  0.46766  0.20804  0.17944  1.0000
  C   C11       1.0  0.47819  0.19329  0.18920  1.0000
  C   C12       1.0  0.46905  0.17948  0.20088  1.0000
  H   H5        1.0  0.42324  0.19584  0.19482  1.0000
  H   H6        1.0  0.43952  0.22040  0.17450  1.0000
  C   C13       1.0  0.35506  0.04956  0.28198  1.0000
  H   H7        1.0  0.47738  0.16821  0.20826  1.0000
  C   C14       1.0  0.01921  0.08072  0.30207  1.0000
  H   H8        1.0  0.02193  0.07772  0.31697  1.0000
  H   H9        1.0  0.24676  0.00454  0.26051  1.0000
  H   H10       1.0  0.03153  0.11500  0.30972  1.0000
  C   C15       1.0  0.28780  0.99902  0.10589  1.0000
  H   H11       1.0  0.01853  0.03095  0.06307  1.0000
  H   H12       1.0  0.29397  0.21665  0.01082  1.0000
  H   H13       1.0  0.44251  0.01794  0.24697  1.0000
  C   C16       1.0  0.03914  0.99980  0.08026  1.0000
  C   C17       1.0  0.39719  0.04293  0.24292  1.0000
  C   C18       1.0  0.40183  0.06081  0.23525  1.0000
  C   C19       1.0  0.41281  0.07169  0.24463  1.0000
  C   C20       1.0  0.41892  0.06500  0.26206  1.0000
  C   C21       1.0  0.41431  0.04708  0.26975  1.0000
  C   C22       1.0  0.40375  0.03596  0.26012  1.0000
  H   H14       1.0  0.39677  0.06635  0.22199  1.0000
  H   H15       1.0  0.41619  0.08545  0.23857  1.0000
  H   H16       1.0  0.41896  0.04179  0.28324  1.0000
  H   H17       1.0  0.40024  0.02228  0.26620  1.0000
  C   C23       1.0  0.00447  0.03101  0.09767  1.0000
  H   H18       1.0  0.35904  0.02101  0.31437  1.0000
  H   H19       1.0  0.44059  0.23372  0.30183  1.0000
  H   H20       1.0  0.22388  0.02521  0.00649  1.0000
  H   H21       1.0  0.00793  0.22308  0.01360  1.0000
  N   N1        1.0  0.00377  0.00630  0.07286  1.0000
  H   H22       1.0  0.31747  0.21637  0.99879  1.0000
  H   H23       1.0  0.46497  0.18896  0.23706  1.0000
  C   C24       1.0  0.23616  0.02557  0.99559  1.0000
  H   H24       1.0  0.43939  0.18055  0.26719  1.0000
  H   H25       1.0  0.41410  0.20292  0.06529  1.0000
  H   H26       1.0  0.05675  0.02692  0.30405  1.0000
  H   H27       1.0  0.31525  0.05164  0.29827  1.0000
  H   H28       1.0  0.33945  0.03558  0.25484  1.0000
  C   C25       1.0  0.30617  0.20741  0.00473  1.0000
  H   H29       1.0  0.32294  0.00452  0.03260  1.0000
  C   C26       1.0  0.45359  0.19473  0.11442  1.0000
  H   H30       1.0  0.23020  0.99907  0.02493  1.0000
  H   H31       1.0  0.49000  0.21766  0.24944  1.0000
  H   H32       1.0  0.44019  0.17943  0.15657  1.0000
  H   H33       1.0  0.43675  0.16504  0.12416  1.0000
  C   C27       1.0  0.45615  0.23068  0.29825  1.0000
  H   H34       1.0  0.42482  0.21359  0.09578  1.0000
  C   C28       1.0  0.40951  0.18393  0.26442  1.0000
  C   C29       1.0  0.40477  0.21680  0.13605  1.0000
  H   H35       1.0  0.33788  0.02466  0.06352  1.0000
  H   H36       1.0  0.30327  0.18574  0.02783  1.0000
  N   N2        1.0  0.33993  0.03593  0.28486  1.0000
  H   H37       1.0  0.43751  0.23418  0.26780  1.0000
  H   H38       1.0  0.19928  0.02181  0.32293  1.0000
  H   H39       1.0  0.31478  0.01616  0.06493  1.0000
  C   C30       1.0  0.45355  0.22678  0.22960  1.0000
  C   C31       1.0  0.36420  0.08316  0.27918  1.0000
  C   C32       1.0  0.30061  0.03066  0.32699  1.0000
  C   C33       1.0  0.39994  0.22889  0.15275  1.0000
  H   H40       1.0  0.34323  0.07351  0.26404  1.0000
  H   H41       1.0  0.05829  0.07570  0.99785  1.0000
  H   H42       1.0  0.48960  0.20928  0.22657  1.0000
  H   H43       1.0  0.03453  0.04911  0.32206  1.0000
  H   H44       1.0  0.49231  0.18093  0.11325  1.0000
  H   H45       1.0  0.49632  0.06193  0.30576  1.0000
  H   H46       1.0  0.27036  0.02198  0.03817  1.0000
  S   S10       1.0  0.00215  0.01065  0.00854  1.0000
  H   H47       1.0  0.22311  0.00890  0.25304  1.0000
  H   H48       1.0  0.00114  0.23990  0.07910  1.0000
  C   C34       1.0  0.18446  0.01863  0.32185  1.0000
  H   H49       1.0  0.35333  0.01661  0.08850  1.0000
  H   H50       1.0  0.37816  0.01749  0.29638  1.0000
  H   H51       1.0  0.00393  0.04740  0.12187  1.0000
  C   C35       1.0  0.30365  0.02903  0.24879  1.0000
  C   C36       1.0  0.36411  0.01285  0.30207  1.0000
  H   H52       1.0  0.47807  0.08064  0.31116  1.0000
  C   C37       1.0  0.35009  0.01629  0.28654  1.0000
  C   C38       1.0  0.33024  0.01577  0.03779  1.0000
  H   H53       1.0  0.33431  0.04675  0.31247  1.0000
  H   H54       1.0  0.46584  0.17728  0.13762  1.0000
  H   H55       1.0  0.48999  0.20616  0.11531  1.0000
  C   C39       1.0  0.18395  0.00517  0.30653  1.0000
  H   H56       1.0  0.00589  0.05162  0.03035  1.0000
  H   H57       1.0  0.46758  0.19041  0.26084  1.0000
  C   C40       1.0  0.35742  0.00116  0.09038  1.0000
  H   H58       1.0  0.45548  0.21763  0.21762  1.0000
  H   H59       1.0  0.22318  0.00232  0.28768  1.0000
  H   H60       1.0  0.43303  0.21005  0.14537  1.0000
  H   H61       1.0  0.42434  0.23529  0.22248  1.0000
  H   H62       1.0  0.47564  0.21433  0.27982  1.0000
  H   H63       1.0  0.36944  0.08159  0.29333  1.0000
  C   C41       1.0  0.45358  0.01481  0.25684  1.0000
  H   H64       1.0  0.16881  0.00294  0.30583  1.0000
  S   S11       1.0  0.35705  0.21990  0.00538  1.0000
  C   C42       1.0  0.34807  0.07074  0.27831  1.0000
  H   H65       1.0  0.41905  0.17845  0.06056  1.0000
  C   C43       1.0  0.31707  0.02371  0.31311  1.0000
  H   H66       1.0  0.39970  0.18551  0.07753  1.0000
  H   H67       1.0  0.00066  0.23224  0.04701  1.0000
  C   C44       1.0  0.43690  0.24203  0.22578  1.0000
  C   C45       1.0  0.31278  0.02578  0.26733  1.0000
  H   H68       1.0  0.00704  0.04375  0.26249  1.0000
  H   H69       1.0  0.46246  0.22364  0.31086  1.0000
  C   C46       1.0  0.32931  0.03820  0.26750  1.0000
  H   H70       1.0  0.35285  0.00131  0.12127  1.0000
  C   C47       1.0  0.46575  0.03143  0.25495  1.0000
  H   H71       1.0  0.32278  0.02963  0.03334  1.0000
  H   H72       1.0  0.41264  0.17420  0.12711  1.0000
  H   H73       1.0  0.39889  0.22486  0.12368  1.0000
  H   H74       1.0  0.04312  0.01276  0.07190  1.0000
  H   H75       1.0  0.46346  0.20237  0.14064  1.0000
  H   H76       1.0  0.40642  0.17412  0.27690  1.0000
  S   S12       1.0  0.41170  0.22898  0.01651  1.0000
  H   H77       1.0  0.44660  0.24760  0.19620  1.0000
  H   H78       1.0  0.28069  0.03929  0.00801  1.0000
  H   H79       1.0  0.31437  0.02633  0.23672  1.0000
  H   H80       1.0  0.44624  0.01426  0.27122  1.0000
  H   H81       1.0  0.35848  0.01303  0.27304  1.0000
  H   H82       1.0  0.35903  0.09820  0.27607  1.0000
  C   C48       1.0  0.48773  0.19229  0.12286  1.0000
  H   H83       1.0  0.26555  0.20494  0.99744  1.0000
  H   H84       1.0  0.49678  0.19032  0.13476  1.0000
  C   C49       1.0  0.31424  0.19451  0.02067  1.0000
  C   C50       1.0  0.45201  0.22724  0.26394  1.0000
  H   H85       1.0  0.49358  0.19253  0.18771  1.0000
  H   H86       1.0  0.49335  0.14486  0.32198  1.0000
  H   H87       1.0  0.47274  0.03324  0.24048  1.0000
  C   C51       1.0  0.42570  0.15446  0.15945  1.0000
  H   H88       1.0  0.28923  0.03900  0.31946  1.0000
  H   H89       1.0  0.33989  0.00543  0.28879  1.0000
  H   H90       1.0  0.29247  0.01926  0.24876  1.0000
  H   H91       1.0  0.46664  0.23427  0.22858  1.0000
  H   H92       1.0  0.36340  0.04859  0.29438  1.0000
  H   H93       1.0  0.00245  0.23186  0.29860  1.0000
  C   C52       1.0  0.46000  0.21769  0.28216  1.0000
  H   H94       1.0  0.31787  0.01066  0.26922  1.0000
  H   H95       1.0  0.36545  0.04570  0.26992  1.0000
  H   H96       1.0  0.42536  0.15360  0.17500  1.0000
  H   H97       1.0  0.03838  0.01124  0.30392  1.0000
  H   H98       1.0  0.41495  0.18359  0.15840  1.0000
  C   C53       1.0  0.43270  0.20649  0.24905  1.0000
  C   C54       1.0  0.32667  0.04047  0.30208  1.0000
  C   C55       1.0  0.43313  0.24356  0.06326  1.0000
  H   H99       1.0  0.30136  0.02942  0.27850  1.0000
  C   C56       1.0  0.42811  0.19243  0.26606  1.0000
  C   C57       1.0  0.00546  0.07122  0.27508  1.0000
  H   H100      1.0  0.45664  0.04463  0.25795  1.0000
  H   H101      1.0  0.42066  0.21777  0.24956  1.0000
  H   H102      1.0  0.32266  0.05288  0.26529  1.0000
  H   H103      1.0  0.46086  0.23910  0.25950  1.0000
  H   H104      1.0  0.44244  0.18719  0.08018  1.0000
  C   C58       1.0  0.41435  0.18823  0.07173  1.0000
  C   C59       1.0  0.42724  0.17487  0.15173  1.0000
  N   N3        1.0  0.00900  0.06546  0.29526  1.0000
  C   C60       1.0  0.39700  0.24288  0.05064  1.0000
  C   C61       1.0  0.02185  0.04718  0.29537  1.0000
  S   S13       1.0  0.47260  0.24528  0.11322  1.0000
  H   H105      1.0  0.45821  0.18301  0.10526  1.0000
  C   C62       1.0  0.27897  0.01444  0.02738  1.0000
  H   H106      1.0  0.43821  0.14517  0.15397  1.0000
  C   C63       1.0  0.49257  0.07445  0.31408  1.0000
  H   H107      1.0  0.47677  0.02924  0.26506  1.0000
  H   H108      1.0  0.42612  0.19982  0.27917  1.0000
  H   H109      1.0  0.01498  0.01667  0.04527  1.0000
  H   H110      1.0  0.00606  0.06744  0.23602  1.0000
  H   H111      1.0  0.03364  0.08107  0.29440  1.0000
  H   H112      1.0  0.43236  0.22504  0.12489  1.0000
  H   H113      1.0  0.03479  0.04888  0.28545  1.0000
  H   H114      1.0  0.01891  0.07485  0.26682  1.0000
  H   H115      1.0  0.37623  0.07930  0.26864  1.0000
  H   H116      1.0  0.00861  0.12867  0.31022  1.0000
  H   H117      1.0  0.42789  0.17033  0.09311  1.0000
  H   H118      1.0  0.32752  0.01470  0.32125  1.0000
  H   H119      1.0  0.40523  0.22138  0.16564  1.0000
  H   H120      1.0  0.28614  0.01413  0.10069  1.0000
  H   H121      1.0  0.01615  0.03311  0.32325  1.0000
  C   C64       1.0  0.46688  0.19151  0.13041  1.0000
  N   N4        1.0  0.45151  0.21484  0.24795  1.0000
  C   C65       1.0  0.04359  0.02210  0.31179  1.0000
  Fe  Fe5       1.0  0.38639  0.22932  0.99884  1.0000
  C   C66       1.0  0.01595  0.11428  0.31265  1.0000
  H   H122      1.0  0.24807  0.06033  0.00282  1.0000
  C   C67       1.0  0.46742  0.19907  0.24732  1.0000
  H   H123      1.0  0.22262  0.06054  0.00892  1.0000
  H   H124      1.0  0.39748  0.19515  0.26366  1.0000
  H   H125      1.0  0.41068  0.17584  0.25174  1.0000
  H   H126      1.0  0.34512  0.01507  0.03123  1.0000
  H   H127      1.0  0.00344  0.06221  0.05268  1.0000
  C   C68       1.0  0.42240  0.19928  0.10241  1.0000
  N   N5        1.0  0.43246  0.19551  0.12013  1.0000
  H   H128      1.0  0.45387  0.20433  0.28692  1.0000
  H   H129      1.0  0.40674  0.19943  0.10572  1.0000
  H   H130      1.0  0.44706  0.24361  0.06809  1.0000
  H   H131      1.0  0.45693  0.20799  0.10597  1.0000
  H   H132      1.0  0.29267  0.18412  0.99670  1.0000
  C   C69       1.0  0.41317  0.23730  0.03890  1.0000
  H   H133      1.0  0.03654  0.00257  0.09530  1.0000
  H   H134      1.0  0.44384  0.23318  0.03647  1.0000
  H   H135      1.0  0.41246  0.14934  0.15563  1.0000
  C   C70       1.0  0.28475  0.02431  0.01025  1.0000
  C   C71       1.0  0.42659  0.21206  0.13189  1.0000
  H   H136      1.0  0.29696  0.04375  0.24699  1.0000
  C   C72       1.0  0.42720  0.17696  0.12999  1.0000
  H   H137      1.0  0.43178  0.19921  0.23609  1.0000
  H   H138      1.0  0.18932  0.01243  0.29314  1.0000
  H   H139      1.0  0.46262  0.24413  0.29443  1.0000
  H   H140      1.0  0.38426  0.23200  0.15517  1.0000
  H   H141      1.0  0.17573  0.03207  0.31845  1.0000
  Fe  Fe6       1.0  0.37443  0.00022  0.23525  1.0000
  H   H142      1.0  0.31141  0.01444  0.30390  1.0000
  H   H143      1.0  0.33623  0.07522  0.28876  1.0000
  H   H144      1.0  0.01461  0.03575  0.29032  1.0000
  H   H145      1.0  0.01165  0.10695  0.28513  1.0000
  H   H146      1.0  0.48720  0.11234  0.31706  1.0000
  C   C73       1.0  0.00799  0.02234  0.05851  1.0000
  H   H147      1.0  0.44578  0.00573  0.22007  1.0000
  H   H148      1.0  0.31900  0.20321  0.03109  1.0000
  C   C74       1.0  0.43124  0.23768  0.04532  1.0000
  H   H149      1.0  0.00710  0.20971  0.28784  1.0000
  H   H150      1.0  0.32103  0.01306  0.09655  1.0000
  C   C75       1.0  0.38088  0.00890  0.11241  1.0000
  C   C76       1.0  0.02837  0.03872  0.31446  1.0000
  C   C77       1.0  0.32984  0.01354  0.05915  1.0000
  H   H151      1.0  0.01863  0.24719  0.32346  1.0000
  H   H152      1.0  0.37642  0.02424  0.11029  1.0000
  H   H153      1.0  0.02014  0.03050  0.09534  1.0000
  H   H154      1.0  0.24893  0.02544  0.00333  1.0000
  H   H155      1.0  0.01046  0.24651  0.02019  1.0000
  H   H156      1.0  0.38553  0.00597  0.12676  1.0000
  H   H157      1.0  0.45381  0.22389  0.00155  1.0000
  H   H158      1.0  0.39317  0.00504  0.10215  1.0000
  H   H159      1.0  0.23128  0.22051  0.99767  1.0000
  H   H160      1.0  0.38302  0.24253  0.04597  1.0000
  H   H161      1.0  0.40628  0.24250  0.14987  1.0000
  H   H162      1.0  0.36990  0.99844  0.07996  1.0000
  H   H163      1.0  0.04714  0.01540  0.32567  1.0000
  H   H164      1.0  0.99961  0.99903  0.32567  1.0000
  H   H165      1.0  0.99850  0.04361  0.08934  1.0000
  C   C78       1.0  0.99868  0.03414  0.11832  1.0000
  H   H166      1.0  0.47616  0.99848  0.24080  1.0000
  H   H167      1.0  0.99985  0.00135  0.10303  1.0000
  H   H168      1.0  0.42626  0.99844  0.19582  1.0000
  H   H169      1.0  0.25523  0.01705  0.47628  1.0000
  S   S14       1.0  0.21521  0.02237  0.40964  1.0000
  Fe  Fe7       1.0  0.24632  0.11599  0.49001  1.0000
  S   S15       1.0  0.23075  0.11864  0.46401  1.0000
  S   S16       1.0  0.22941  0.10376  0.51597  1.0000
  Fe  Fe8       1.0  0.28066  0.13456  0.46989  1.0000
  S   S17       1.0  0.26748  0.13830  0.44261  1.0000
  S   S18       1.0  0.31076  0.14090  0.47495  1.0000
  Fe  Fe9       1.0  0.24001  0.14793  0.45945  1.0000
  S   S19       1.0  0.22220  0.17342  0.44632  1.0000
  Fe  Fe10      1.0  0.25884  0.10880  0.44915  1.0000
  S   S20       1.0  0.26409  0.08828  0.42605  1.0000
  S   S21       1.0  0.25383  0.14612  0.48656  1.0000
  S   S22       1.0  0.27394  0.10416  0.47542  1.0000
  Fe  Fe11      1.0  0.39827  0.20256  0.43538  1.0000
  S   S23       1.0  0.42124  0.17967  0.44236  1.0000
  S   S24       1.0  0.36586  0.20175  0.43691  1.0000
  Fe  Fe12      1.0  0.42791  0.22955  0.41854  1.0000
  S   S25       1.0  0.45263  0.20775  0.42336  1.0000
  Fe  Fe13      1.0  0.43469  0.18705  0.41305  1.0000
  S   S26       1.0  0.44311  0.16261  0.39398  1.0000
  Fe  Fe14      1.0  0.43733  0.20246  0.45196  1.0000
  S   S27       1.0  0.44968  0.20433  0.48027  1.0000
  S   S28       1.0  0.41136  0.20931  0.40602  1.0000
  S   S29       1.0  0.41291  0.22485  0.44715  1.0000
  H   H170      1.0  0.40121  0.11538  0.35448  1.0000
  H   H171      1.0  0.41273  0.13567  0.37654  1.0000
  Fe  Fe15      1.0  0.24883  0.01997  0.64886  1.0000
  H   H172      1.0  0.08753  0.03629  0.58578  1.0000
  H   H173      1.0  0.09836  0.01364  0.59424  1.0000
  S   S30       1.0  0.21426  0.03663  0.61071  1.0000
  H   H174      1.0  0.29441  0.01833  0.33484  1.0000
  S   S31       1.0  0.24043  0.05056  0.64106  1.0000
  H   H175      1.0  0.13624  0.01079  0.62042  1.0000
  Fe  Fe16      1.0  0.24450  0.04271  0.61108  1.0000
  S   S32       1.0  0.26195  0.05733  0.58686  1.0000
  H   H176      1.0  0.38777  0.13579  0.34387  1.0000
  C   C79       1.0  0.23750  0.04963  0.50127  1.0000
  C   C80       1.0  0.07885  0.24593  0.53800  1.0000
  H   H177      1.0  0.18995  0.02737  0.54675  1.0000
  C   C81       1.0  0.36008  0.14266  0.41101  1.0000
  H   H178      1.0  0.18457  0.13135  0.47135  1.0000
  N   N6        1.0  0.10875  0.02918  0.64681  1.0000
  H   H179      1.0  0.18227  0.07927  0.38716  1.0000
  H   H180      1.0  0.39431  0.23389  0.37063  1.0000
  C   C82       1.0  0.47261  0.20465  0.48862  1.0000
  C   C83       1.0  0.49136  0.21058  0.51421  1.0000
  C   C84       1.0  0.49306  0.23278  0.41560  1.0000
  C   C85       1.0  0.47368  0.21058  0.50669  1.0000
  S   S33       1.0  0.25516  0.01258  0.61881  1.0000
  H   H181      1.0  0.46070  0.21526  0.51493  1.0000
  C   C86       1.0  0.19936  0.18435  0.45419  1.0000
  C   C87       1.0  0.19163  0.20045  0.44383  1.0000
  C   C88       1.0  0.17350  0.20947  0.44939  1.0000
  C   C89       1.0  0.16285  0.20252  0.46544  1.0000
  C   C90       1.0  0.17055  0.18636  0.47572  1.0000
  C   C91       1.0  0.18870  0.17736  0.47019  1.0000
  H   H182      1.0  0.19966  0.20589  0.43132  1.0000
  H   H183      1.0  0.16755  0.22154  0.44108  1.0000
  H   H184      1.0  0.16241  0.18078  0.48809  1.0000
  H   H185      1.0  0.19439  0.16501  0.47832  1.0000
  C   C92       1.0  0.25211  0.06833  0.56663  1.0000
  C   C93       1.0  0.23292  0.07523  0.56694  1.0000
  C   C94       1.0  0.22604  0.08558  0.55107  1.0000
  C   C95       1.0  0.23824  0.08904  0.53479  1.0000
  C   C96       1.0  0.25717  0.08126  0.53414  1.0000
  C   C97       1.0  0.26411  0.07109  0.55007  1.0000
  H   H186      1.0  0.22357  0.07323  0.57963  1.0000
  H   H187      1.0  0.21132  0.09143  0.55163  1.0000
  H   H188      1.0  0.26648  0.08336  0.52147  1.0000
  H   H189      1.0  0.27892  0.06555  0.54970  1.0000
  C   C98       1.0  0.32599  0.15757  0.46357  1.0000
  C   C99       1.0  0.31992  0.17156  0.45007  1.0000
  C   C100      1.0  0.33237  0.18481  0.44197  1.0000
  C   C101      1.0  0.35111  0.18413  0.44703  1.0000
  C   C102      1.0  0.35731  0.16990  0.46022  1.0000
  C   C103      1.0  0.34480  0.15678  0.46847  1.0000
  H   H190      1.0  0.30553  0.17237  0.44613  1.0000
  H   H191      1.0  0.32737  0.19575  0.43181  1.0000
  H   H192      1.0  0.37160  0.16925  0.46441  1.0000
  H   H193      1.0  0.34969  0.14603  0.47887  1.0000
  H   H194      1.0  0.48860  0.21802  0.58532  1.0000
  C   C104      1.0  0.44968  0.14569  0.36039  1.0000
  C   C105      1.0  0.44595  0.16291  0.36897  1.0000
  C   C106      1.0  0.44484  0.17972  0.35749  1.0000
  C   C107      1.0  0.03003  0.24612  0.33311  1.0000
  C   C108      1.0  0.22870  0.03348  0.51317  1.0000
  H   H195      1.0  0.45066  0.13259  0.36909  1.0000
  H   H196      1.0  0.44208  0.19308  0.36381  1.0000
  C   C109      1.0  0.22938  0.04019  0.41431  1.0000
  C   C110      1.0  0.22305  0.05173  0.42910  1.0000
  C   C111      1.0  0.23358  0.06637  0.43308  1.0000
  C   C112      1.0  0.25053  0.06968  0.42218  1.0000
  C   C113      1.0  0.25694  0.05802  0.40753  1.0000
  C   C114      1.0  0.24648  0.04330  0.40365  1.0000
  H   H197      1.0  0.20984  0.04941  0.43744  1.0000
  H   H198      1.0  0.22850  0.07519  0.44442  1.0000
  H   H199      1.0  0.27004  0.06046  0.39904  1.0000
  H   H200      1.0  0.25151  0.03456  0.39223  1.0000
  H   H201      1.0  0.01259  0.10944  0.32759  1.0000
  H   H202      1.0  0.16156  0.24390  0.51116  1.0000
  H   H203      1.0  0.46583  0.19444  0.58111  1.0000
  C   C115      1.0  0.33713  0.12064  0.42807  1.0000
  H   H204      1.0  0.03630  0.17061  0.64573  1.0000
  N   N7        1.0  0.19582  0.12641  0.41324  1.0000
  C   C116      1.0  0.18564  0.11164  0.40556  1.0000
  C   C117      1.0  0.18562  0.14560  0.40864  1.0000
  C   C118      1.0  0.21618  0.12494  0.40465  1.0000
  C   C119      1.0  0.19587  0.12343  0.43422  1.0000
  C   C120      1.0  0.17619  0.12202  0.44549  1.0000
  H   H205      1.0  0.09826  0.22744  0.58531  1.0000
  C   C121      1.0  0.22830  0.14058  0.40906  1.0000
  C   C122      1.0  0.18667  0.15261  0.38759  1.0000
  C   C123      1.0  0.17654  0.17248  0.38494  1.0000
  C   C124      1.0  0.17821  0.11924  0.46654  1.0000
  S   S34       1.0  0.09127  0.24477  0.47496  1.0000
  C   C125      1.0  0.24790  0.13870  0.39808  1.0000
  H   H206      1.0  0.18683  0.11335  0.38998  1.0000
  C   C126      1.0  0.12889  0.03318  0.64006  1.0000
  H   H207      1.0  0.17022  0.14575  0.41346  1.0000
  H   H208      1.0  0.19083  0.15652  0.41657  1.0000
  H   H209      1.0  0.21678  0.12445  0.38917  1.0000
  H   H210      1.0  0.22395  0.11138  0.40964  1.0000
  H   H211      1.0  0.20528  0.11053  0.43810  1.0000
  H   H212      1.0  0.20208  0.13533  0.43970  1.0000
  C   C127      1.0  0.39290  0.14043  0.43389  1.0000
  H   H213      1.0  0.16663  0.13513  0.44310  1.0000
  H   H214      1.0  0.40835  0.13486  0.45863  1.0000
  H   H215      1.0  0.36840  0.17212  0.37176  1.0000
  H   H216      1.0  0.23048  0.13940  0.42417  1.0000
  H   H217      1.0  0.22155  0.15495  0.40546  1.0000
  H   H218      1.0  0.20158  0.15319  0.38145  1.0000
  H   H219      1.0  0.17969  0.14321  0.37948  1.0000
  H   H220      1.0  0.16129  0.17267  0.39032  1.0000
  H   H221      1.0  0.18336  0.18258  0.39245  1.0000
  H   H222      1.0  0.21163  0.00969  0.44960  1.0000
  H   H223      1.0  0.36721  0.11359  0.42345  1.0000
  H   H224      1.0  0.18731  0.10600  0.46991  1.0000
  H   H225      1.0  0.48525  0.15170  0.62950  1.0000
  H   H226      1.0  0.47899  0.14213  0.58017  1.0000
  H   H227      1.0  0.18658  0.23602  0.51263  1.0000
  H   H228      1.0  0.26855  0.00572  0.43641  1.0000
  H   H229      1.0  0.24655  0.14020  0.38276  1.0000
  H   H230      1.0  0.25633  0.14996  0.40159  1.0000
  H   H231      1.0  0.25570  0.12479  0.40179  1.0000
  H   H232      1.0  0.25349  0.02286  0.52657  1.0000
  S   S35       1.0  0.05317  0.22855  0.58875  1.0000
  H   H233      1.0  0.25253  0.24726  0.48111  1.0000
  C   C128      1.0  0.40046  0.13093  0.35149  1.0000
  C   C129      1.0  0.45221  0.14524  0.34066  1.0000
  H   H234      1.0  0.46514  0.16375  0.58366  1.0000
  H   H235      1.0  0.36614  0.24047  0.39421  1.0000
  H   H236      1.0  0.16921  0.10992  0.44159  1.0000
  H   H237      1.0  0.45088  0.17712  0.55763  1.0000
  C   C130      1.0  0.45707  0.16481  0.54995  1.0000
  C   C131      1.0  0.21969  0.00072  0.53645  1.0000
  H   H238      1.0  0.46340  0.15600  0.61840  1.0000
  C   C132      1.0  0.30940  0.24239  0.41663  1.0000
  H   H239      1.0  0.35471  0.11490  0.40276  1.0000
  H   H240      1.0  0.37154  0.20532  0.39534  1.0000
  H   H241      1.0  0.16619  0.07909  0.40843  1.0000
  H   H242      1.0  0.39173  0.15579  0.43549  1.0000
  H   H243      1.0  0.20799  0.08767  0.40508  1.0000
  C   C133      1.0  0.19298  0.09079  0.41079  1.0000
  C   C134      1.0  0.47992  0.21921  0.57315  1.0000
  H   H244      1.0  0.35742  0.15039  0.42399  1.0000
  C   C135      1.0  0.38153  0.16641  0.39866  1.0000
  C   C136      1.0  0.37264  0.19842  0.38196  1.0000
  H   H245      1.0  0.16039  0.03412  0.61331  1.0000
  C   C137      1.0  0.24553  0.00305  0.55582  1.0000
  H   H246      1.0  0.45271  0.15187  0.55823  1.0000
  H   H247      1.0  0.21815  0.24486  0.48463  1.0000
  H   H248      1.0  0.01408  0.19900  0.43645  1.0000
  H   H249      1.0  0.18703  0.06237  0.40651  1.0000
  H   H250      1.0  0.35290  0.17850  0.39215  1.0000
  H   H251      1.0  0.23125  0.05190  0.48760  1.0000
  H   H252      1.0  0.38728  0.19884  0.37493  1.0000
  N   N8        1.0  0.49000  0.16580  0.56345  1.0000
  H   H253      1.0  0.10242  0.06747  0.63073  1.0000
  H   H254      1.0  0.24017  0.04176  0.53789  1.0000
  H   H255      1.0  0.33380  0.10573  0.43031  1.0000
  H   H256      1.0  0.45359  0.15371  0.52321  1.0000
  C   C138      1.0  0.21669  0.02459  0.56046  1.0000
  Fe  Fe17      1.0  0.22464  0.00681  0.61998  1.0000
  C   C139      1.0  0.09711  0.03585  0.61356  1.0000
  H   H257      1.0  0.28451  0.01038  0.57958  1.0000
  H   H258      1.0  0.49249  0.06969  0.32919  1.0000
  H   H259      1.0  0.16398  0.11831  0.47433  1.0000
  H   H260      1.0  0.41116  0.11573  0.44340  1.0000
  H   H261      1.0  0.41334  0.13432  0.34224  1.0000
  H   H262      1.0  0.49715  0.14778  0.37376  1.0000
  H   H263      1.0  0.30564  0.03943  0.33719  1.0000
  H   H264      1.0  0.99821  0.17180  0.42873  1.0000
  H   H265      1.0  0.08365  0.02024  0.63683  1.0000
  S   S36       1.0  0.02121  0.21925  0.38232  1.0000
  H   H266      1.0  0.36891  0.14091  0.37498  1.0000
  Fe  Fe18      1.0  0.22062  0.99937  0.38875  1.0000
  C   C140      1.0  0.17841  0.24247  0.48417  1.0000
  C   C141      1.0  0.44766  0.17927  0.33778  1.0000
  C   C142      1.0  0.27221  0.03493  0.45763  1.0000
  H   H267      1.0  0.03126  0.23159  0.34001  1.0000
  C   C143      1.0  0.27570  0.00188  0.57225  1.0000
  C   C144      1.0  0.16176  0.02276  0.62475  1.0000
  H   H268      1.0  0.07905  0.22052  0.55648  1.0000
  H   H269      1.0  0.48333  0.14962  0.54106  1.0000
  H   H270      1.0  0.48915  0.19425  0.46423  1.0000
  H   H271      1.0  0.43247  0.16626  0.53399  1.0000
  H   H272      1.0  0.02106  0.23317  0.43969  1.0000
  H   H273      1.0  0.36606  0.23711  0.46124  1.0000
  C   C145      1.0  0.08882  0.08188  0.65425  1.0000
  H   H274      1.0  0.38006  0.13471  0.44138  1.0000
  C   C146      1.0  0.33096  0.24289  0.41531  1.0000
  C   C147      1.0  0.39968  0.14081  0.36965  1.0000
  C   C148      1.0  0.47912  0.16367  0.54676  1.0000
  H   H275      1.0  0.47626  0.23505  0.45170  1.0000
  C   C149      1.0  0.45132  0.16207  0.32920  1.0000
  N   N9        1.0  0.22978  0.01438  0.54592  1.0000
  C   C150      1.0  0.10270  0.06615  0.64612  1.0000
  H   H276      1.0  0.42339  0.13665  0.43695  1.0000
  H   H277      1.0  0.19205  0.08756  0.42619  1.0000
  H   H278      1.0  0.45144  0.17920  0.52277  1.0000
  C   C151      1.0  0.41003  0.13132  0.44376  1.0000
  H   H279      1.0  0.04887  0.23860  0.45944  1.0000
  C   C152      1.0  0.03224  0.23294  0.39682  1.0000
  C   C153      1.0  0.23868  0.02836  0.53147  1.0000
  H   H280      1.0  0.19063  0.23337  0.47787  1.0000
  H   H281      1.0  0.07409  0.08040  0.65102  1.0000
  C   C154      1.0  0.08887  0.02629  0.59837  1.0000
  H   H282      1.0  0.20298  0.04810  0.54357  1.0000
  S   S37       1.0  0.04169  0.23622  0.64230  1.0000
  C   C155      1.0  0.44817  0.16605  0.53132  1.0000
  H   H283      1.0  0.39643  0.16906  0.39353  1.0000
  N   N10       1.0  0.37954  0.14551  0.40134  1.0000
  H   H284      1.0  0.17740  0.17724  0.36980  1.0000
  Fe  Fe19      1.0  0.12315  0.24202  0.46689  1.0000
  H   H285      1.0  0.12076  0.23319  0.59203  1.0000
  H   H286      1.0  0.10516  0.00843  0.62750  1.0000
  H   H287      1.0  0.36251  0.20644  0.37272  1.0000
  N   N11       1.0  0.28099  0.13188  0.54600  1.0000
  C   C156      1.0  0.28811  0.14908  0.53505  1.0000
  C   C157      1.0  0.26080  0.13052  0.54180  1.0000
  C   C158      1.0  0.28204  0.13370  0.56662  1.0000
  C   C159      1.0  0.29296  0.11408  0.54057  1.0000
  C   C160      1.0  0.29655  0.11150  0.51927  1.0000
  C   C161      1.0  0.30940  0.15173  0.53609  1.0000
  C   C162      1.0  0.27272  0.11843  0.58015  1.0000
  C   C163      1.0  0.24594  0.14683  0.54815  1.0000
  C   C164      1.0  0.22597  0.14345  0.54388  1.0000
  C   C165      1.0  0.30869  0.09300  0.51549  1.0000
  C   C166      1.0  0.31542  0.16830  0.52276  1.0000
  C   C167      1.0  0.27528  0.12123  0.60055  1.0000
  H   H288      1.0  0.28000  0.16214  0.54010  1.0000
  H   H289      1.0  0.28539  0.14921  0.52002  1.0000
  H   H290      1.0  0.26003  0.13000  0.52649  1.0000
  H   H291      1.0  0.25573  0.11703  0.54814  1.0000
  H   H292      1.0  0.27563  0.14783  0.57071  1.0000
  H   H293      1.0  0.29716  0.13299  0.56974  1.0000
  H   H294      1.0  0.30703  0.11297  0.54638  1.0000
  H   H295      1.0  0.28621  0.10147  0.54700  1.0000
  H   H296      1.0  0.30426  0.12300  0.51185  1.0000
  H   H297      1.0  0.28296  0.11136  0.51300  1.0000
  H   H298      1.0  0.31190  0.15473  0.55050  1.0000
  H   H299      1.0  0.31891  0.13908  0.53216  1.0000
  H   H300      1.0  0.27919  0.10403  0.57723  1.0000
  H   H301      1.0  0.25721  0.11901  0.57894  1.0000
  H   H302      1.0  0.24543  0.14821  0.56344  1.0000
  H   H303      1.0  0.24925  0.16046  0.54065  1.0000
  H   H304      1.0  0.22535  0.14309  0.52853  1.0000
  H   H305      1.0  0.22179  0.12990  0.55100  1.0000
  H   H306      1.0  0.21554  0.15505  0.54891  1.0000
  H   H307      1.0  0.31077  0.09150  0.50014  1.0000
  H   H308      1.0  0.32288  0.09296  0.52076  1.0000
  H   H309      1.0  0.30161  0.08074  0.52232  1.0000
  H   H310      1.0  0.31383  0.16562  0.50801  1.0000
  H   H311      1.0  0.30671  0.18159  0.52631  1.0000
  H   H312      1.0  0.33061  0.17010  0.52388  1.0000
  H   H313      1.0  0.26846  0.11014  0.60985  1.0000
  H   H314      1.0  0.29062  0.12002  0.60283  1.0000
  H   H315      1.0  0.26848  0.13524  0.60449  1.0000
  H   H316      1.0  0.28542  0.03037  0.46453  1.0000
  H   H317      1.0  0.48783  0.22601  0.56074  1.0000
  C   C168      1.0  0.14227  0.01650  0.63216  1.0000
  H   H318      1.0  0.49546  0.18574  0.64089  1.0000
  C   C169      1.0  0.09779  0.04646  0.65497  1.0000
  C   C170      1.0  0.36777  0.17805  0.38559  1.0000
  H   H319      1.0  0.30585  0.22765  0.42012  1.0000
  H   H320      1.0  0.32523  0.12905  0.42136  1.0000
  Fe  Fe20      1.0  0.03184  0.23646  0.61337  1.0000
  H   H321      1.0  0.40913  0.14090  0.40694  1.0000
  H   H322      1.0  0.22444  0.03478  0.56689  1.0000
  C   C171      1.0  0.47844  0.14981  0.61661  1.0000
  H   H323      1.0  0.36702  0.24099  0.42650  1.0000
  H   H324      1.0  0.04763  0.13637  0.64698  1.0000
  C   C172      1.0  0.03847  0.24093  0.47184  1.0000
  H   H325      1.0  0.05627  0.21215  0.39970  1.0000
  C   C173      1.0  0.47501  0.19981  0.56889  1.0000
  H   H326      1.0  0.44703  0.19240  0.32912  1.0000
  H   H327      1.0  0.48994  0.24651  0.48790  1.0000
  S   S38       1.0  0.00916  0.21701  0.62277  1.0000
  C   C174      1.0  0.09857  0.02252  0.63154  1.0000
  H   H328      1.0  0.25315  0.04645  0.49857  1.0000
  H   H329      1.0  0.08730  0.04858  0.61664  1.0000
  C   C175      1.0  0.18627  0.04484  0.56980  1.0000
  H   H330      1.0  0.39667  0.12073  0.41217  1.0000
  C   C176      1.0  0.05933  0.23669  0.41438  1.0000
  H   H331      1.0  0.33731  0.23340  0.40441  1.0000
  H   H332      1.0  0.17075  0.22046  0.50526  1.0000
  H   H333      1.0  0.11717  0.06875  0.64925  1.0000
  H   H334      1.0  0.17335  0.05282  0.56454  1.0000
  C   C177      1.0  0.25835  0.01973  0.46094  1.0000
  H   H335      1.0  0.24525  0.02569  0.45453  1.0000
  C   C178      1.0  0.48916  0.15963  0.59970  1.0000
  H   H336      1.0  0.33822  0.12591  0.44198  1.0000
  S   S39       1.0  0.18498  0.06085  0.65315  1.0000
  C   C179      1.0  0.48005  0.15744  0.58132  1.0000
  C   C180      1.0  0.10928  0.23755  0.58270  1.0000
  H   H337      1.0  0.49362  0.21903  0.42407  1.0000
  Fe  Fe21      1.0  0.21064  0.04179  0.64140  1.0000
  C   C181      1.0  0.39510  0.13633  0.41289  1.0000
  H   H338      1.0  0.46686  0.20194  0.55637  1.0000
  H   H339      1.0  0.49178  0.12560  0.35151  1.0000
  H   H340      1.0  0.21330  0.03773  0.51604  1.0000
  H   H341      1.0  0.30378  0.24755  0.40306  1.0000
  H   H342      1.0  0.07295  0.23120  0.41916  1.0000
  C   C182      1.0  0.19879  0.03622  0.55351  1.0000
  C   C183      1.0  0.18133  0.07714  0.40269  1.0000
  H   H343      1.0  0.12919  0.04498  0.62906  1.0000
  H   H344      1.0  0.38208  0.12106  0.38512  1.0000
  H   H345      1.0  0.34881  0.14899  0.40207  1.0000
  C   C184      1.0  0.04985  0.22594  0.40333  1.0000
  H   H346      1.0  0.22413  0.00812  0.46969  1.0000
  H   H347      1.0  0.37899  0.17282  0.41234  1.0000
  H   H348      1.0  0.23446  0.06287  0.50849  1.0000
  H   H349      1.0  0.23034  0.02113  0.50451  1.0000
  H   H350      1.0  0.08986  0.24011  0.52798  1.0000
  H   H351      1.0  0.11116  0.04011  0.60762  1.0000
  H   H352      1.0  0.47886  0.13444  0.61496  1.0000
  C   C185      1.0  0.35591  0.12183  0.41581  1.0000
  H   H353      1.0  0.08219  0.04583  0.65480  1.0000
  C   C186      1.0  0.49313  0.18618  0.56480  1.0000
  C   C187      1.0  0.48961  0.19887  0.47811  1.0000
  H   H354      1.0  0.48298  0.17425  0.53507  1.0000
  H   H355      1.0  0.33575  0.23693  0.42898  1.0000
  H   H356      1.0  0.48833  0.16076  0.35337  1.0000
  C   C188      1.0  0.38163  0.13669  0.38279  1.0000
  C   C189      1.0  0.07268  0.23486  0.55418  1.0000
  Fe  Fe22      1.0  0.01743  0.21863  0.65182  1.0000
  H   H357      1.0  0.39998  0.15612  0.36571  1.0000
  H   H358      1.0  0.24519  0.23881  0.46030  1.0000
  H   H359      1.0  0.27593  0.03804  0.44237  1.0000
  C   C190      1.0  0.25880  0.01459  0.56523  1.0000
  H   H360      1.0  0.01008  0.19410  0.58857  1.0000
  H   H361      1.0  0.26453  0.02596  0.55555  1.0000
  S   S40       1.0  0.13977  0.21309  0.47307  1.0000
  H   H362      1.0  0.17009  0.11361  0.40988  1.0000
  H   H363      1.0  0.26549  0.04821  0.46347  1.0000
  H   H364      1.0  0.01721  0.21768  0.45994  1.0000
  H   H365      1.0  0.46664  0.22840  0.57664  1.0000
  H   H366      1.0  0.48043  0.23439  0.40743  1.0000
  H   H367      1.0  0.25091  0.02108  0.57755  1.0000
  H   H368      1.0  0.18177  0.03362  0.58047  1.0000
  H   H369      1.0  0.16877  0.02798  0.63617  1.0000
  H   H370      1.0  0.49185  0.21554  0.52791  1.0000
  C   C191      1.0  0.03404  0.16189  0.65863  1.0000
  C   C192      1.0  0.01239  0.23184  0.45345  1.0000
  H   H371      1.0  0.19407  0.05477  0.57650  1.0000
  C   C193      1.0  0.17411  0.23537  0.50462  1.0000
  H   H372      1.0  0.09282  0.09584  0.64808  1.0000
  H   H373      1.0  0.13573  0.03814  0.65176  1.0000
  S   S41       1.0  0.21873  0.01151  0.65075  1.0000
  H   H374      1.0  0.11543  0.23694  0.56790  1.0000
  H   H375      1.0  0.46078  0.24629  0.47828  1.0000
  H   H376      1.0  0.07451  0.02203  0.60341  1.0000
  H   H377      1.0  0.03873  0.22784  0.48133  1.0000
  H   H378      1.0  0.21213  0.01458  0.57235  1.0000
  H   H379      1.0  0.48861  0.17475  0.60239  1.0000
  C   C194      1.0  0.05873  0.24234  0.56759  1.0000
  H   H380      1.0  0.17107  0.01062  0.61914  1.0000
  H   H381      1.0  0.16578  0.24071  0.47683  1.0000
  H   H382      1.0  0.22042  0.08292  0.65809  1.0000
  H   H383      1.0  0.20771  0.00808  0.52912  1.0000
  H   H384      1.0  0.45507  0.13189  0.33435  1.0000
  C   C195      1.0  0.26670  0.00154  0.45167  1.0000
  C   C196      1.0  0.04045  0.14245  0.65939  1.0000
  C   C197      1.0  0.21958  0.99951  0.45922  1.0000
  S   S42       1.0  0.21151  0.00187  0.35953  1.0000
  H   H385      1.0  0.17849  0.01238  0.33556  1.0000
  H   H386      1.0  0.14478  0.00499  0.64324  1.0000
  H   H387      1.0  0.42728  0.24071  0.48820  1.0000
  H   H388      1.0  0.11653  0.00008  0.65674  1.0000
  H   H389      1.0  0.00167  0.05890  0.33457  1.0000
  C   C198      1.0  0.99834  0.19947  0.43906  1.0000
  H   H390      1.0  0.00855  0.24817  0.47864  1.0000
  C   C199      1.0  0.01848  0.24657  0.46581  1.0000
  Fe  Fe23      1.0  0.13038  0.11086  0.89383  1.0000
  S   S43       1.0  0.10786  0.11791  0.91729  1.0000
  S   S44       1.0  0.16217  0.11456  0.89299  1.0000
  Fe  Fe24      1.0  0.10072  0.10125  0.86791  1.0000
  S   S45       1.0  0.07621  0.10785  0.88961  1.0000
  S   S46       1.0  0.10105  0.08575  0.84108  1.0000
  Fe  Fe25      1.0  0.09119  0.13331  0.89467  1.0000
  S   S47       1.0  0.07299  0.16154  0.89834  1.0000
  Fe  Fe26      1.0  0.09459  0.09214  0.91053  1.0000
  S   S48       1.0  0.08602  0.06893  0.93264  1.0000
  S   S49       1.0  0.11434  0.12776  0.87137  1.0000
  S   S50       1.0  0.11845  0.08414  0.88876  1.0000
  H   H391      1.0  0.10013  0.04674  0.67003  1.0000
  H   H392      1.0  0.02817  0.05979  0.87750  1.0000
  S   S51       1.0  0.35080  0.22861  0.96045  1.0000
  H   H393      1.0  0.26549  0.10108  0.85198  1.0000
  H   H394      1.0  0.38438  0.00994  0.81904  1.0000
  H   H395      1.0  0.42764  0.04106  0.77657  1.0000
  H   H396      1.0  0.33779  0.17999  0.94541  1.0000
  S   S52       1.0  0.39258  0.21150  0.97400  1.0000
  Fe  Fe27      1.0  0.35033  0.04602  0.78218  1.0000
  S   S53       1.0  0.35456  0.06267  0.75429  1.0000
  S   S54       1.0  0.34556  0.06250  0.80856  1.0000
  H   H397      1.0  0.12828  0.23249  0.98407  1.0000
  S   S55       1.0  0.36608  0.02245  0.73502  1.0000
  H   H398      1.0  0.16070  0.08532  0.92423  1.0000
  Fe  Fe28      1.0  0.38115  0.04319  0.74886  1.0000
  S   S56       1.0  0.41181  0.04943  0.73975  1.0000
  Fe  Fe29      1.0  0.33895  0.04074  0.74271  1.0000
  S   S57       1.0  0.31517  0.05150  0.72387  1.0000
  S   S58       1.0  0.37787  0.02768  0.77731  1.0000
  S   S59       1.0  0.33300  0.02553  0.77112  1.0000
  Fe  Fe30      1.0  0.25742  0.07572  0.94093  1.0000
  S   S60       1.0  0.27313  0.04756  0.93549  1.0000
  S   S61       1.0  0.22507  0.07546  0.94539  1.0000
  Fe  Fe31      1.0  0.29476  0.09413  0.93988  1.0000
  S   S62       1.0  0.31285  0.06677  0.93402  1.0000
  S   S63       1.0  0.30533  0.12384  0.93731  1.0000
  Fe  Fe32      1.0  0.29188  0.06273  0.91349  1.0000
  S   S64       1.0  0.29571  0.04728  0.88637  1.0000
  Fe  Fe33      1.0  0.29281  0.05308  0.95646  1.0000
  S   S65       1.0  0.30380  0.02657  0.97429  1.0000
  S   S66       1.0  0.27486  0.09068  0.91778  1.0000
  S   S67       1.0  0.27594  0.08066  0.96358  1.0000
  H   H399      1.0  0.18607  0.20780  0.98907  1.0000
  S   S68       1.0  0.44867  0.12774  0.73537  1.0000
  H   H400      1.0  0.18557  0.07052  0.94434  1.0000
  H   H401      1.0  0.17579  0.02542  0.67411  1.0000
  H   H402      1.0  0.01867  0.15758  0.95041  1.0000
  S   S69       1.0  0.48382  0.23364  0.90731  1.0000
  Fe  Fe34      1.0  0.48055  0.12953  0.73576  1.0000
  Fe  Fe35      1.0  0.05617  0.07518  0.74300  1.0000
  S   S70       1.0  0.07607  0.08523  0.71860  1.0000
  S   S71       1.0  0.05182  0.08996  0.77055  1.0000
  Fe  Fe36      1.0  0.04031  0.04607  0.72011  1.0000
  S   S72       1.0  0.05935  0.05435  0.69430  1.0000
  H   H403      1.0  0.03663  0.11179  0.92655  1.0000
  Fe  Fe37      1.0  0.08278  0.05458  0.71318  1.0000
  S   S73       1.0  0.11241  0.03873  0.70734  1.0000
  Fe  Fe38      1.0  0.05134  0.08468  0.70132  1.0000
  S   S74       1.0  0.04683  0.10660  0.67651  1.0000
  S   S75       1.0  0.06443  0.04449  0.73880  1.0000
  S   S76       1.0  0.03079  0.07648  0.72595  1.0000
  H   H404      1.0  0.23280  0.07893  0.72047  1.0000
  C   C200      1.0  0.25177  0.08445  0.87578  1.0000
  H   H405      1.0  0.43732  0.06577  0.79517  1.0000
  H   H406      1.0  0.11970  0.02298  0.89004  1.0000
  C   C201      1.0  0.07116  0.04036  0.84560  1.0000
  H   H407      1.0  0.27753  0.24436  0.95714  1.0000
  H   H408      1.0  0.05682  0.01735  0.89599  1.0000
  H   H409      1.0  0.23923  0.01896  0.70867  1.0000
  C   C202      1.0  0.13272  0.04546  0.69280  1.0000
  C   C203      1.0  0.13368  0.06374  0.68440  1.0000
  H   H410      1.0  0.04183  0.24056  0.89329  1.0000
  H   H411      1.0  0.31926  0.16017  0.92857  1.0000
  H   H412      1.0  0.09692  0.17709  0.95510  1.0000
  H   H413      1.0  0.12194  0.07441  0.68705  1.0000
  C   C204      1.0  0.45893  0.23811  0.91235  1.0000
  C   C205      1.0  0.03797  0.13089  0.67614  1.0000
  C   C206      1.0  0.02854  0.13894  0.69200  1.0000
  H   H414      1.0  0.08386  0.12887  0.95103  1.0000
  H   H415      1.0  0.40958  0.07297  0.77476  1.0000
  H   H416      1.0  0.22263  0.22934  0.97555  1.0000
  C   C207      1.0  0.05664  0.08058  0.98298  1.0000
  H   H417      1.0  0.02615  0.13013  0.70479  1.0000
  N   N12       1.0  0.24197  0.07012  0.86689  1.0000
  C   C208      1.0  0.02489  0.16997  0.67463  1.0000
  C   C209      1.0  0.44629  0.23843  0.97461  1.0000
  C   C210      1.0  0.28996  0.23569  0.95062  1.0000
  C   C211      1.0  0.23482  0.05469  0.90039  1.0000
  H   H418      1.0  0.35599  0.12519  0.77570  1.0000
  C   C212      1.0  0.08973  0.23227  0.85535  1.0000
  H   H419      1.0  0.48406  0.19371  0.82836  1.0000
  C   C213      1.0  0.30266  0.03920  0.70915  1.0000
  C   C214      1.0  0.28923  0.04949  0.69811  1.0000
  C   C215      1.0  0.27904  0.04040  0.68616  1.0000
  C   C216      1.0  0.28207  0.02081  0.68520  1.0000
  H   H420      1.0  0.21943  0.04706  0.97859  1.0000
  C   C217      1.0  0.30560  0.01960  0.70825  1.0000
  H   H421      1.0  0.28686  0.06465  0.69865  1.0000
  C   C218      1.0  0.02203  0.15832  0.69122  1.0000
  C   C219      1.0  0.49421  0.03947  0.74779  1.0000
  C   C220      1.0  0.23342  0.04510  0.98448  1.0000
  C   C221      1.0  0.42174  0.07140  0.73820  1.0000
  C   C222      1.0  0.41057  0.08865  0.73622  1.0000
  C   C223      1.0  0.41906  0.10576  0.73518  1.0000
  C   C224      1.0  0.43874  0.10583  0.73622  1.0000
  C   C225      1.0  0.44990  0.08856  0.73823  1.0000
  C   C226      1.0  0.44144  0.07146  0.73911  1.0000
  H   H422      1.0  0.39543  0.08881  0.73534  1.0000
  H   H423      1.0  0.41033  0.11903  0.73354  1.0000
  H   H424      1.0  0.46507  0.08837  0.73900  1.0000
  H   H425      1.0  0.45021  0.05820  0.74057  1.0000
  C   C227      1.0  0.33121  0.05826  0.82990  1.0000
  C   C228      1.0  0.31902  0.04393  0.83245  1.0000
  C   C229      1.0  0.30835  0.04074  0.84986  1.0000
  C   C230      1.0  0.30952  0.05199  0.86480  1.0000
  C   C231      1.0  0.32151  0.06650  0.86215  1.0000
  C   C232      1.0  0.33231  0.06956  0.84480  1.0000
  H   H426      1.0  0.31773  0.03546  0.82095  1.0000
  H   H427      1.0  0.29902  0.02956  0.85173  1.0000
  H   H428      1.0  0.32254  0.07528  0.87350  1.0000
  H   H429      1.0  0.34162  0.08075  0.84295  1.0000
  C   C233      1.0  0.10983  0.01352  0.66229  1.0000
  H   H430      1.0  0.36335  0.10927  0.75735  1.0000
  H   H431      1.0  0.22088  0.02870  0.90504  1.0000
  C   C234      1.0  0.18951  0.05859  0.71528  1.0000
  H   H432      1.0  0.23900  0.08643  0.67270  1.0000
  C   C235      1.0  0.34034  0.15995  0.96924  1.0000
  C   C236      1.0  0.33428  0.16637  0.95169  1.0000
  C   C237      1.0  0.32378  0.15505  0.94216  1.0000
  C   C238      1.0  0.31913  0.13715  0.94995  1.0000
  C   C239      1.0  0.32519  0.13075  0.96750  1.0000
  C   C240      1.0  0.33571  0.14207  0.97704  1.0000
  H   H433      1.0  0.39155  0.02952  0.84360  1.0000
  H   H434      1.0  0.32177  0.11708  0.97375  1.0000
  H   H435      1.0  0.24513  0.06145  0.90763  1.0000
  C   C241      1.0  0.06367  0.05979  0.93860  1.0000
  C   C242      1.0  0.06266  0.04351  0.95095  1.0000
  C   C243      1.0  0.04511  0.03621  0.95665  1.0000
  C   C244      1.0  0.02832  0.04511  0.95003  1.0000
  C   C245      1.0  0.02936  0.06132  0.93754  1.0000
  C   C246      1.0  0.04692  0.06862  0.93188  1.0000
  H   H436      1.0  0.07552  0.03658  0.95630  1.0000
  H   H437      1.0  0.18908  0.07382  0.71738  1.0000
  H   H438      1.0  0.01646  0.06826  0.93227  1.0000
  H   H439      1.0  0.04757  0.08104  0.92231  1.0000
  C   C247      1.0  0.08710  0.08734  0.82162  1.0000
  C   C248      1.0  0.07068  0.09987  0.82035  1.0000
  C   C249      1.0  0.05994  0.10023  0.80479  1.0000
  C   C250      1.0  0.06555  0.08825  0.79019  1.0000
  C   C251      1.0  0.08196  0.07571  0.79147  1.0000
  C   C252      1.0  0.09261  0.07525  0.80710  1.0000
  H   H440      1.0  0.06628  0.10928  0.83135  1.0000
  H   H441      1.0  0.04727  0.10998  0.80397  1.0000
  H   H442      1.0  0.08646  0.06638  0.78041  1.0000
  H   H443      1.0  0.10524  0.06545  0.80793  1.0000
  C   C253      1.0  0.07989  0.18229  0.90685  1.0000
  C   C254      1.0  0.06614  0.19772  0.90987  1.0000
  C   C255      1.0  0.07096  0.21437  0.91679  1.0000
  C   C256      1.0  0.08966  0.21585  0.92062  1.0000
  C   C257      1.0  0.10339  0.20042  0.91759  1.0000
  C   C258      1.0  0.09855  0.18374  0.91080  1.0000
  H   H444      1.0  0.05163  0.19674  0.90696  1.0000
  H   H445      1.0  0.06020  0.22599  0.91932  1.0000
  H   H446      1.0  0.11789  0.20135  0.92054  1.0000
  H   H447      1.0  0.10930  0.17203  0.90856  1.0000
  C   C259      1.0  0.17934  0.10350  0.90782  1.0000
  C   C260      1.0  0.19802  0.10885  0.90514  1.0000
  C   C261      1.0  0.21216  0.10047  0.91652  1.0000
  C   C262      1.0  0.20779  0.08657  0.93070  1.0000
  C   C263      1.0  0.18913  0.08121  0.93338  1.0000
  C   C264      1.0  0.17498  0.08958  0.92199  1.0000
  H   H448      1.0  0.20151  0.11970  0.89431  1.0000
  H   H449      1.0  0.22633  0.10500  0.91455  1.0000
  C   C265      1.0  0.09362  0.21085  0.85866  1.0000
  S   S77       1.0  0.09670  0.23645  0.92931  1.0000
  H   H450      1.0  0.04254  0.07715  0.97951  1.0000
  C   C266      1.0  0.22448  0.07108  0.73186  1.0000
  H   H451      1.0  0.08149  0.00302  0.66362  1.0000
  H   H452      1.0  0.25613  0.03620  0.81208  1.0000
  C   C267      1.0  0.02776  0.13676  0.90991  1.0000
  C   C268      1.0  0.05607  0.03495  0.86185  1.0000
  C   C269      1.0  0.20867  0.02936  0.70791  1.0000
  H   H453      1.0  0.24761  0.01920  0.95616  1.0000
  H   H454      1.0  0.07320  0.10376  0.98272  1.0000
  H   H455      1.0  0.47294  0.17648  0.84362  1.0000
  H   H456      1.0  0.02654  0.01370  0.92487  1.0000
  H   H457      1.0  0.26900  0.04856  0.67759  1.0000
  C   C270      1.0  0.27070  0.16465  0.95233  1.0000
  H   H458      1.0  0.47240  0.22127  0.98271  1.0000
  C   C271      1.0  0.16423  0.03620  0.67706  1.0000
  H   H459      1.0  0.08911  0.08154  0.66971  1.0000
  C   C272      1.0  0.10998  0.03603  0.88781  1.0000
  H   H460      1.0  0.44049  0.23496  0.86821  1.0000
  C   C273      1.0  0.23563  0.06988  0.74912  1.0000
  C   C274      1.0  0.14822  0.03182  0.68928  1.0000
  C   C275      1.0  0.30027  0.19582  0.98929  1.0000
  H   H461      1.0  0.01970  0.09388  0.86622  1.0000
  H   H462      1.0  0.37071  0.08334  0.78137  1.0000
  H   H463      1.0  0.24472  0.04678  0.97282  1.0000
  H   H464      1.0  0.18739  0.21054  0.96383  1.0000
  H   H465      1.0  0.23372  0.05706  0.69105  1.0000
  H   H466      1.0  0.01468  0.16436  0.70357  1.0000
  C   C276      1.0  0.29942  0.22243  0.96587  1.0000
  H   H467      1.0  0.34312  0.10507  0.77382  1.0000
  H   H468      1.0  0.03606  0.10156  0.88113  1.0000
  H   H469      1.0  0.06804  0.07277  0.97413  1.0000
  C   C277      1.0  0.04288  0.06255  0.87968  1.0000
  H   H470      1.0  0.48796  0.04699  0.73535  1.0000
  H   H471      1.0  0.02278  0.17106  0.98920  1.0000
  H   H472      1.0  0.10051  0.15632  0.97089  1.0000
  H   H473      1.0  0.04571  0.07378  0.85033  1.0000
  H   H474      1.0  0.22114  0.06372  0.90129  1.0000
  H   H475      1.0  0.27522  0.11290  0.88037  1.0000
  C   C278      1.0  0.47036  0.19091  0.83662  1.0000
  H   H476      1.0  0.27655  0.20020  0.94969  1.0000
  C   C279      1.0  0.09557  0.16168  0.95708  1.0000
  C   C280      1.0  0.26111  0.11795  0.87544  1.0000
  C   C281      1.0  0.24259  0.05226  0.87971  1.0000
  C   C282      1.0  0.25348  0.06612  0.84856  1.0000
  C   C283      1.0  0.20652  0.06440  0.86404  1.0000
  C   C284      1.0  0.24693  0.05095  0.83717  1.0000
  C   C285      1.0  0.26128  0.04679  0.82032  1.0000
  C   C286      1.0  0.18782  0.07456  0.85801  1.0000
  C   C287      1.0  0.23183  0.03571  0.91113  1.0000
  H   H477      1.0  0.25749  0.04563  0.87990  1.0000
  H   H478      1.0  0.23479  0.04146  0.87444  1.0000
  H   H479      1.0  0.25345  0.07905  0.83884  1.0000
  H   H480      1.0  0.26867  0.06196  0.85112  1.0000
  H   H481      1.0  0.20339  0.05783  0.87840  1.0000
  H   H482      1.0  0.21098  0.05288  0.85472  1.0000
  H   H483      1.0  0.24549  0.03742  0.84564  1.0000
  H   H484      1.0  0.23318  0.05616  0.83157  1.0000
  S   S78       1.0  0.00582  0.03648  0.95666  1.0000
  H   H485      1.0  0.26313  0.05982  0.81102  1.0000
  H   H486      1.0  0.27531  0.04101  0.82503  1.0000
  H   H487      1.0  0.18249  0.08592  0.86741  1.0000
  H   H488      1.0  0.18977  0.08081  0.84336  1.0000
  H   H489      1.0  0.17688  0.06442  0.85883  1.0000
  H   H490      1.0  0.24540  0.02641  0.91076  1.0000
  H   H491      1.0  0.22687  0.03802  0.92599  1.0000
  H   H492      1.0  0.29020  0.16460  0.97326  1.0000
  C   C288      1.0  0.38028  0.03481  0.83428  1.0000
  H   H493      1.0  0.43562  0.21120  0.84490  1.0000
  C   C289      1.0  0.46425  0.17681  0.80669  1.0000
  H   H494      1.0  0.01313  0.23329  0.98034  1.0000
  H   H495      1.0  0.11455  0.04329  0.87407  1.0000
  C   C290      1.0  0.05436  0.10951  0.95982  1.0000
  C   C291      1.0  0.45554  0.18884  0.82261  1.0000
  H   H496      1.0  0.33158  0.00218  0.86944  1.0000
  H   H497      1.0  0.01579  0.13018  0.90510  1.0000
  H   H498      1.0  0.07444  0.05738  0.89621  1.0000
  H   H499      1.0  0.48733  0.22271  0.83956  1.0000
  C   C292      1.0  0.42328  0.06030  0.79897  1.0000
  H   H500      1.0  0.25781  0.17300  0.94742  1.0000
  H   H501      1.0  0.04075  0.10415  0.95729  1.0000
  H   H502      1.0  0.44974  0.20257  0.81623  1.0000
  C   C293      1.0  0.02266  0.01127  0.91073  1.0000
  C   C294      1.0  0.41511  0.22141  0.87631  1.0000
  H   H503      1.0  0.47006  0.23410  0.85516  1.0000
  H   H504      1.0  0.18610  0.04961  0.74544  1.0000
  C   C295      1.0  0.37231  0.01834  0.82641  1.0000
  H   H505      1.0  0.10485  0.15470  0.94576  1.0000
  H   H506      1.0  0.41146  0.03379  0.79630  1.0000
  H   H507      1.0  0.31359  0.18897  0.98221  1.0000
  H   H508      1.0  0.26859  0.00292  0.93191  1.0000
  H   H509      1.0  0.20432  0.02166  0.72148  1.0000
  H   H510      1.0  0.21055  0.07914  0.73535  1.0000
  H   H511      1.0  0.11911  0.01698  0.67286  1.0000
  C   C296      1.0  0.22353  0.08906  0.67099  1.0000
  H   H512      1.0  0.26450  0.01910  0.97270  1.0000
  H   H513      1.0  0.42287  0.21892  0.94030  1.0000
  H   H514      1.0  0.19760  0.02775  0.69836  1.0000
  H   H515      1.0  0.08289  0.20355  0.85255  1.0000
  H   H516      1.0  0.08259  0.02133  0.67907  1.0000
  C   C297      1.0  0.01653  0.24253  0.99097  1.0000
  C   C298      1.0  0.00375  0.00852  0.71662  1.0000
  H   H517      1.0  0.06549  0.10252  0.94989  1.0000
  H   H518      1.0  0.28542  0.22779  0.93950  1.0000
  H   H519      1.0  0.26694  0.17620  0.97935  1.0000
  H   H520      1.0  0.28789  0.00648  0.94551  1.0000
  H   H521      1.0  0.23170  0.07489  0.98889  1.0000
  H   H522      1.0  0.31581  0.01147  0.71666  1.0000
  C   C299      1.0  0.27839  0.17431  0.96778  1.0000
  C   C300      1.0  0.21787  0.05929  0.69217  1.0000
  N   N13       1.0  0.46516  0.20534  0.85108  1.0000
  H   H523      1.0  0.08235  0.05748  0.87227  1.0000
  H   H524      1.0  0.05322  0.04053  0.82266  1.0000
  H   H525      1.0  0.08554  0.03392  0.84866  1.0000
  C   C301      1.0  0.46257  0.23406  0.82652  1.0000
  C   C302      1.0  0.21175  0.08068  0.68800  1.0000
  H   H526      1.0  0.43977  0.19253  0.86212  1.0000
  H   H527      1.0  0.45314  0.17457  0.79750  1.0000
  C   C303      1.0  0.06988  0.23925  0.86457  1.0000
  H   H528      1.0  0.36882  0.04346  0.84228  1.0000
  H   H529      1.0  0.18099  0.05790  0.70318  1.0000
  H   H530      1.0  0.45745  0.21287  0.93082  1.0000
  N   N14       1.0  0.20963  0.05002  0.71048  1.0000
  H   H531      1.0  0.21360  0.05243  0.68007  1.0000
  C   C304      1.0  0.03305  0.12698  0.92866  1.0000
  C   C305      1.0  0.04785  0.07821  0.86434  1.0000
  C   C306      1.0  0.03730  0.13972  0.96887  1.0000
  H   H532      1.0  0.06620  0.16605  0.96720  1.0000
  H   H533      1.0  0.40810  0.22679  0.86353  1.0000
  S   S79       1.0  0.35342  0.17369  0.98219  1.0000
  H   H534      1.0  0.04456  0.02370  0.96620  1.0000
  H   H535      1.0  0.10794  0.20611  0.85200  1.0000
  C   C307      1.0  0.01445  0.16818  0.97765  1.0000
  C   C308      1.0  0.05845  0.10176  0.98002  1.0000
  H   H536      1.0  0.19662  0.08272  0.68484  1.0000
  H   H537      1.0  0.21303  0.08908  0.69994  1.0000
  H   H538      1.0  0.15028  0.06016  0.72439  1.0000
  S   S80       1.0  0.49587  0.11553  0.75976  1.0000
  C   C309      1.0  0.44404  0.20677  0.85696  1.0000
  H   H539      1.0  0.38650  0.04401  0.82258  1.0000
  S   S81       1.0  0.26957  0.00848  0.67052  1.0000
  C   C310      1.0  0.02725  0.02784  0.89672  1.0000
  H   H540      1.0  0.34886  0.01601  0.84707  1.0000
  H   H541      1.0  0.01800  0.04043  0.90143  1.0000
  H   H542      1.0  0.25001  0.06230  0.74622  1.0000
  H   H543      1.0  0.06815  0.19925  0.76482  1.0000
  H   H544      1.0  0.45798  0.19161  0.99114  1.0000
  H   H545      1.0  0.23174  0.02393  0.68555  1.0000
  H   H546      1.0  0.25070  0.12088  0.88771  1.0000
  H   H547      1.0  0.21636  0.08826  0.87475  1.0000
  C   C311      1.0  0.16514  0.05446  0.66856  1.0000
  H   H548      1.0  0.16002  0.07503  0.73949  1.0000
  H   H549      1.0  0.26611  0.07827  0.87952  1.0000
  H   H550      1.0  0.15045  0.08241  0.66602  1.0000
  H   H551      1.0  0.21741  0.04232  0.73868  1.0000
  C   C312      1.0  0.14987  0.06822  0.67247  1.0000
  H   H552      1.0  0.04892  0.15054  0.93184  1.0000
  C   C313      1.0  0.22190  0.07839  0.86381  1.0000
  C   C314      1.0  0.28591  0.19340  0.96025  1.0000
  C   C315      1.0  0.41949  0.24488  0.92305  1.0000
  H   H553      1.0  0.47554  0.18407  0.79801  1.0000
  C   C316      1.0  0.36144  0.00646  0.84215  1.0000
  C   C317      1.0  0.44949  0.22535  0.92495  1.0000
  H   H554      1.0  0.06321  0.12967  0.92662  1.0000
  N   N15       1.0  0.07090  0.14558  0.74225  1.0000
  C   C318      1.0  0.07338  0.15148  0.72155  1.0000
  C   C319      1.0  0.06924  0.16274  0.75354  1.0000
  C   C320      1.0  0.08850  0.13296  0.74711  1.0000
  C   C321      1.0  0.05407  0.13428  0.74720  1.0000
  C   C322      1.0  0.03428  0.14432  0.74371  1.0000
  C   C323      1.0  0.07660  0.13537  0.70807  1.0000
  C   C324      1.0  0.09126  0.12906  0.76834  1.0000
  C   C325      1.0  0.05876  0.18127  0.74515  1.0000
  C   C326      1.0  0.05471  0.19604  0.75962  1.0000
  H   H555      1.0  0.02333  0.15199  0.91135  1.0000
  C   C327      1.0  0.08022  0.14328  0.68775  1.0000
  C   C328      1.0  0.10786  0.11405  0.77146  1.0000
  H   H556      1.0  0.08567  0.16014  0.71863  1.0000
  H   H557      1.0  0.06087  0.16074  0.71702  1.0000
  H   H558      1.0  0.06245  0.15936  0.76793  1.0000
  H   H559      1.0  0.08366  0.16672  0.75543  1.0000
  H   H560      1.0  0.10158  0.13899  0.74034  1.0000
  H   H561      1.0  0.08853  0.11887  0.74150  1.0000
  H   H562      1.0  0.05610  0.12100  0.73985  1.0000
  H   H563      1.0  0.05299  0.12957  0.76233  1.0000
  H   H564      1.0  0.03396  0.15067  0.72919  1.0000
  H   H565      1.0  0.03026  0.15541  0.75370  1.0000
  H   H566      1.0  0.08916  0.12543  0.71111  1.0000
  H   H567      1.0  0.06389  0.12742  0.70908  1.0000
  H   H568      1.0  0.07845  0.12404  0.77640  1.0000
  H   H569      1.0  0.09443  0.14200  0.77448  1.0000
  H   H570      1.0  0.06783  0.18737  0.73312  1.0000
  H   H571      1.0  0.04510  0.17909  0.73992  1.0000
  H   H572      1.0  0.04500  0.19092  0.77162  1.0000
  H   H573      1.0  0.06618  0.01786  0.82843  1.0000
  H   H574      1.0  0.04774  0.20927  0.75307  1.0000
  H   H575      1.0  0.21574  0.02030  0.96695  1.0000
  H   H576      1.0  0.44864  0.23516  0.95976  1.0000
  C   C329      1.0  0.23513  0.22802  0.98387  1.0000
  H   H577      1.0  0.08138  0.13162  0.67826  1.0000
  H   H578      1.0  0.29979  0.18988  0.95199  1.0000
  H   H579      1.0  0.00341  0.15873  0.98324  1.0000
  H   H580      1.0  0.10941  0.11147  0.78672  1.0000
  H   H581      1.0  0.10519  0.10052  0.76607  1.0000
  H   H582      1.0  0.12135  0.11874  0.76433  1.0000
  N   N16       1.0  0.40463  0.09363  0.79551  1.0000
  C   C330      1.0  0.39054  0.10459  0.78331  1.0000
  C   C331      1.0  0.42383  0.10138  0.79170  1.0000
  C   C332      1.0  0.40701  0.07338  0.79023  1.0000
  C   C333      1.0  0.39760  0.09347  0.81603  1.0000
  C   C334      1.0  0.39247  0.11290  0.82421  1.0000
  H   H583      1.0  0.14764  0.01764  0.69573  1.0000
  C   C335      1.0  0.35747  0.11022  0.77220  1.0000
  C   C336      1.0  0.42409  0.12295  0.78681  1.0000
  C   C337      1.0  0.44413  0.12895  0.78679  1.0000
  C   C338      1.0  0.38278  0.11067  0.84414  1.0000
  H   H584      1.0  0.23862  0.24243  0.98609  1.0000
  H   H585      1.0  0.47053  0.16281  0.81227  1.0000
  H   H586      1.0  0.15089  0.05328  0.74898  1.0000
  H   H587      1.0  0.38874  0.11978  0.78582  1.0000
  H   H588      1.0  0.43252  0.09733  0.80373  1.0000
  H   H589      1.0  0.43205  0.09494  0.77934  1.0000
  C   C339      1.0  0.02754  0.15921  0.96191  1.0000
  H   H590      1.0  0.39374  0.06643  0.79427  1.0000
  H   H591      1.0  0.38500  0.08522  0.81898  1.0000
  H   H592      1.0  0.40852  0.08591  0.82470  1.0000
  H   H593      1.0  0.38256  0.12225  0.81580  1.0000
  H   H594      1.0  0.40560  0.11982  0.82500  1.0000
  C   C340      1.0  0.01905  0.13046  0.74709  1.0000
  H   H595      1.0  0.36357  0.09905  0.79979  1.0000
  H   H596      1.0  0.42071  0.05884  0.81447  1.0000
  C   C341      1.0  0.07222  0.13683  0.95960  1.0000
  H   H597      1.0  0.41951  0.12664  0.77250  1.0000
  H   H598      1.0  0.41451  0.13143  0.79668  1.0000
  H   H599      1.0  0.45427  0.12070  0.77705  1.0000
  H   H600      1.0  0.44421  0.14412  0.78194  1.0000
  H   H601      1.0  0.44901  0.12683  0.80108  1.0000
  H   H602      1.0  0.36916  0.10428  0.84416  1.0000
  H   H603      1.0  0.39218  0.10164  0.85343  1.0000
  H   H604      1.0  0.37960  0.12473  0.84990  1.0000
  C   C342      1.0  0.15873  0.06022  0.73659  1.0000
  H   H605      1.0  0.27128  0.22813  0.99046  1.0000
  H   H606      1.0  0.22792  0.06245  0.76129  1.0000
  N   N17       1.0  0.05324  0.13074  0.95599  1.0000
  S   S82       1.0  0.02276  0.02004  0.72421  1.0000
  C   C343      1.0  0.45026  0.20312  0.98273  1.0000
  H   H607      1.0  0.45316  0.20041  0.96766  1.0000
  Fe  Fe39      1.0  0.34688  0.24490  0.98627  1.0000
  H   H608      1.0  0.23743  0.08433  0.75284  1.0000
  H   H609      1.0  0.48242  0.03530  0.75813  1.0000
  C   C344      1.0  0.08957  0.03100  0.88828  1.0000
  H   H610      1.0  0.03873  0.10745  0.85622  1.0000
  C   C345      1.0  0.37030  0.09805  0.78525  1.0000
  H   H611      1.0  0.44344  0.18171  0.83000  1.0000
  H   H612      1.0  0.05050  0.03693  0.90974  1.0000
  H   H613      1.0  0.41059  0.20727  0.88121  1.0000
  H   H614      1.0  0.11214  0.24677  0.96984  1.0000
  H   H615      1.0  0.23697  0.04506  0.72183  1.0000
  H   H616      1.0  0.07510  0.13328  0.97443  1.0000
  C   C346      1.0  0.47179  0.22420  0.84382  1.0000
  H   H617      1.0  0.44684  0.23507  0.82857  1.0000
  H   H618      1.0  0.44278  0.21556  0.88583  1.0000
  H   H619      1.0  0.17042  0.24035  0.94860  1.0000
  H   H620      1.0  0.39613  0.10409  0.76836  1.0000
  H   H621      1.0  0.07196  0.05573  0.84338  1.0000
  C   C347      1.0  0.29531  0.01050  0.69641  1.0000
  H   H622      1.0  0.31354  0.21639  0.95963  1.0000
  H   H623      1.0  0.43668  0.03159  0.79826  1.0000
  C   C348      1.0  0.04849  0.03145  0.89607  1.0000
  H   H624      1.0  0.02038  0.12832  0.93899  1.0000
  H   H625      1.0  0.06268  0.08168  0.86436  1.0000
  H   H626      1.0  0.06832  0.15377  0.68382  1.0000
  C   C349      1.0  0.47525  0.19860  0.86833  1.0000
  H   H627      1.0  0.20721  0.00847  0.98811  1.0000
  H   H628      1.0  0.46881  0.18612  0.87568  1.0000
  H   H629      1.0  0.16577  0.20395  0.97721  1.0000
  H   H630      1.0  0.09331  0.20664  0.87391  1.0000
  H   H631      1.0  0.17597  0.03475  0.73069  1.0000
  C   C350      1.0  0.21896  0.00766  0.97665  1.0000
  Fe  Fe40      1.0  0.36112  0.00841  0.76403  1.0000
  C   C351      1.0  0.43676  0.22042  0.87242  1.0000
  H   H632      1.0  0.18330  0.24138  0.97817  1.0000
  H   H633      1.0  0.24751  0.20321  0.97076  1.0000
  H   H634      1.0  0.04007  0.13535  0.89911  1.0000
  C   C352      1.0  0.03474  0.09635  0.86723  1.0000
  C   C353      1.0  0.05035  0.13513  0.93551  1.0000
  C   C354      1.0  0.07552  0.04865  0.88393  1.0000
  C   C355      1.0  0.17838  0.04950  0.73280  1.0000
  H   H635      1.0  0.08918  0.02016  0.87819  1.0000
  Fe  Fe41      1.0  0.36221  0.20404  0.97913  1.0000
  C   C356      1.0  0.42991  0.22876  0.93040  1.0000
  C   C357      1.0  0.22223  0.05117  0.72598  1.0000
  H   H636      1.0  0.05850  0.01933  0.86434  1.0000
  S   S83       1.0  0.01673  0.19441  0.67484  1.0000
  N   N18       1.0  0.05596  0.04445  0.87992  1.0000
  H   H637      1.0  0.41029  0.23117  0.88747  1.0000
  H   H638      1.0  0.04194  0.06860  0.89354  1.0000
  H   H639      1.0  0.30239  0.23196  0.97644  1.0000
  H   H640      1.0  0.04178  0.03755  0.85646  1.0000
  H   H641      1.0  0.22184  0.08726  0.85032  1.0000
  S   S84       1.0  0.49356  0.15728  0.73566  1.0000
  H   H642      1.0  0.24094  0.10942  0.85827  1.0000
  H   H643      1.0  0.00722  0.18177  0.97216  1.0000
  C   C358      1.0  0.42478  0.04050  0.79207  1.0000
  H   H644      1.0  0.02232  0.11876  0.73766  1.0000
  C   C359      1.0  0.25444  0.10332  0.86387  1.0000
  H   H645      1.0  0.24365  0.08834  0.88916  1.0000
  Fe  Fe42      1.0  0.38081  0.23722  0.95730  1.0000
  H   H646      1.0  0.26252  0.13135  0.86665  1.0000
  H   H647      1.0  0.09369  0.15012  0.68569  1.0000
  H   H648      1.0  0.05925  0.23056  0.86000  1.0000
  H   H649      1.0  0.25494  0.22482  0.95955  1.0000
  C   C360      1.0  0.07483  0.15812  0.95615  1.0000
  H   H650      1.0  0.07081  0.16402  0.94225  1.0000
  H   H651      1.0  0.46768  0.22624  0.81397  1.0000
  H   H652      1.0  0.07835  0.03670  0.81599  1.0000
  H   H653      1.0  0.37041  0.00371  0.85415  1.0000
  H   H654      1.0  0.11115  0.04526  0.89926  1.0000
  C   C361      1.0  0.09058  0.00877  0.67301  1.0000
  C   C362      1.0  0.06689  0.03337  0.82709  1.0000
  H   H655      1.0  0.02353  0.02469  0.88276  1.0000
  H   H656      1.0  0.01823  0.12435  0.76184  1.0000
  H   H657      1.0  0.31622  0.24160  0.93362  1.0000
  C   C363      1.0  0.22734  0.01827  0.69997  1.0000
  H   H658      1.0  0.26689  0.15040  0.95781  1.0000
  C   C364      1.0  0.12072  0.24678  0.98187  1.0000
  C   C365      1.0  0.25202  0.21710  0.97334  1.0000
  H   H659      1.0  0.08572  0.02460  0.90260  1.0000
  H   H660      1.0  0.28165  0.16290  0.94027  1.0000
  H   H661      1.0  0.03787  0.16932  0.95646  1.0000
  H   H662      1.0  0.47346  0.20969  0.87854  1.0000
  H   H663      1.0  0.47998  0.23719  0.95296  1.0000
  H   H664      1.0  0.43079  0.23760  0.97843  1.0000
  H   H665      1.0  0.07074  0.23535  0.87979  1.0000
  H   H666      1.0  0.10094  0.23850  0.86183  1.0000
  H   H667      1.0  0.02563  0.13030  0.97193  1.0000
  C   C366      1.0  0.17789  0.21268  0.97689  1.0000
  H   H668      1.0  0.43477  0.20291  0.98690  1.0000
  H   H669      1.0  0.14962  0.23056  0.95861  1.0000
  C   C367      1.0  0.15967  0.24093  0.96096  1.0000
  H   H670      1.0  0.36239  0.02430  0.81601  1.0000
  H   H671      1.0  0.21969  0.10453  0.66928  1.0000
  N   N19       1.0  0.28831  0.20666  0.97496  1.0000
  C   C368      1.0  0.45680  0.22210  0.98634  1.0000
  H   H672      1.0  0.00497  0.13789  0.74428  1.0000
  H   H673      1.0  0.16162  0.23488  0.99143  1.0000
  C   C369      1.0  0.25345  0.01078  0.96841  1.0000
  H   H674      1.0  0.04247  0.14124  0.98275  1.0000
  H   H675      1.0  0.33049  0.00379  0.82622  1.0000
  H   H676      1.0  0.34031  0.13690  0.99058  1.0000
  C   C370      1.0  0.26963  0.21436  0.98485  1.0000
  C   C371      1.0  0.17065  0.23351  0.97802  1.0000
  N   N20       1.0  0.23788  0.00847  0.98425  1.0000
  H   H677      1.0  0.10227  0.99923  0.69948  1.0000
  H   H678      1.0  0.19240  0.00365  0.95170  1.0000
  H   H679      1.0  0.09106  0.23575  0.84000  1.0000
  H   H680      1.0  0.04838  0.10886  0.99064  1.0000
  H   H681      1.0  0.00716  0.00977  0.91183  1.0000
  C   C372      1.0  0.49702  0.19312  0.86504  1.0000
  Fe  Fe43      1.0  0.99903  0.01145  0.97757  1.0000
  H   H682      1.0  0.34913  0.99888  0.80869  1.0000
  H   H683      1.0  0.99900  0.13096  0.66496  1.0000
  H   H684      1.0  0.03198  0.24001  0.99272  1.0000
  H   H685      1.0  0.33636  0.36431  0.00887  1.0000
  Fe  Fe44      1.0  0.48433  0.27356  0.11042  1.0000
  H   H686      1.0  0.45299  0.25388  0.00673  1.0000
  S   S85       1.0  0.25276  0.39032  0.02711  1.0000
  Fe  Fe45      1.0  0.45349  0.29075  0.13939  1.0000
  S   S86       1.0  0.43694  0.31630  0.15315  1.0000
  H   H687      1.0  0.02023  0.48598  0.23530  1.0000
  H   H688      1.0  0.49727  0.41900  0.22790  1.0000
  H   H689      1.0  0.45632  0.37569  0.28155  1.0000
  H   H690      1.0  0.42241  0.28530  0.02222  1.0000
  S   S87       1.0  0.45557  0.28994  0.10795  1.0000
  Fe  Fe46      1.0  0.24997  0.45194  0.11930  1.0000
  S   S88       1.0  0.23636  0.48070  0.12669  1.0000
  S   S89       1.0  0.23359  0.43554  0.10110  1.0000
  Fe  Fe47      1.0  0.28396  0.45452  0.14278  1.0000
  S   S90       1.0  0.31013  0.43621  0.15298  1.0000
  Fe  Fe48      1.0  0.24394  0.47206  0.15616  1.0000
  S   S91       1.0  0.22667  0.47883  0.18401  1.0000
  S   S92       1.0  0.25552  0.44269  0.14927  1.0000
  S   S93       1.0  0.27913  0.46133  0.11230  1.0000
  Fe  Fe49      1.0  0.41731  0.43288  0.24013  1.0000
  S   S94       1.0  0.44815  0.42442  0.23166  1.0000
  S   S95       1.0  0.39933  0.42965  0.26821  1.0000
  Fe  Fe50      1.0  0.40891  0.44636  0.20017  1.0000
  S   S96       1.0  0.43942  0.43918  0.18868  1.0000
  S   S97       1.0  0.38477  0.46146  0.18379  1.0000
  Fe  Fe51      1.0  0.43801  0.41209  0.20697  1.0000
  S   S98       1.0  0.45488  0.38403  0.19968  1.0000
  Fe  Fe52      1.0  0.44829  0.45201  0.21385  1.0000
  S   S99       1.0  0.47647  0.46630  0.21064  1.0000
  S   S100      1.0  0.40704  0.41850  0.21678  1.0000
  S   S101      1.0  0.41789  0.46128  0.22399  1.0000
  Fe  Fe53      1.0  0.12921  0.46242  0.24871  1.0000
  S   S102      1.0  0.13579  0.48117  0.27038  1.0000
  S   S103      1.0  0.14477  0.45696  0.21983  1.0000
  Fe  Fe54      1.0  0.09673  0.44584  0.27469  1.0000
  S   S104      1.0  0.10147  0.46301  0.29838  1.0000
  S   S105      1.0  0.07639  0.42279  0.27950  1.0000
  Fe  Fe55      1.0  0.46942  0.24896  0.14435  1.0000
  Fe  Fe56      1.0  0.13289  0.45603  0.29143  1.0000
  H   H691      1.0  0.43032  0.35858  0.22664  1.0000
  S   S106      1.0  0.09730  0.46997  0.25260  1.0000
  S   S107      1.0  0.12797  0.43705  0.26925  1.0000
  H   H692      1.0  0.33624  0.39440  0.03464  1.0000
  C   C373      1.0  0.48610  0.48779  0.21449  1.0000
  H   H693      1.0  0.22206  0.47635  0.00436  1.0000
  C   C374      1.0  0.20375  0.47271  0.19351  1.0000
  C   C375      1.0  0.19371  0.46038  0.18508  1.0000
  C   C376      1.0  0.17570  0.45577  0.19331  1.0000
  C   C377      1.0  0.16747  0.46340  0.21001  1.0000
  C   C378      1.0  0.17744  0.47583  0.21837  1.0000
  C   C379      1.0  0.24607  0.46793  0.23879  1.0000
  H   H694      1.0  0.19980  0.45442  0.17221  1.0000
  S   S108      1.0  0.41829  0.25481  0.09843  1.0000
  C   C380      1.0  0.41674  0.40654  0.32661  1.0000
  C   C381      1.0  0.19283  0.43248  0.26769  1.0000
  C   C382      1.0  0.33097  0.44357  0.16109  1.0000
  C   C383      1.0  0.34521  0.42978  0.16713  1.0000
  C   C384      1.0  0.36183  0.43492  0.17390  1.0000
  C   C385      1.0  0.36445  0.45398  0.17476  1.0000
  C   C386      1.0  0.35027  0.46774  0.16859  1.0000
  C   C387      1.0  0.33365  0.46260  0.16185  1.0000
  H   H695      1.0  0.34337  0.41502  0.16656  1.0000
  H   H696      1.0  0.37262  0.42416  0.17845  1.0000
  H   H697      1.0  0.35213  0.48252  0.16908  1.0000
  H   H698      1.0  0.32291  0.47340  0.15723  1.0000
  C   C388      1.0  0.44259  0.33522  0.16564  1.0000
  C   C389      1.0  0.46059  0.33596  0.17176  1.0000
  C   C390      1.0  0.46406  0.35100  0.18213  1.0000
  C   C391      1.0  0.44970  0.36561  0.18632  1.0000
  C   C392      1.0  0.43175  0.36494  0.18012  1.0000
  C   C393      1.0  0.42823  0.34979  0.16994  1.0000
  H   H699      1.0  0.47176  0.32485  0.16863  1.0000
  H   H700      1.0  0.47799  0.35133  0.18688  1.0000
  H   H701      1.0  0.42055  0.37603  0.18320  1.0000
  H   H702      1.0  0.41426  0.34937  0.16529  1.0000
  S   S109      1.0  0.15630  0.44342  0.31019  1.0000
  C   C394      1.0  0.32627  0.44392  0.26874  1.0000
  H   H703      1.0  0.25536  0.34785  0.04078  1.0000
  H   H704      1.0  0.41688  0.38763  0.26618  1.0000
  H   H705      1.0  0.20304  0.49003  0.21678  1.0000
  C   C395      1.0  0.24662  0.40437  0.04662  1.0000
  C   C396      1.0  0.22820  0.40643  0.05564  1.0000
  C   C397      1.0  0.22448  0.41626  0.07209  1.0000
  C   C398      1.0  0.23900  0.42437  0.07965  1.0000
  C   C399      1.0  0.25729  0.42283  0.07029  1.0000
  C   C400      1.0  0.26110  0.41273  0.05403  1.0000
  H   H706      1.0  0.21692  0.40002  0.05025  1.0000
  H   H707      1.0  0.21026  0.41736  0.07917  1.0000
  H   H708      1.0  0.26857  0.42907  0.07581  1.0000
  H   H709      1.0  0.27540  0.41126  0.04718  1.0000
  C   C401      1.0  0.05689  0.42006  0.26667  1.0000
  C   C402      1.0  0.05117  0.43333  0.25243  1.0000
  C   C403      1.0  0.03656  0.42988  0.24162  1.0000
  C   C404      1.0  0.02723  0.41334  0.24520  1.0000
  C   C405      1.0  0.03249  0.40038  0.25987  1.0000
  C   C406      1.0  0.04731  0.40371  0.27049  1.0000
  H   H710      1.0  0.05830  0.44606  0.24950  1.0000
  H   H711      1.0  0.03259  0.43999  0.23030  1.0000
  H   H712      1.0  0.02544  0.38760  0.26276  1.0000
  H   H713      1.0  0.05155  0.39341  0.28156  1.0000
  H   H714      1.0  0.29117  0.45853  0.19231  1.0000
  H   H715      1.0  0.27012  0.32937  0.05277  1.0000
  H   H716      1.0  0.21957  0.45665  0.29273  1.0000
  C   C407      1.0  0.43083  0.34970  0.24016  1.0000
  H   H717      1.0  0.31103  0.44491  0.23787  1.0000
  C   C408      1.0  0.31452  0.45754  0.20976  1.0000
  C   C409      1.0  0.34678  0.47348  0.22578  1.0000
  C   C410      1.0  0.34380  0.41934  0.23197  1.0000
  H   H718      1.0  0.30835  0.36883  0.15443  1.0000
  H   H719      1.0  0.45366  0.37649  0.23887  1.0000
  H   H720      1.0  0.14215  0.33153  0.00008  1.0000
  C   C411      1.0  0.43073  0.41072  0.31198  1.0000
  C   C412      1.0  0.42567  0.41808  0.29414  1.0000
  C   C413      1.0  0.40654  0.42088  0.29056  1.0000
  C   C414      1.0  0.39254  0.41667  0.30516  1.0000
  H   H721      1.0  0.31096  0.37314  0.04511  1.0000
  C   C415      1.0  0.45620  0.38285  0.26728  1.0000
  H   H722      1.0  0.43653  0.42196  0.28331  1.0000
  H   H723      1.0  0.37769  0.41894  0.30265  1.0000
  H   H724      1.0  0.39411  0.35965  0.26322  1.0000
  H   H725      1.0  0.42938  0.31253  0.22958  1.0000
  S   S110      1.0  0.48316  0.27641  0.14159  1.0000
  H   H726      1.0  0.25179  0.46751  0.05762  1.0000
  S   S111      1.0  0.27279  0.48350  0.15108  1.0000
  H   H727      1.0  0.28471  0.36343  0.02890  1.0000
  H   H728      1.0  0.34941  0.39037  0.22434  1.0000
  H   H729      1.0  0.47581  0.25484  0.04568  1.0000
  H   H730      1.0  0.28759  0.48189  0.07013  1.0000
  H   H731      1.0  0.23814  0.42766  0.27916  1.0000
  C   C416      1.0  0.29372  0.41143  0.11186  1.0000
  H   H732      1.0  0.22378  0.42376  0.32107  1.0000
  C   C417      1.0  0.15498  0.38247  0.01663  1.0000
  C   C418      1.0  0.29329  0.45812  0.20747  1.0000
  H   H733      1.0  0.24569  0.37798  0.15588  1.0000
  C   C419      1.0  0.33864  0.30361  0.01629  1.0000
  H   H734      1.0  0.38625  0.25240  0.07777  1.0000
  H   H735      1.0  0.25407  0.32351  0.03670  1.0000
  H   H736      1.0  0.48315  0.43082  0.19568  1.0000
  C   C420      1.0  0.32447  0.36718  0.03765  1.0000
  H   H737      1.0  0.45000  0.32550  0.25039  1.0000
  H   H738      1.0  0.47437  0.48095  0.16636  1.0000
  N   N21       1.0  0.43233  0.36188  0.25611  1.0000
  C   C421      1.0  0.33985  0.37978  0.04066  1.0000
  C   C422      1.0  0.48895  0.44354  0.16044  1.0000
  H   H739      1.0  0.08700  0.45860  0.19050  1.0000
  C   C423      1.0  0.31826  0.45689  0.23075  1.0000
  C   C424      1.0  0.45168  0.36922  0.25313  1.0000
  H   H740      1.0  0.28982  0.39264  0.07973  1.0000
  H   H741      1.0  0.00580  0.31007  0.31614  1.0000
  C   C425      1.0  0.31369  0.38786  0.12921  1.0000
  C   C426      1.0  0.29324  0.34974  0.02637  1.0000
  H   H742      1.0  0.32003  0.32060  0.03478  1.0000
  C   C427      1.0  0.09250  0.45841  0.20445  1.0000
  H   H743      1.0  0.29312  0.42159  0.12289  1.0000
  H   H744      1.0  0.43932  0.34541  0.31219  1.0000
  C   C428      1.0  0.32452  0.42767  0.10289  1.0000
  Fe  Fe57      1.0  0.44386  0.26181  0.11270  1.0000
  C   C429      1.0  0.42394  0.34848  0.31026  1.0000
  C   C430      1.0  0.01002  0.28898  0.02011  1.0000
  H   H745      1.0  0.32163  0.43350  0.29794  1.0000
  C   C431      1.0  0.31725  0.36873  0.14081  1.0000
  H   H746      1.0  0.31395  0.35680  0.13315  1.0000
  H   H747      1.0  0.30837  0.37181  0.10069  1.0000
  C   C432      1.0  0.19273  0.48192  0.28499  1.0000
  C   C433      1.0  0.44230  0.25551  0.20888  1.0000
  H   H748      1.0  0.46316  0.35739  0.25374  1.0000
  H   H749      1.0  0.29041  0.37444  0.99731  1.0000
  H   H750      1.0  0.20317  0.41999  0.26496  1.0000
  H   H751      1.0  0.20185  0.48039  0.02133  1.0000
  C   C434      1.0  0.39664  0.37249  0.25393  1.0000
  H   H752      1.0  0.23804  0.46644  0.26838  1.0000
  C   C435      1.0  0.43014  0.35012  0.27458  1.0000
  H   H753      1.0  0.07542  0.42881  0.22209  1.0000
  H   H754      1.0  0.39468  0.36939  0.23938  1.0000
  C   C436      1.0  0.22635  0.42693  0.29047  1.0000
  H   H755      1.0  0.23947  0.46988  0.22528  1.0000
  H   H756      1.0  0.22967  0.39551  0.14445  1.0000
  C   C437      1.0  0.28901  0.28911  0.99427  1.0000
  H   H757      1.0  0.32830  0.41915  0.23147  1.0000
  H   H758      1.0  0.42721  0.37406  0.29317  1.0000
  C   C438      1.0  0.42119  0.36060  0.29203  1.0000
  H   H759      1.0  0.16171  0.41904  0.23755  1.0000
  H   H760      1.0  0.04379  0.24853  0.32491  1.0000
  H   H761      1.0  0.25430  0.47503  0.08050  1.0000
  N   N22       1.0  0.09488  0.40387  0.21791  1.0000
  C   C439      1.0  0.07800  0.39242  0.22178  1.0000
  C   C440      1.0  0.10471  0.40427  0.23562  1.0000
  C   C441      1.0  0.08740  0.42384  0.21198  1.0000
  C   C442      1.0  0.10873  0.39674  0.20214  1.0000
  C   C443      1.0  0.11698  0.37585  0.20435  1.0000
  C   C444      1.0  0.06515  0.39237  0.20556  1.0000
  C   C445      1.0  0.48490  0.40996  0.16568  1.0000
  C   C446      1.0  0.10486  0.38632  0.24944  1.0000
  C   C447      1.0  0.11845  0.38705  0.26449  1.0000
  C   C448      1.0  0.12886  0.37004  0.18644  1.0000
  C   C449      1.0  0.05096  0.37755  0.20989  1.0000
  H   H762      1.0  0.28820  0.36398  0.11427  1.0000
  H   H763      1.0  0.06864  0.39776  0.23397  1.0000
  H   H764      1.0  0.08242  0.37751  0.22616  1.0000
  H   H765      1.0  0.11965  0.40780  0.23211  1.0000
  H   H766      1.0  0.09770  0.41581  0.24418  1.0000
  H   H767      1.0  0.31761  0.44145  0.10735  1.0000
  H   H768      1.0  0.08141  0.42446  0.19819  1.0000
  H   H769      1.0  0.10226  0.39914  0.18857  1.0000
  H   H770      1.0  0.12127  0.40504  0.20020  1.0000
  H   H771      1.0  0.10566  0.36618  0.20728  1.0000
  H   H772      1.0  0.12661  0.37387  0.21573  1.0000
  H   H773      1.0  0.05678  0.40632  0.20360  1.0000
  H   H774      1.0  0.07361  0.38917  0.19220  1.0000
  H   H775      1.0  0.11382  0.43550  0.19927  1.0000
  H   H776      1.0  0.18297  0.40543  0.24462  1.0000
  H   H777      1.0  0.09038  0.38525  0.25673  1.0000
  H   H778      1.0  0.10903  0.37320  0.24231  1.0000
  H   H779      1.0  0.13318  0.38838  0.25804  1.0000
  H   H780      1.0  0.11377  0.39915  0.27315  1.0000
  H   H781      1.0  0.11843  0.37392  0.27389  1.0000
  H   H782      1.0  0.11987  0.37119  0.17452  1.0000
  H   H783      1.0  0.14073  0.37907  0.18291  1.0000
  H   H784      1.0  0.13500  0.35514  0.18850  1.0000
  H   H785      1.0  0.04085  0.37887  0.19890  1.0000
  H   H786      1.0  0.05848  0.36310  0.21023  1.0000
  H   H787      1.0  0.04260  0.37954  0.22361  1.0000
  H   H788      1.0  0.45404  0.30919  0.22056  1.0000
  Fe  Fe58      1.0  0.10381  0.48690  0.27583  1.0000
  H   H789      1.0  0.08062  0.46265  0.21500  1.0000
  C   C450      1.0  0.41710  0.37821  0.25465  1.0000
  H   H790      1.0  0.14570  0.37106  0.01567  1.0000
  C   C451      1.0  0.32026  0.33449  0.00609  1.0000
  H   H791      1.0  0.25561  0.38248  0.12226  1.0000
  H   H792      1.0  0.47205  0.41987  0.13954  1.0000
  C   C452      1.0  0.33798  0.36512  0.14533  1.0000
  H   H793      1.0  0.16355  0.41171  0.26197  1.0000
  H   H794      1.0  0.41739  0.33504  0.31028  1.0000
  H   H795      1.0  0.42040  0.38745  0.24175  1.0000
  H   H796      1.0  0.44558  0.40856  0.31460  1.0000
  H   H797      1.0  0.15130  0.38858  0.03040  1.0000
  H   H798      1.0  0.45701  0.39121  0.15227  1.0000
  C   C453      1.0  0.25858  0.39350  0.13124  1.0000
  C   C454      1.0  0.47594  0.38957  0.26220  1.0000
  H   H799      1.0  0.29890  0.34481  0.03990  1.0000
  H   H800      1.0  0.22476  0.48758  0.08501  1.0000
  C   C455      1.0  0.18019  0.43495  0.25107  1.0000
  H   H801      1.0  0.34769  0.36400  0.13226  1.0000
  H   H802      1.0  0.22122  0.47841  0.05571  1.0000
  C   C456      1.0  0.17160  0.41662  0.24873  1.0000
  C   C457      1.0  0.21751  0.47680  0.01957  1.0000
  H   H803      1.0  0.34757  0.41482  0.24638  1.0000
  H   H804      1.0  0.46019  0.33953  0.23056  1.0000
  H   H805      1.0  0.34003  0.35168  0.15414  1.0000
  H   H806      1.0  0.28036  0.37584  0.14399  1.0000
  H   H807      1.0  0.38240  0.39141  0.27437  1.0000
  C   C458      1.0  0.01470  0.29368  0.00088  1.0000
  H   H808      1.0  0.46168  0.28652  0.99977  1.0000
  C   C459      1.0  0.49799  0.48932  0.26469  1.0000
  H   H809      1.0  0.30339  0.42441  0.08445  1.0000
  H   H810      1.0  0.32572  0.38845  0.11808  1.0000
  H   H811      1.0  0.21922  0.41399  0.28955  1.0000
  C   C460      1.0  0.41691  0.24888  0.07509  1.0000
  H   H812      1.0  0.49128  0.39827  0.20299  1.0000
  H   H813      1.0  0.31526  0.39919  0.13857  1.0000
  H   H814      1.0  0.29254  0.35810  0.07467  1.0000
  H   H815      1.0  0.36705  0.38349  0.25878  1.0000
  H   H816      1.0  0.31654  0.38144  0.01203  1.0000
  H   H817      1.0  0.34183  0.37673  0.15317  1.0000
  H   H818      1.0  0.33552  0.43050  0.09118  1.0000
  C   C461      1.0  0.27880  0.36596  0.07940  1.0000
  C   C462      1.0  0.27933  0.39012  0.13657  1.0000
  H   H819      1.0  0.33376  0.45463  0.29435  1.0000
  H   H820      1.0  0.25569  0.40761  0.12395  1.0000
  H   H821      1.0  0.25495  0.47973  0.23940  1.0000
  H   H822      1.0  0.36553  0.43818  0.22965  1.0000
  H   H823      1.0  0.28703  0.32091  0.02210  1.0000
  H   H824      1.0  0.31737  0.40308  0.09039  1.0000
  H   H825      1.0  0.32841  0.35296  0.04428  1.0000
  C   C463      1.0  0.30988  0.41597  0.09631  1.0000
  H   H826      1.0  0.24672  0.40280  0.15859  1.0000
  H   H827      1.0  0.02538  0.47653  0.25845  1.0000
  C   C464      1.0  0.38135  0.38812  0.25970  1.0000
  C   C465      1.0  0.22124  0.49299  0.04887  1.0000
  H   H828      1.0  0.41727  0.34296  0.24221  1.0000
  H   H829      1.0  0.19832  0.49371  0.11035  1.0000
  H   H830      1.0  0.42106  0.33850  0.27356  1.0000
  C   C466      1.0  0.19551  0.48034  0.21024  1.0000
  C   C467      1.0  0.28211  0.38293  0.08987  1.0000
  H   H831      1.0  0.10805  0.43976  0.22356  1.0000
  H   H832      1.0  0.24307  0.43708  0.31080  1.0000
  C   C468      1.0  0.48612  0.47250  0.26822  1.0000
  H   H833      1.0  0.40566  0.36404  0.29131  1.0000
  H   H834      1.0  0.38288  0.40106  0.25025  1.0000
  H   H835      1.0  0.43962  0.30180  0.02390  1.0000
  H   H836      1.0  0.44417  0.34278  0.27792  1.0000
  H   H837      1.0  0.04024  0.49317  0.24583  1.0000
  C   C469      1.0  0.48131  0.40761  0.14510  1.0000
  S   S112      1.0  0.43984  0.26339  0.14412  1.0000
  H   H838      1.0  0.37295  0.49575  0.20566  1.0000
  H   H839      1.0  0.28010  0.41523  0.10555  1.0000
  C   C470      1.0  0.29387  0.37683  0.10686  1.0000
  H   H840      1.0  0.26804  0.39033  0.09406  1.0000
  H   H841      1.0  0.27113  0.37090  0.06688  1.0000
  N   N23       1.0  0.29490  0.39147  0.12070  1.0000
  H   H842      1.0  0.32462  0.42994  0.26395  1.0000
  C   C471      1.0  0.44653  0.28364  0.00084  1.0000
  H   H843      1.0  0.43279  0.25046  0.23810  1.0000
  H   H844      1.0  0.34098  0.38025  0.05591  1.0000
  H   H845      1.0  0.49078  0.39584  0.17143  1.0000
  H   H846      1.0  0.46841  0.38878  0.12895  1.0000
  H   H847      1.0  0.21068  0.45568  0.24138  1.0000
  H   H848      1.0  0.28104  0.40023  0.14719  1.0000
  H   H849      1.0  0.32166  0.44486  0.20313  1.0000
  C   C472      1.0  0.28013  0.47246  0.06243  1.0000
  H   H850      1.0  0.19103  0.47661  0.30000  1.0000
  C   C473      1.0  0.10196  0.43883  0.21010  1.0000
  H   H851      1.0  0.16809  0.44624  0.18663  1.0000
  H   H852      1.0  0.48770  0.44303  0.14523  1.0000
  H   H853      1.0  0.13749  0.40456  0.00307  1.0000
  C   C474      1.0  0.48463  0.26692  0.04330  1.0000
  H   H854      1.0  0.33171  0.42027  0.11479  1.0000
  H   H855      1.0  0.36923  0.40424  0.21849  1.0000
  H   H856      1.0  0.35160  0.44118  0.21062  1.0000
  C   C475      1.0  0.26383  0.33395  0.03940  1.0000
  N   N24       1.0  0.33891  0.45563  0.23468  1.0000
  H   H857      1.0  0.20054  0.44312  0.30094  1.0000
  H   H858      1.0  0.28383  0.45769  0.06788  1.0000
  H   H859      1.0  0.48322  0.47921  0.14194  1.0000
  H   H860      1.0  0.48114  0.27594  0.05531  1.0000
  H   H861      1.0  0.26993  0.35634  0.08855  1.0000
  C   C476      1.0  0.35353  0.40455  0.21906  1.0000
  C   C477      1.0  0.32194  0.36667  0.01648  1.0000
  H   H862      1.0  0.31038  0.46968  0.23675  1.0000
  H   H863      1.0  0.28542  0.47094  0.21326  1.0000
  H   H864      1.0  0.00419  0.43357  0.17689  1.0000
  S   S113      1.0  0.23365  0.34924  0.00046  1.0000
  H   H865      1.0  0.34906  0.40767  0.20467  1.0000
  C   C478      1.0  0.24438  0.39235  0.14866  1.0000
  H   H866      1.0  0.44578  0.39546  0.26732  1.0000
  H   H867      1.0  0.43842  0.32758  0.20994  1.0000
  H   H868      1.0  0.28734  0.44534  0.21457  1.0000
  C   C479      1.0  0.35055  0.43906  0.22611  1.0000
  H   H869      1.0  0.22225  0.48192  0.25426  1.0000
  C   C480      1.0  0.00816  0.33963  0.31594  1.0000
  C   C481      1.0  0.21774  0.45211  0.25451  1.0000
  H   H870      1.0  0.37750  0.46534  0.22518  1.0000
  H   H871      1.0  0.41706  0.35628  0.32231  1.0000
  H   H872      1.0  0.47962  0.37712  0.14875  1.0000
  H   H873      1.0  0.17005  0.37633  0.01603  1.0000
  H   H874      1.0  0.18846  0.43862  0.23762  1.0000
  H   H875      1.0  0.02090  0.28195  0.02845  1.0000
  H   H876      1.0  0.35388  0.37412  0.03401  1.0000
  C   C482      1.0  0.21199  0.44481  0.28924  1.0000
  H   H877      1.0  0.47418  0.44651  0.16705  1.0000
  C   C483      1.0  0.23074  0.46799  0.25535  1.0000
  H   H878      1.0  0.18354  0.42840  0.28052  1.0000
  C   C484      1.0  0.43786  0.28716  0.02076  1.0000
  H   H879      1.0  0.16832  0.44616  0.25337  1.0000
  H   H880      1.0  0.17451  0.46211  0.27835  1.0000
  H   H881      1.0  0.47844  0.40006  0.27203  1.0000
  C   C485      1.0  0.18862  0.46639  0.27239  1.0000
  C   C486      1.0  0.27937  0.33520  0.02314  1.0000
  H   H882      1.0  0.34664  0.29605  0.02763  1.0000
  H   H883      1.0  0.10313  0.46888  0.20364  1.0000
  H   H884      1.0  0.02249  0.33894  0.30809  1.0000
  C   C487      1.0  0.25860  0.47741  0.06531  1.0000
  C   C488      1.0  0.44700  0.33359  0.23699  1.0000
  H   H885      1.0  0.27219  0.33914  0.01025  1.0000
  Fe  Fe59      1.0  0.23647  0.37993  0.00438  1.0000
  C   C489      1.0  0.44182  0.31991  0.22347  1.0000
  H   H886      1.0  0.34758  0.47378  0.21022  1.0000
  H   H887      1.0  0.49486  0.40622  0.13595  1.0000
  Fe  Fe60      1.0  0.26590  0.48973  0.12106  1.0000
  H   H888      1.0  0.33883  0.46942  0.26050  1.0000
  H   H889      1.0  0.31206  0.45216  0.26944  1.0000
  H   H890      1.0  0.47072  0.41281  0.17361  1.0000
  H   H891      1.0  0.18627  0.47311  0.25820  1.0000
  H   H892      1.0  0.42981  0.26007  0.00013  1.0000
  H   H893      1.0  0.38763  0.49730  0.22436  1.0000
  H   H894      1.0  0.34627  0.43210  0.28877  1.0000
  C   C490      1.0  0.48738  0.47928  0.15642  1.0000
  C   C491      1.0  0.33240  0.44089  0.28864  1.0000
  H   H895      1.0  0.47710  0.39636  0.24774  1.0000
  H   H896      1.0  0.48713  0.37752  0.26322  1.0000
  H   H897      1.0  0.20731  0.48614  0.28188  1.0000
  N   N25       1.0  0.30903  0.35280  0.01102  1.0000
  C   C492      1.0  0.22774  0.49156  0.02780  1.0000
  H   H898      1.0  0.48104  0.27546  0.03030  1.0000
  C   C493      1.0  0.33010  0.32298  0.02222  1.0000
  H   H899      1.0  0.34193  0.33047  0.02601  1.0000
  H   H900      1.0  0.35535  0.44904  0.25864  1.0000
  N   N26       1.0  0.20309  0.44926  0.27096  1.0000
  H   H901      1.0  0.22685  0.43873  0.25204  1.0000
  C   C494      1.0  0.47099  0.39010  0.14374  1.0000
  H   H902      1.0  0.28520  0.47385  0.04730  1.0000
  C   C495      1.0  0.02537  0.48937  0.24860  1.0000
  H   H903      1.0  0.33710  0.48611  0.22982  1.0000
  H   H904      1.0  0.44491  0.27722  0.03123  1.0000
  C   C496      1.0  0.36702  0.47670  0.23043  1.0000
  H   H905      1.0  0.17105  0.48221  0.23090  1.0000
  C   C497      1.0  0.23507  0.42483  0.30923  1.0000
  H   H906      1.0  0.24320  0.48736  0.02530  1.0000
  H   H907      1.0  0.24507  0.41180  0.30998  1.0000
  H   H908      1.0  0.42992  0.26581  0.20593  1.0000
  H   H909      1.0  0.22110  0.46256  0.02651  1.0000
  H   H910      1.0  0.31963  0.47030  0.20184  1.0000
  C   C498      1.0  0.34068  0.45489  0.25555  1.0000
  H   H911      1.0  0.47657  0.47366  0.28138  1.0000
  C   C499      1.0  0.15225  0.39789  0.00081  1.0000
  H   H912      1.0  0.31115  0.32531  0.99990  1.0000
  H   H913      1.0  0.47718  0.47220  0.25642  1.0000
  C   C500      1.0  0.39758  0.40962  0.32310  1.0000
  H   H914      1.0  0.45423  0.26347  0.21164  1.0000
  H   H915      1.0  0.32716  0.29499  0.01374  1.0000
  H   H916      1.0  0.49547  0.45904  0.26909  1.0000
  S   S114      1.0  0.31841  0.26086  0.99619  1.0000
  H   H917      1.0  0.36790  0.47703  0.24571  1.0000
  H   H918      1.0  0.25542  0.45446  0.23919  1.0000
  S   S115      1.0  0.00995  0.40909  0.23026  1.0000
  H   H919      1.0  0.49552  0.49163  0.15714  1.0000
  H   H920      1.0  0.16432  0.49666  0.28841  1.0000
  H   H921      1.0  0.34852  0.30493  0.00335  1.0000
  H   H922      1.0  0.28278  0.28179  0.00679  1.0000
  C   C501      1.0  0.37299  0.49547  0.22113  1.0000
  H   H923      1.0  0.16244  0.40831  0.00224  1.0000
  H   H924      1.0  0.09891  0.26429  0.99803  1.0000
  C   C502      1.0  0.44485  0.26305  0.99646  1.0000
  H   H925      1.0  0.33182  0.33710  0.99483  1.0000
  C   C503      1.0  0.00482  0.32071  0.32663  1.0000
  H   H926      1.0  0.00678  0.35106  0.32570  1.0000
  C   C504      1.0  0.49768  0.42583  0.18958  1.0000
  N   N27       1.0  0.49771  0.42487  0.16869  1.0000
  C   C505      1.0  0.25319  0.49820  0.05823  1.0000
  H   H927      1.0  0.11466  0.24881  0.01207  1.0000
  C   C506      1.0  0.10689  0.25008  0.99929  1.0000
  C   C507      1.0  0.39888  0.24846  0.06868  1.0000
  Fe  Fe61      1.0  0.36487  0.40188  0.39632  1.0000
  S   S116      1.0  0.37472  0.38973  0.42377  1.0000
  S   S117      1.0  0.33586  0.41830  0.39300  1.0000
  Fe  Fe62      1.0  0.40457  0.39463  0.37622  1.0000
  S   S118      1.0  0.41739  0.38206  0.40279  1.0000
  H   H928      1.0  0.10983  0.34871  0.42904  1.0000
  Fe  Fe63      1.0  0.39113  0.36651  0.40776  1.0000
  S   S119      1.0  0.38881  0.33716  0.42281  1.0000
  Fe  Fe64      1.0  0.40025  0.40616  0.41707  1.0000
  S   S120      1.0  0.40577  0.42221  0.44221  1.0000
  S   S121      1.0  0.37929  0.37754  0.38045  1.0000
  S   S122      1.0  0.38945  0.41975  0.39029  1.0000
  C   C508      1.0  0.45166  0.31694  0.44238  1.0000
  H   H929      1.0  0.22318  0.26884  0.48466  1.0000
  S   S123      1.0  0.47678  0.46519  0.45779  1.0000
  H   H930      1.0  0.37763  0.48419  0.43571  1.0000
  H   H931      1.0  0.45848  0.44277  0.51097  1.0000
  H   H932      1.0  0.49157  0.26229  0.41899  1.0000
  Fe  Fe65      1.0  0.09640  0.27035  0.48910  1.0000
  S   S124      1.0  0.08001  0.27989  0.51623  1.0000
  Fe  Fe66      1.0  0.12386  0.28450  0.45595  1.0000
  H   H933      1.0  0.12737  0.39676  0.34457  1.0000
  S   S125      1.0  0.14367  0.30589  0.44124  1.0000
  Fe  Fe67      1.0  0.08899  0.26414  0.44873  1.0000
  S   S126      1.0  0.06312  0.26953  0.43152  1.0000
  S   S127      1.0  0.09247  0.29010  0.46338  1.0000
  S   S128      1.0  0.12831  0.26665  0.48284  1.0000
  Fe  Fe68      1.0  0.20557  0.44248  0.45486  1.0000
  S   S129      1.0  0.21445  0.41117  0.45873  1.0000
  S   S130      1.0  0.21419  0.45938  0.47842  1.0000
  Fe  Fe69      1.0  0.18960  0.43706  0.41706  1.0000
  S   S131      1.0  0.19821  0.40585  0.41851  1.0000
  S   S132      1.0  0.16942  0.45180  0.39605  1.0000
  Fe  Fe70      1.0  0.18662  0.40585  0.44867  1.0000
  S   S133      1.0  0.16648  0.38503  0.46357  1.0000
  Fe  Fe71      1.0  0.22561  0.41322  0.42832  1.0000
  S   S134      1.0  0.25310  0.39451  0.42121  1.0000
  S   S135      1.0  0.17673  0.43696  0.44719  1.0000
  S   S136      1.0  0.21808  0.44473  0.42455  1.0000
  C   C509      1.0  0.20833  0.48146  0.48883  1.0000
  H   H934      1.0  0.07133  0.29130  0.63709  1.0000
  H   H935      1.0  0.16184  0.36327  0.39198  1.0000
  C   C510      1.0  0.35828  0.31821  0.38871  1.0000
  H   H936      1.0  0.35106  0.32504  0.40121  1.0000
  C   C511      1.0  0.14983  0.32783  0.44781  1.0000
  C   C512      1.0  0.16352  0.33737  0.43621  1.0000
  C   C513      1.0  0.16899  0.35473  0.44087  1.0000
  C   C514      1.0  0.16068  0.36288  0.45716  1.0000
  C   C515      1.0  0.14704  0.35330  0.46876  1.0000
  C   C516      1.0  0.14169  0.33588  0.46418  1.0000
  H   H937      1.0  0.16998  0.33127  0.42354  1.0000
  H   H938      1.0  0.17959  0.36182  0.43187  1.0000
  H   H939      1.0  0.14052  0.35944  0.48139  1.0000
  H   H940      1.0  0.13116  0.32875  0.47326  1.0000
  C   C517      1.0  0.10458  0.36232  0.43512  1.0000
  H   H941      1.0  0.03393  0.31513  0.33302  1.0000
  C   C518      1.0  0.17808  0.43656  0.36117  1.0000
  C   C519      1.0  0.16605  0.44893  0.37221  1.0000
  C   C520      1.0  0.15069  0.45957  0.36410  1.0000
  C   C521      1.0  0.14740  0.45799  0.34526  1.0000
  H   H942      1.0  0.23025  0.47557  0.50778  1.0000
  H   H943      1.0  0.18996  0.42830  0.36715  1.0000
  H   H944      1.0  0.14129  0.46919  0.37246  1.0000
  H   H945      1.0  0.16368  0.27024  0.45219  1.0000
  C   C522      1.0  0.07123  0.26470  0.53518  1.0000
  C   C523      1.0  0.05691  0.27201  0.54835  1.0000
  H   H946      1.0  0.01156  0.28108  0.32910  1.0000
  H   H947      1.0  0.05080  0.28645  0.54616  1.0000
  H   H948      1.0  0.03930  0.26653  0.57419  1.0000
  H   H949      1.0  0.07129  0.28543  0.58424  1.0000
  H   H950      1.0  0.16823  0.27187  0.48565  1.0000
  H   H951      1.0  0.01057  0.25632  0.39669  1.0000
  S   S137      1.0  0.42391  0.39712  0.34878  1.0000
  H   H952      1.0  0.39679  0.49458  0.52426  1.0000
  C   C524      1.0  0.42600  0.43352  0.44639  1.0000
  C   C525      1.0  0.44098  0.43627  0.43257  1.0000
  C   C526      1.0  0.45639  0.44590  0.43637  1.0000
  C   C527      1.0  0.45706  0.45294  0.45398  1.0000
  C   C528      1.0  0.44223  0.44994  0.46791  1.0000
  C   C529      1.0  0.42678  0.44036  0.46410  1.0000
  H   H953      1.0  0.44061  0.43111  0.41888  1.0000
  H   H954      1.0  0.46781  0.44803  0.42550  1.0000
  H   H955      1.0  0.44272  0.45492  0.48161  1.0000
  H   H956      1.0  0.41535  0.43818  0.47494  1.0000
  C   C530      1.0  0.40262  0.31568  0.41790  1.0000
  C   C531      1.0  0.41495  0.31388  0.40157  1.0000
  C   C532      1.0  0.42483  0.29623  0.39778  1.0000
  C   C533      1.0  0.42242  0.28021  0.41019  1.0000
  C   C534      1.0  0.41045  0.28211  0.42672  1.0000
  C   C535      1.0  0.40059  0.29973  0.43054  1.0000
  H   H957      1.0  0.41668  0.32605  0.39177  1.0000
  H   H958      1.0  0.43419  0.29495  0.38502  1.0000
  H   H959      1.0  0.40876  0.26999  0.43656  1.0000
  H   H960      1.0  0.39117  0.30102  0.44326  1.0000
  C   C536      1.0  0.27590  0.40143  0.41297  1.0000
  C   C537      1.0  0.27865  0.41994  0.40616  1.0000
  C   C538      1.0  0.29707  0.42475  0.39975  1.0000
  C   C539      1.0  0.31292  0.41119  0.40025  1.0000
  C   C540      1.0  0.31017  0.39265  0.40694  1.0000
  C   C541      1.0  0.29173  0.38781  0.41322  1.0000
  H   H961      1.0  0.26658  0.43051  0.40580  1.0000
  H   H962      1.0  0.29907  0.43911  0.39454  1.0000
  H   H963      1.0  0.32224  0.38208  0.40731  1.0000
  H   H964      1.0  0.28971  0.37344  0.41838  1.0000
  H   H965      1.0  0.05732  0.28330  0.35048  1.0000
  H   H966      1.0  0.35903  0.26043  0.37945  1.0000
  H   H967      1.0  0.15802  0.26755  0.41745  1.0000
  C   C542      1.0  0.02409  0.25077  0.40160  1.0000
  H   H968      1.0  0.15862  0.45973  0.61067  1.0000
  C   C543      1.0  0.48794  0.43129  0.50664  1.0000
  H   H969      1.0  0.02743  0.27555  0.41579  1.0000
  H   H970      1.0  0.23090  0.46747  0.58027  1.0000
  C   C544      1.0  0.06489  0.28947  0.37719  1.0000
  H   H971      1.0  0.26518  0.44934  0.46175  1.0000
  C   C545      1.0  0.18746  0.37616  0.38340  1.0000
  H   H972      1.0  0.20309  0.46328  0.56184  1.0000
  H   H973      1.0  0.40092  0.47297  0.51257  1.0000
  C   C546      1.0  0.34971  0.45343  0.49266  1.0000
  C   C547      1.0  0.16519  0.47250  0.57260  1.0000
  H   H974      1.0  0.37522  0.28857  0.40845  1.0000
  H   H975      1.0  0.41203  0.46929  0.54430  1.0000
  C   C548      1.0  0.35730  0.26329  0.44515  1.0000
  H   H976      1.0  0.49193  0.40461  0.47841  1.0000
  H   H977      1.0  0.49436  0.40174  0.51626  1.0000
  H   H978      1.0  0.11210  0.26701  0.58343  1.0000
  H   H979      1.0  0.25051  0.26308  0.46038  1.0000
  C   C549      1.0  0.07329  0.27697  0.63170  1.0000
  H   H980      1.0  0.09985  0.37798  0.40897  1.0000
  C   C550      1.0  0.12984  0.41363  0.41101  1.0000
  Fe  Fe72      1.0  0.02035  0.26173  0.64587  1.0000
  H   H981      1.0  0.01879  0.26050  0.45771  1.0000
  C   C551      1.0  0.36014  0.28638  0.40722  1.0000
  H   H982      1.0  0.05607  0.27220  0.60028  1.0000
  C   C552      1.0  0.15714  0.39328  0.39817  1.0000
  N   N28       1.0  0.47216  0.26511  0.45577  1.0000
  C   C553      1.0  0.38820  0.25869  0.38683  1.0000
  H   H983      1.0  0.15245  0.46827  0.56674  1.0000
  C   C554      1.0  0.21119  0.26203  0.45891  1.0000
  H   H984      1.0  0.14789  0.41053  0.36488  1.0000
  C   C555      1.0  0.06577  0.28362  0.59924  1.0000
  H   H985      1.0  0.14163  0.29986  0.61770  1.0000
  N   N29       1.0  0.08183  0.27792  0.61150  1.0000
  H   H986      1.0  0.43797  0.31308  0.43827  1.0000
  H   H987      1.0  0.12908  0.40326  0.44096  1.0000
  H   H988      1.0  0.46116  0.32011  0.42951  1.0000
  C   C556      1.0  0.13231  0.41179  0.36857  1.0000
  H   H989      1.0  0.18306  0.48334  0.52719  1.0000
  H   H990      1.0  0.19923  0.45255  0.53436  1.0000
  H   H991      1.0  0.21897  0.27155  0.44848  1.0000
  H   H992      1.0  0.06329  0.27488  0.38335  1.0000
  H   H993      1.0  0.19227  0.38990  0.37741  1.0000
  H   H994      1.0  0.10295  0.39208  0.42787  1.0000
  C   C557      1.0  0.39096  0.49581  0.45750  1.0000
  C   C558      1.0  0.21881  0.48566  0.50337  1.0000
  H   H995      1.0  0.16364  0.39045  0.41170  1.0000
  H   H996      1.0  0.11062  0.39899  0.38667  1.0000
  H   H997      1.0  0.43134  0.27634  0.46165  1.0000
  C   C559      1.0  0.46592  0.28282  0.44412  1.0000
  C   C560      1.0  0.35394  0.29765  0.38911  1.0000
  C   C561      1.0  0.12632  0.39628  0.38379  1.0000
  H   H998      1.0  0.16250  0.40672  0.39187  1.0000
  H   H999      1.0  0.11420  0.41736  0.41123  1.0000
  N   N30       1.0  0.19098  0.27059  0.46326  1.0000
  H   H1000     1.0  0.49302  0.44495  0.50909  1.0000
  H   H1001     1.0  0.30234  0.25121  0.42784  1.0000
  C   C562      1.0  0.11438  0.28861  0.61768  1.0000
  H   H1002     1.0  0.19322  0.36514  0.37377  1.0000
  C   C563      1.0  0.46099  0.30094  0.45484  1.0000
  C   C564      1.0  0.36687  0.25597  0.39199  1.0000
  H   H1003     1.0  0.13627  0.42559  0.40263  1.0000
  H   H1004     1.0  0.48678  0.43133  0.49144  1.0000
  H   H1005     1.0  0.17905  0.44469  0.54920  1.0000
  N   N31       1.0  0.01796  0.29631  0.35208  1.0000
  H   H1006     1.0  0.14215  0.47948  0.61736  1.0000
  H   H1007     1.0  0.17282  0.45896  0.57785  1.0000
  H   H1008     1.0  0.35322  0.32622  0.37596  1.0000
  C   C565      1.0  0.05138  0.25470  0.41881  1.0000
  H   H1009     1.0  0.18431  0.42553  0.33389  1.0000
  C   C566      1.0  0.03758  0.30635  0.59024  1.0000
  H   H1010     1.0  0.22896  0.48764  0.59410  1.0000
  N   N32       1.0  0.35750  0.26560  0.40892  1.0000
  H   H1011     1.0  0.19733  0.29528  0.49097  1.0000
  H   H1012     1.0  0.48779  0.27932  0.47373  1.0000
  C   C567      1.0  0.19847  0.47865  0.56128  1.0000
  S   S138      1.0  0.46856  0.48374  0.51072  1.0000
  H   H1013     1.0  0.19994  0.26946  0.42407  1.0000
  C   C568      1.0  0.20389  0.48515  0.57987  1.0000
  C   C569      1.0  0.17896  0.26537  0.44861  1.0000
  H   H1014     1.0  0.20471  0.32836  0.48517  1.0000
  H   H1015     1.0  0.35198  0.29353  0.41910  1.0000
  H   H1016     1.0  0.33841  0.29763  0.38834  1.0000
  H   H1017     1.0  0.05872  0.27231  0.63262  1.0000
  H   H1018     1.0  0.02898  0.31979  0.59348  1.0000
  H   H1019     1.0  0.08908  0.30640  0.61286  1.0000
  C   C570      1.0  0.15729  0.48371  0.58985  1.0000
  H   H1020     1.0  0.16083  0.37944  0.37146  1.0000
  C   C571      1.0  0.19626  0.32217  0.47547  1.0000
  C   C572      1.0  0.01968  0.31507  0.34105  1.0000
  H   H1021     1.0  0.01910  0.32667  0.35057  1.0000
  H   H1022     1.0  0.45755  0.27028  0.48318  1.0000
  H   H1023     1.0  0.07965  0.24847  0.60821  1.0000
  H   H1024     1.0  0.02804  0.30648  0.37645  1.0000
  H   H1025     1.0  0.19760  0.47643  0.59193  1.0000
  H   H1026     1.0  0.18537  0.49181  0.47222  1.0000
  S   S139      1.0  0.02762  0.28964  0.65579  1.0000
  H   H1027     1.0  0.19330  0.37238  0.39713  1.0000
  H   H1028     1.0  0.04379  0.30771  0.57544  1.0000
  H   H1029     1.0  0.13795  0.37649  0.42675  1.0000
  H   H1030     1.0  0.40847  0.25669  0.47923  1.0000
  H   H1031     1.0  0.44864  0.32991  0.45012  1.0000
  C   C573      1.0  0.33650  0.26334  0.41049  1.0000
  H   H1032     1.0  0.12795  0.42605  0.37351  1.0000
  H   H1033     1.0  0.13554  0.46632  0.33931  1.0000
  H   H1034     1.0  0.13343  0.36542  0.40688  1.0000
  C   C574      1.0  0.13555  0.41416  0.43121  1.0000
  H   H1035     1.0  0.46830  0.43211  0.53194  1.0000
  C   C575      1.0  0.05278  0.29407  0.36067  1.0000
  C   C576      1.0  0.03127  0.29448  0.36734  1.0000
  C   C577      1.0  0.12892  0.43329  0.43893  1.0000
  H   H1036     1.0  0.15121  0.41185  0.43141  1.0000
  C   C578      1.0  0.05328  0.30225  0.60351  1.0000
  H   H1037     1.0  0.18296  0.43191  0.51751  1.0000
  H   H1038     1.0  0.13575  0.44473  0.43017  1.0000
  H   H1039     1.0  0.11321  0.43618  0.43926  1.0000
  H   H1040     1.0  0.13301  0.43325  0.45344  1.0000
  N   N33       1.0  0.32413  0.43040  0.45581  1.0000
  C   C579      1.0  0.30343  0.43471  0.46264  1.0000
  C   C580      1.0  0.33609  0.43254  0.47156  1.0000
  C   C581      1.0  0.32892  0.44373  0.43900  1.0000
  C   C582      1.0  0.32819  0.41047  0.44998  1.0000
  C   C583      1.0  0.32139  0.39469  0.46445  1.0000
  C   C584      1.0  0.28888  0.43125  0.44887  1.0000
  C   C585      1.0  0.35031  0.44313  0.43165  1.0000
  C   C586      1.0  0.33590  0.45286  0.47775  1.0000
  H   H1041     1.0  0.04632  0.30150  0.61804  1.0000
  C   C587      1.0  0.32653  0.37525  0.45687  1.0000
  C   C588      1.0  0.26842  0.43458  0.45772  1.0000
  C   C589      1.0  0.35355  0.45805  0.41548  1.0000
  H   H1042     1.0  0.30046  0.44980  0.46570  1.0000
  H   H1043     1.0  0.29991  0.42660  0.47622  1.0000
  H   H1044     1.0  0.33127  0.42376  0.48430  1.0000
  H   H1045     1.0  0.35115  0.42690  0.46797  1.0000
  H   H1046     1.0  0.32357  0.45853  0.44181  1.0000
  H   H1047     1.0  0.32134  0.44065  0.42694  1.0000
  H   H1048     1.0  0.32207  0.40903  0.43664  1.0000
  H   H1049     1.0  0.34374  0.40704  0.44680  1.0000
  H   H1050     1.0  0.30572  0.39643  0.46772  1.0000
  H   H1051     1.0  0.32820  0.39465  0.47767  1.0000
  H   H1052     1.0  0.29028  0.44105  0.43612  1.0000
  H   H1053     1.0  0.29093  0.41658  0.44459  1.0000
  H   H1054     1.0  0.35544  0.42919  0.42636  1.0000
  H   H1055     1.0  0.35935  0.44575  0.44267  1.0000
  H   H1056     1.0  0.34018  0.46288  0.46586  1.0000
  C   C590      1.0  0.42071  0.47613  0.53245  1.0000
  H   H1057     1.0  0.38167  0.25942  0.42518  1.0000
  H   H1058     1.0  0.17988  0.45550  0.50669  1.0000
  H   H1059     1.0  0.06186  0.31447  0.60163  1.0000
  H   H1060     1.0  0.31943  0.37428  0.44395  1.0000
  H   H1061     1.0  0.34218  0.37250  0.45364  1.0000
  H   H1062     1.0  0.32171  0.36416  0.46749  1.0000
  H   H1063     1.0  0.26596  0.42469  0.47028  1.0000
  H   H1064     1.0  0.09942  0.29547  0.59265  1.0000
  H   H1065     1.0  0.25841  0.43206  0.44745  1.0000
  H   H1066     1.0  0.34540  0.45566  0.40362  1.0000
  H   H1067     1.0  0.34916  0.47242  0.42013  1.0000
  H   H1068     1.0  0.36890  0.45713  0.41039  1.0000
  C   C591      1.0  0.19359  0.49475  0.48333  1.0000
  S   S140      1.0  0.01208  0.26300  0.61617  1.0000
  C   C592      1.0  0.05045  0.26080  0.56431  1.0000
  H   H1069     1.0  0.17961  0.24979  0.44842  1.0000
  H   H1070     1.0  0.11179  0.36338  0.44796  1.0000
  C   C593      1.0  0.46797  0.43079  0.51668  1.0000
  H   H1071     1.0  0.18099  0.28827  0.42612  1.0000
  H   H1072     1.0  0.39672  0.46875  0.44492  1.0000
  H   H1073     1.0  0.09026  0.26159  0.57539  1.0000
  H   H1074     1.0  0.21643  0.29794  0.47251  1.0000
  H   H1075     1.0  0.02797  0.29492  0.59195  1.0000
  C   C594      1.0  0.18216  0.26358  0.48222  1.0000
  C   C595      1.0  0.02529  0.26037  0.34801  1.0000
  H   H1076     1.0  0.38665  0.40651  0.33421  1.0000
  H   H1077     1.0  0.08014  0.29040  0.37232  1.0000
  H   H1078     1.0  0.16053  0.44599  0.52158  1.0000
  H   H1079     1.0  0.47725  0.28626  0.43293  1.0000
  H   H1080     1.0  0.05607  0.30806  0.35397  1.0000
  H   H1081     1.0  0.34202  0.26098  0.44738  1.0000
  C   C596      1.0  0.38440  0.47913  0.44871  1.0000
  C   C597      1.0  0.43665  0.26177  0.46645  1.0000
  H   H1082     1.0  0.38903  0.48267  0.48551  1.0000
  C   C598      1.0  0.02284  0.28083  0.33882  1.0000
  H   H1083     1.0  0.02895  0.28173  0.37687  1.0000
  H   H1084     1.0  0.19084  0.26605  0.49359  1.0000
  H   H1085     1.0  0.43578  0.25251  0.45505  1.0000
  H   H1086     1.0  0.10160  0.25281  0.61567  1.0000
  H   H1087     1.0  0.34563  0.44416  0.50529  1.0000
  C   C599      1.0  0.40019  0.48920  0.47590  1.0000
  H   H1088     1.0  0.42796  0.48731  0.53793  1.0000
  H   H1089     1.0  0.37386  0.31905  0.38843  1.0000
  C   C600      1.0  0.08375  0.26323  0.64606  1.0000
  H   H1090     1.0  0.12865  0.38236  0.37758  1.0000
  H   H1091     1.0  0.21136  0.24860  0.45196  1.0000
  C   C601      1.0  0.09068  0.25868  0.60624  1.0000
  H   H1092     1.0  0.43159  0.46530  0.52663  1.0000
  H   H1093     1.0  0.17771  0.26956  0.39981  1.0000
  H   H1094     1.0  0.45108  0.29869  0.46755  1.0000
  C   C602      1.0  0.45737  0.26077  0.47170  1.0000
  Fe  Fe73      1.0  0.48279  0.48268  0.48149  1.0000
  H   H1095     1.0  0.36155  0.29171  0.37636  1.0000
  N   N34       1.0  0.17781  0.48241  0.55752  1.0000
  H   H1096     1.0  0.39069  0.27379  0.38451  1.0000
  C   C603      1.0  0.17576  0.47478  0.53887  1.0000
  H   H1097     1.0  0.12715  0.42194  0.34006  1.0000
  C   C604      1.0  0.18343  0.45385  0.53662  1.0000
  H   H1098     1.0  0.23273  0.49088  0.56894  1.0000
  C   C605      1.0  0.17620  0.44642  0.51957  1.0000
  S   S141      1.0  0.12044  0.25953  0.43949  1.0000
  C   C606      1.0  0.10050  0.25760  0.58601  1.0000
  H   H1099     1.0  0.03700  0.25843  0.35732  1.0000
  C   C607      1.0  0.18452  0.27278  0.42807  1.0000
  H   H1100     1.0  0.16054  0.47610  0.53602  1.0000
  H   H1101     1.0  0.35867  0.27851  0.44607  1.0000
  H   H1102     1.0  0.47414  0.30579  0.45919  1.0000
  H   H1103     1.0  0.42356  0.26476  0.49497  1.0000
  H   H1104     1.0  0.19971  0.32858  0.46108  1.0000
  C   C608      1.0  0.40789  0.48463  0.51743  1.0000
  H   H1105     1.0  0.12237  0.31740  0.61240  1.0000
  C   C609      1.0  0.03368  0.26163  0.41242  1.0000
  H   H1106     1.0  0.12145  0.27430  0.61543  1.0000
  H   H1107     1.0  0.04299  0.25238  0.47944  1.0000
  C   C610      1.0  0.20090  0.30073  0.47630  1.0000
  H   H1108     1.0  0.16842  0.49040  0.59585  1.0000
  C   C611      1.0  0.16575  0.37719  0.38570  1.0000
  H   H1109     1.0  0.34936  0.46808  0.49686  1.0000
  C   C612      1.0  0.12286  0.41053  0.35059  1.0000
  C   C613      1.0  0.18983  0.29188  0.46235  1.0000
  H   H1110     1.0  0.08907  0.36233  0.43919  1.0000
  H   H1111     1.0  0.10712  0.41226  0.35336  1.0000
  S   S142      1.0  0.43467  0.25818  0.40450  1.0000
  C   C614      1.0  0.15952  0.44579  0.33417  1.0000
  H   H1112     1.0  0.32149  0.45800  0.48385  1.0000
  H   H1113     1.0  0.06072  0.29950  0.38825  1.0000
  N   N35       1.0  0.13573  0.39545  0.40177  1.0000
  C   C615      1.0  0.10830  0.37901  0.42096  1.0000
  C   C616      1.0  0.12858  0.30272  0.61018  1.0000
  C   C617      1.0  0.22545  0.48259  0.58077  1.0000
  H   H1114     1.0  0.32865  0.27253  0.42107  1.0000
  H   H1115     1.0  0.44823  0.49657  0.47070  1.0000
  H   H1116     1.0  0.13614  0.46440  0.60037  1.0000
  H   H1117     1.0  0.18092  0.32589  0.47975  1.0000
  C   C618      1.0  0.12977  0.37861  0.41420  1.0000
  H   H1118     1.0  0.19535  0.29771  0.44830  1.0000
  H   H1119     1.0  0.33046  0.26839  0.39707  1.0000
  H   H1120     1.0  0.17465  0.29776  0.46442  1.0000
  H   H1121     1.0  0.20757  0.48522  0.54950  1.0000
  H   H1122     1.0  0.46201  0.41748  0.51446  1.0000
  H   H1123     1.0  0.41121  0.47734  0.47287  1.0000
  H   H1124     1.0  0.45357  0.28057  0.43642  1.0000
  C   C619      1.0  0.17486  0.43507  0.34228  1.0000
  C   C620      1.0  0.17357  0.26395  0.41435  1.0000
  H   H1125     1.0  0.36448  0.44875  0.48707  1.0000
  C   C621      1.0  0.22344  0.25697  0.47568  1.0000
  H   H1126     1.0  0.37392  0.47195  0.45853  1.0000
  H   H1127     1.0  0.43050  0.48381  0.49519  1.0000
  H   H1128     1.0  0.09910  0.26489  0.64531  1.0000
  C   C622      1.0  0.41956  0.49469  0.50085  1.0000
  H   H1129     1.0  0.01205  0.25670  0.35641  1.0000
  H   H1130     1.0  0.13268  0.30141  0.59498  1.0000
  C   C623      1.0  0.14798  0.47097  0.60546  1.0000
  C   C624      1.0  0.09574  0.29267  0.60799  1.0000
  H   H1131     1.0  0.11133  0.29023  0.63293  1.0000
  C   C625      1.0  0.36653  0.25663  0.42602  1.0000
  H   H1132     1.0  0.41129  0.25109  0.36595  1.0000
  C   C626      1.0  0.42323  0.25560  0.48329  1.0000
  H   H1133     1.0  0.14631  0.49516  0.58583  1.0000
  C   C627      1.0  0.49034  0.26786  0.46394  1.0000
  H   H1134     1.0  0.36008  0.25731  0.47490  1.0000
  H   H1135     1.0  0.37728  0.49644  0.64757  1.0000
  H   H1136     1.0  0.38835  0.25576  0.35686  1.0000
  H   H1137     1.0  0.43268  0.49179  0.45385  1.0000
  H   H1138     1.0  0.39670  0.25212  0.39817  1.0000
  H   H1139     1.0  0.03599  0.28326  0.32952  1.0000
  C   C628      1.0  0.36706  0.25252  0.46136  1.0000
  H   H1140     1.0  0.38225  0.25521  0.46033  1.0000
  C   C629      1.0  0.24418  0.25120  0.46887  1.0000
  H   H1141     1.0  0.08223  0.24840  0.64334  1.0000
  C   C630      1.0  0.49228  0.24906  0.42820  1.0000
  C   C631      1.0  0.39590  0.24925  0.36894  1.0000
  H   H1142     1.0  0.17676  0.24836  0.41520  1.0000
  C   C632      1.0  0.47496  0.24886  0.44326  1.0000
  H   H1143     1.0  0.46212  0.24846  0.43564  1.0000
  H   H1144     1.0  0.11803  0.38689  0.98055  1.0000
  H   H1145     1.0  0.06012  0.26311  0.66795  1.0000
  Fe  Fe74      1.0  0.22547  0.39252  0.96434  1.0000
  H   H1146     1.0  0.29234  0.37159  0.95650  1.0000
  S   S143      1.0  0.21626  0.41903  0.94606  1.0000
  Fe  Fe75      1.0  0.24928  0.35439  0.97210  1.0000
  S   S144      1.0  0.27497  0.33585  0.95965  1.0000
  H   H1147     1.0  0.46674  0.48063  0.79808  1.0000
  C   C633      1.0  0.30376  0.24939  0.94115  1.0000
  S   S145      1.0  0.22268  0.36278  0.95726  1.0000
  S   S146      1.0  0.25332  0.38453  0.97640  1.0000
  Fe  Fe76      1.0  0.02684  0.34612  0.75013  1.0000
  C   C634      1.0  0.02897  0.46884  0.73959  1.0000
  S   S147      1.0  0.02097  0.31870  0.73826  1.0000
  Fe  Fe77      1.0  0.04683  0.38243  0.74924  1.0000
  S   S148      1.0  0.03341  0.38930  0.77765  1.0000
  S   S149      1.0  0.06847  0.40006  0.73223  1.0000
  Fe  Fe78      1.0  0.04018  0.35855  0.78664  1.0000
  S   S150      1.0  0.05797  0.35042  0.81172  1.0000
  C   C635      1.0  0.20480  0.47159  0.87337  1.0000
  S   S151      1.0  0.05522  0.35200  0.75843  1.0000
  S   S152      1.0  0.01951  0.37603  0.73852  1.0000
  Fe  Fe79      1.0  0.09229  0.30462  0.94143  1.0000
  S   S153      1.0  0.06168  0.31772  0.94380  1.0000
  S   S154      1.0  0.12049  0.31854  0.93915  1.0000
  Fe  Fe80      1.0  0.08039  0.26529  0.93459  1.0000
  S   S155      1.0  0.04923  0.27542  0.93682  1.0000
  Fe  Fe81      1.0  0.05797  0.30134  0.91894  1.0000
  S   S156      1.0  0.04007  0.31145  0.89441  1.0000
  Fe  Fe82      1.0  0.05468  0.29107  0.96143  1.0000
  H   H1148     1.0  0.44147  0.46689  0.83296  1.0000
  S   S157      1.0  0.08867  0.29011  0.91542  1.0000
  S   S158      1.0  0.08562  0.27915  0.96035  1.0000
  H   H1149     1.0  0.12858  0.25359  0.94378  1.0000
  H   H1150     1.0  0.05149  0.26129  0.89968  1.0000
  H   H1151     1.0  0.03849  0.27864  0.87000  1.0000
  H   H1152     1.0  0.12672  0.27624  0.97796  1.0000
  S   S159      1.0  0.27092  0.47233  0.89555  1.0000
  S   S160      1.0  0.09329  0.47680  0.75740  1.0000
  C   C636      1.0  0.42877  0.25730  0.90985  1.0000
  H   H1153     1.0  0.25942  0.44477  0.85694  1.0000
  C   C637      1.0  0.07526  0.26612  0.66614  1.0000
  C   C638      1.0  0.02395  0.31054  0.71530  1.0000
  H   H1154     1.0  0.10048  0.29934  0.87488  1.0000
  H   H1155     1.0  0.01921  0.25734  0.91549  1.0000
  C   C639      1.0  0.02649  0.29698  0.67897  1.0000
  C   C640      1.0  0.03325  0.31429  0.68175  1.0000
  C   C641      1.0  0.03205  0.32102  0.69980  1.0000
  H   H1156     1.0  0.07615  0.28083  0.66968  1.0000
  C   C642      1.0  0.04065  0.25622  0.89175  1.0000
  H   H1157     1.0  0.41096  0.46676  0.84468  1.0000
  H   H1158     1.0  0.03730  0.33434  0.70170  1.0000
  C   C643      1.0  0.07485  0.42175  0.73893  1.0000
  C   C644      1.0  0.09051  0.42989  0.72915  1.0000
  C   C645      1.0  0.09623  0.44691  0.73434  1.0000
  C   C646      1.0  0.08640  0.45586  0.74951  1.0000
  C   C647      1.0  0.07066  0.44779  0.75921  1.0000
  C   C648      1.0  0.06478  0.43096  0.75383  1.0000
  H   H1159     1.0  0.09831  0.42294  0.71752  1.0000
  H   H1160     1.0  0.10835  0.45296  0.72674  1.0000
  H   H1161     1.0  0.06287  0.45467  0.77089  1.0000
  H   H1162     1.0  0.05241  0.42515  0.76113  1.0000
  C   C649      1.0  0.05256  0.33965  0.83468  1.0000
  C   C650      1.0  0.03441  0.33448  0.84105  1.0000
  C   C651      1.0  0.03088  0.32603  0.85938  1.0000
  C   C652      1.0  0.04538  0.32260  0.87161  1.0000
  C   C653      1.0  0.06354  0.32774  0.86523  1.0000
  C   C654      1.0  0.06708  0.33617  0.84689  1.0000
  H   H1163     1.0  0.02309  0.33704  0.83188  1.0000
  H   H1164     1.0  0.01678  0.32214  0.86413  1.0000
  H   H1165     1.0  0.07479  0.32534  0.87448  1.0000
  H   H1166     1.0  0.08117  0.34010  0.84217  1.0000
  C   C655      1.0  0.23205  0.43415  0.93324  1.0000
  C   C656      1.0  0.25116  0.42805  0.92845  1.0000
  C   C657      1.0  0.26291  0.44000  0.91709  1.0000
  C   C658      1.0  0.25581  0.45826  0.91068  1.0000
  C   C659      1.0  0.23681  0.46453  0.91584  1.0000
  C   C660      1.0  0.22493  0.45242  0.92683  1.0000
  H   H1167     1.0  0.25680  0.41399  0.93317  1.0000
  H   H1168     1.0  0.27759  0.43502  0.91320  1.0000
  H   H1169     1.0  0.23125  0.47864  0.91125  1.0000
  H   H1170     1.0  0.21018  0.45729  0.93050  1.0000
  C   C661      1.0  0.16309  0.33755  0.97708  1.0000
  C   C662      1.0  0.16725  0.33734  0.95767  1.0000
  C   C663      1.0  0.15402  0.33153  0.94643  1.0000
  C   C664      1.0  0.13643  0.32569  0.95436  1.0000
  C   C665      1.0  0.13232  0.32566  0.97383  1.0000
  H   H1171     1.0  0.01108  0.28491  0.72441  1.0000
  H   H1172     1.0  0.18090  0.34118  0.95134  1.0000
  H   H1173     1.0  0.15753  0.33133  0.93145  1.0000
  H   H1174     1.0  0.11892  0.32119  0.98022  1.0000
  C   C666      1.0  0.13831  0.27152  0.90940  1.0000
  H   H1175     1.0  0.18175  0.46496  0.81939  1.0000
  C   C667      1.0  0.28695  0.31518  0.97026  1.0000
  C   C668      1.0  0.30477  0.30803  0.96194  1.0000
  C   C669      1.0  0.31467  0.29152  0.96972  1.0000
  H   H1176     1.0  0.31092  0.31525  0.94931  1.0000
  H   H1177     1.0  0.32832  0.28617  0.96310  1.0000
  C   C670      1.0  0.19658  0.49015  0.86323  1.0000
  H   H1178     1.0  0.05127  0.48407  0.74678  1.0000
  H   H1179     1.0  0.17659  0.27085  0.95223  1.0000
  C   C671      1.0  0.17654  0.38479  0.94169  1.0000
  H   H1180     1.0  0.46814  0.44568  0.80202  1.0000
  C   C672      1.0  0.20716  0.43076  0.88473  1.0000
  C   C673      1.0  0.49586  0.49743  0.77558  1.0000
  Fe  Fe83      1.0  0.20708  0.35931  0.98591  1.0000
  H   H1181     1.0  0.05237  0.28055  0.80548  1.0000
  C   C674      1.0  0.25279  0.45468  0.84615  1.0000
  S   S161      1.0  0.39489  0.24979  0.92984  1.0000
  H   H1182     1.0  0.12699  0.26192  0.90927  1.0000
  H   H1183     1.0  0.00966  0.25786  0.89312  1.0000
  C   C675      1.0  0.01734  0.29317  0.71253  1.0000
  H   H1184     1.0  0.41017  0.48955  0.85377  1.0000
  H   H1185     1.0  0.18721  0.48706  0.85264  1.0000
  H   H1186     1.0  0.18193  0.37426  0.95255  1.0000
  C   C676      1.0  0.16925  0.28050  0.98019  1.0000
  H   H1187     1.0  0.04121  0.48828  0.78232  1.0000
  C   C677      1.0  0.14555  0.33159  0.98506  1.0000
  H   H1188     1.0  0.19343  0.36959  0.91989  1.0000
  H   H1189     1.0  0.08317  0.25633  0.67610  1.0000
  H   H1190     1.0  0.39628  0.29014  0.95224  1.0000
  C   C678      1.0  0.15837  0.43719  0.97199  1.0000
  N   N36       1.0  0.06337  0.25998  0.86125  1.0000
  H   H1191     1.0  0.41709  0.28578  0.93620  1.0000
  C   C679      1.0  0.30364  0.37903  0.96148  1.0000
  C   C680      1.0  0.13141  0.41127  0.96588  1.0000
  H   H1192     1.0  0.21184  0.47520  0.88560  1.0000
  C   C681      1.0  0.16513  0.41871  0.96230  1.0000
  H   H1193     1.0  0.05406  0.25441  0.83466  1.0000
  H   H1194     1.0  0.30886  0.25771  0.95170  1.0000
  C   C682      1.0  0.06215  0.26476  0.84052  1.0000
  H   H1195     1.0  0.30165  0.49521  0.80110  1.0000
  H   H1196     1.0  0.20840  0.48083  0.82894  1.0000
  C   C683      1.0  0.19659  0.46159  0.81323  1.0000
  H   H1197     1.0  0.03319  0.25646  0.86336  1.0000
  C   C684      1.0  0.18733  0.29068  0.97743  1.0000
  H   H1198     1.0  0.13169  0.28617  0.91092  1.0000
  H   H1199     1.0  0.44573  0.26648  0.94808  1.0000
  H   H1200     1.0  0.48947  0.45427  0.80817  1.0000
  H   H1201     1.0  0.21451  0.43836  0.84151  1.0000
  H   H1202     1.0  0.15748  0.28882  0.95434  1.0000
  H   H1203     1.0  0.44744  0.28556  0.96174  1.0000
  N   N37       1.0  0.21827  0.45845  0.86167  1.0000
  S   S162      1.0  0.01211  0.35076  0.77906  1.0000
  H   H1204     1.0  0.19873  0.44656  0.80992  1.0000
  H   H1205     1.0  0.14760  0.37927  0.94920  1.0000
  H   H1206     1.0  0.41652  0.30325  0.95316  1.0000
  C   C685      1.0  0.23629  0.46770  0.85564  1.0000
  H   H1207     1.0  0.17931  0.41326  0.96700  1.0000
  H   H1208     1.0  0.29718  0.39251  0.96709  1.0000
  H   H1209     1.0  0.31393  0.38233  0.94927  1.0000
  H   H1210     1.0  0.01340  0.25750  0.98574  1.0000
  C   C686      1.0  0.09618  0.40668  0.96997  1.0000
  H   H1211     1.0  0.23288  0.44433  0.88484  1.0000
  H   H1212     1.0  0.04127  0.49261  0.72516  1.0000
  H   H1213     1.0  0.04907  0.30485  0.81119  1.0000
  C   C687      1.0  0.44200  0.27145  0.96239  1.0000
  C   C688      1.0  0.01864  0.28639  0.69451  1.0000
  H   H1214     1.0  0.02614  0.46232  0.75404  1.0000
  H   H1215     1.0  0.12881  0.42089  0.95319  1.0000
  C   C689      1.0  0.11636  0.39676  0.96794  1.0000
  H   H1216     1.0  0.20066  0.43887  0.89670  1.0000
  C   C690      1.0  0.47400  0.45375  0.81229  1.0000
  H   H1217     1.0  0.05686  0.29543  0.84366  1.0000
  H   H1218     1.0  0.37733  0.47416  0.83680  1.0000
  H   H1219     1.0  0.14196  0.26131  0.99189  1.0000
  H   H1220     1.0  0.07232  0.29215  0.81133  1.0000
  H   H1221     1.0  0.46312  0.26288  0.83426  1.0000
  N   N38       1.0  0.45148  0.25801  0.97674  1.0000
  H   H1222     1.0  0.19873  0.47059  0.79997  1.0000
  H   H1223     1.0  0.29059  0.35184  0.98881  1.0000
  N   N39       1.0  0.15197  0.40311  0.96464  1.0000
  H   H1224     1.0  0.26263  0.47722  0.82621  1.0000
  H   H1225     1.0  0.03939  0.32259  0.66985  1.0000
  C   C691      1.0  0.03791  0.48736  0.73995  1.0000
  H   H1226     1.0  0.43018  0.49491  0.75179  1.0000
  H   H1227     1.0  0.03708  0.42566  0.79563  1.0000
  H   H1228     1.0  0.27908  0.45627  0.82818  1.0000
  C   C692      1.0  0.27915  0.30565  0.98653  1.0000
  H   H1229     1.0  0.45554  0.26390  0.89478  1.0000
  H   H1230     1.0  0.16161  0.27536  0.92484  1.0000
  Fe  Fe84      1.0  0.11467  0.49768  0.74569  1.0000
  H   H1231     1.0  0.06813  0.28504  0.87472  1.0000
  H   H1232     1.0  0.43648  0.46408  0.80983  1.0000
  C   C693      1.0  0.07624  0.27195  0.86967  1.0000
  H   H1233     1.0  0.14676  0.44525  0.96454  1.0000
  H   H1234     1.0  0.41416  0.26072  0.96264  1.0000
  H   H1235     1.0  0.29648  0.25935  0.93087  1.0000
  C   C694      1.0  0.04341  0.26328  0.87078  1.0000
  H   H1236     1.0  0.18599  0.39630  0.93982  1.0000
  Fe  Fe85      1.0  0.00657  0.38104  0.76770  1.0000
  C   C695      1.0  0.16338  0.27516  0.96120  1.0000
  H   H1237     1.0  0.12938  0.27811  0.94549  1.0000
  C   C696      1.0  0.46416  0.47382  0.81237  1.0000
  C   C697      1.0  0.40496  0.48172  0.84296  1.0000
  H   H1238     1.0  0.11320  0.27613  0.87825  1.0000
  H   H1239     1.0  0.19604  0.42915  0.87534  1.0000
  H   H1240     1.0  0.19205  0.46460  0.87928  1.0000
  H   H1241     1.0  0.03496  0.40990  0.81666  1.0000
  C   C698      1.0  0.22373  0.44095  0.87409  1.0000
  H   H1242     1.0  0.16937  0.46313  0.97790  1.0000
  C   C699      1.0  0.09348  0.27870  0.85666  1.0000
  H   H1243     1.0  0.24763  0.44615  0.83587  1.0000
  H   H1244     1.0  0.08573  0.39600  0.97122  1.0000
  H   H1245     1.0  0.10143  0.26721  0.84888  1.0000
  C   C700      1.0  0.05686  0.29083  0.81451  1.0000
  H   H1246     1.0  0.22523  0.46315  0.81949  1.0000
  C   C701      1.0  0.15070  0.26526  0.92539  1.0000
  C   C702      1.0  0.41208  0.28928  0.95075  1.0000
  H   H1247     1.0  0.32025  0.35357  0.96994  1.0000
  H   H1248     1.0  0.40564  0.48063  0.81322  1.0000
  H   H1249     1.0  0.21957  0.40176  0.88166  1.0000
  C   C703      1.0  0.15626  0.38973  0.98137  1.0000
  H   H1250     1.0  0.20247  0.40484  0.90176  1.0000
  H   H1251     1.0  0.24187  0.47296  0.86799  1.0000
  H   H1252     1.0  0.08168  0.26440  0.88255  1.0000
  H   H1253     1.0  0.09390  0.41465  0.98276  1.0000
  H   H1254     1.0  0.00369  0.30664  0.97561  1.0000
  H   H1255     1.0  0.23258  0.43026  0.86572  1.0000
  H   H1256     1.0  0.03666  0.28479  0.83794  1.0000
  H   H1257     1.0  0.48389  0.25404  0.81960  1.0000
  C   C704      1.0  0.41996  0.27408  0.96492  1.0000
  N   N40       1.0  0.09330  0.39963  0.80001  1.0000
  C   C705      1.0  0.09907  0.38131  0.79092  1.0000
  C   C706      1.0  0.09798  0.39770  0.82022  1.0000
  C   C707      1.0  0.07196  0.40357  0.80003  1.0000
  C   C708      1.0  0.10220  0.41603  0.78923  1.0000
  C   C709      1.0  0.12413  0.41420  0.78574  1.0000
  C   C710      1.0  0.09456  0.38094  0.77031  1.0000
  C   C711      1.0  0.06265  0.42090  0.81051  1.0000
  C   C712      1.0  0.11601  0.38463  0.82502  1.0000
  C   C713      1.0  0.12048  0.38643  0.84511  1.0000
  C   C714      1.0  0.13081  0.43049  0.77238  1.0000
  C   C715      1.0  0.10282  0.36241  0.76218  1.0000
  C   C716      1.0  0.04104  0.42291  0.81023  1.0000
  H   H1258     1.0  0.09200  0.36966  0.79919  1.0000
  H   H1259     1.0  0.11452  0.37711  0.79111  1.0000
  H   H1260     1.0  0.09909  0.41186  0.82522  1.0000
  H   H1261     1.0  0.08616  0.39169  0.82949  1.0000
  H   H1262     1.0  0.06488  0.39097  0.80623  1.0000
  H   H1263     1.0  0.06786  0.40607  0.78549  1.0000
  H   H1264     1.0  0.09627  0.41913  0.77545  1.0000
  H   H1265     1.0  0.09834  0.42917  0.79659  1.0000
  H   H1266     1.0  0.12974  0.40093  0.77933  1.0000
  H   H1267     1.0  0.13046  0.41492  0.79911  1.0000
  H   H1268     1.0  0.07899  0.38210  0.76941  1.0000
  H   H1269     1.0  0.10065  0.39255  0.76124  1.0000
  H   H1270     1.0  0.06779  0.43418  0.80376  1.0000
  H   H1271     1.0  0.06575  0.41961  0.82540  1.0000
  H   H1272     1.0  0.11359  0.36965  0.82388  1.0000
  H   H1273     1.0  0.12870  0.38776  0.81551  1.0000
  H   H1274     1.0  0.13311  0.37657  0.84831  1.0000
  H   H1275     1.0  0.12367  0.40103  0.84692  1.0000
  H   H1276     1.0  0.10828  0.38279  0.85521  1.0000
  H   H1277     1.0  0.12543  0.44433  0.77788  1.0000
  H   H1278     1.0  0.14660  0.42946  0.77068  1.0000
  H   H1279     1.0  0.12568  0.42989  0.75835  1.0000
  H   H1280     1.0  0.09700  0.35023  0.77063  1.0000
  H   H1281     1.0  0.09888  0.36236  0.74761  1.0000
  H   H1282     1.0  0.11858  0.36083  0.76182  1.0000
  H   H1283     1.0  0.47674  0.26088  0.94252  1.0000
  H   H1284     1.0  0.03470  0.43496  0.81834  1.0000
  H   H1285     1.0  0.01547  0.47124  0.73277  1.0000
  C   C717      1.0  0.21073  0.46563  0.82672  1.0000
  H   H1286     1.0  0.07638  0.26335  0.83261  1.0000
  H   H1287     1.0  0.22589  0.41213  0.90202  1.0000
  H   H1288     1.0  0.14858  0.37691  0.98156  1.0000
  H   H1289     1.0  0.01883  0.27859  0.90021  1.0000
  H   H1290     1.0  0.19983  0.28075  0.97317  1.0000
  C   C718      1.0  0.15551  0.39206  0.94736  1.0000
  H   H1291     1.0  0.17152  0.38428  0.98022  1.0000
  H   H1292     1.0  0.47227  0.44631  0.82645  1.0000
  H   H1293     1.0  0.17442  0.38592  0.91157  1.0000
  H   H1294     1.0  0.11959  0.29159  0.85803  1.0000
  C   C719      1.0  0.44255  0.47376  0.81848  1.0000
  H   H1295     1.0  0.00837  0.35006  0.68003  1.0000
  H   H1296     1.0  0.15762  0.29010  0.98685  1.0000
  C   C720      1.0  0.20880  0.45281  0.84532  1.0000
  H   H1297     1.0  0.14718  0.27122  0.89578  1.0000
  H   H1298     1.0  0.16919  0.36377  0.92394  1.0000
  C   C721      1.0  0.05237  0.28472  0.83522  1.0000
  C   C722      1.0  0.21426  0.41118  0.89298  1.0000
  C   C723      1.0  0.38335  0.48225  0.84695  1.0000
  C   C724      1.0  0.17844  0.37545  0.92313  1.0000
  H   H1299     1.0  0.44122  0.47933  0.78065  1.0000
  H   H1300     1.0  0.32553  0.37436  0.98015  1.0000
  C   C725      1.0  0.26850  0.46586  0.83615  1.0000
  H   H1301     1.0  0.19338  0.45175  0.84948  1.0000
  H   H1302     1.0  0.15791  0.25111  0.92253  1.0000
  H   H1303     1.0  0.11745  0.38845  0.95544  1.0000
  H   H1304     1.0  0.41444  0.27836  0.97906  1.0000
  H   H1305     1.0  0.42074  0.26966  0.90387  1.0000
  N   N41       1.0  0.14938  0.26045  0.96177  1.0000
  H   H1306     1.0  0.15009  0.40076  0.93506  1.0000
  C   C726      1.0  0.10751  0.28693  0.86771  1.0000
  H   H1307     1.0  0.09353  0.41649  0.95748  1.0000
  C   C727      1.0  0.30676  0.28187  0.98586  1.0000
  C   C728      1.0  0.43028  0.49154  0.78206  1.0000
  H   H1308     1.0  0.18031  0.45322  0.95668  1.0000
  H   H1309     1.0  0.49327  0.49211  0.76252  1.0000
  C   C729      1.0  0.01443  0.37702  0.68742  1.0000
  H   H1310     1.0  0.23357  0.48054  0.84618  1.0000
  H   H1311     1.0  0.47121  0.48147  0.82212  1.0000
  S   S163      1.0  0.03849  0.28755  0.99084  1.0000
  H   H1312     1.0  0.47607  0.27379  0.97383  1.0000
  H   H1313     1.0  0.16798  0.42347  0.94720  1.0000
  C   C730      1.0  0.47270  0.25898  0.97349  1.0000
  H   H1314     1.0  0.18636  0.44255  0.97925  1.0000
  C   C731      1.0  0.02087  0.26295  0.90060  1.0000
  H   H1315     1.0  0.02560  0.37094  0.69657  1.0000
  C   C732      1.0  0.17461  0.44977  0.97139  1.0000
  H   H1316     1.0  0.01338  0.27305  0.69263  1.0000
  C   C733      1.0  0.13500  0.26205  0.97871  1.0000
  H   H1317     1.0  0.27596  0.47205  0.84664  1.0000
  S   S164      1.0  0.37589  0.25551  0.98176  1.0000
  C   C734      1.0  0.31386  0.36662  0.97645  1.0000
  H   H1318     1.0  0.12798  0.42024  0.97785  1.0000
  H   H1319     1.0  0.18607  0.30254  0.96653  1.0000
  C   C735      1.0  0.41045  0.49021  0.82281  1.0000
  H   H1320     1.0  0.41607  0.48619  0.78386  1.0000
  H   H1321     1.0  0.08857  0.28994  0.84614  1.0000
  H   H1322     1.0  0.00136  0.34970  0.71351  1.0000
  H   H1323     1.0  0.37971  0.47587  0.86132  1.0000
  C   C736      1.0  0.44847  0.25403  0.90462  1.0000
  C   C737      1.0  0.46819  0.25414  0.82233  1.0000
  C   C738      1.0  0.13850  0.26446  0.94460  1.0000
  N   N42       1.0  0.43123  0.49285  0.81796  1.0000
  H   H1324     1.0  0.03894  0.45878  0.73150  1.0000
  H   H1325     1.0  0.02148  0.38080  0.67331  1.0000
  H   H1326     1.0  0.17192  0.26814  0.99020  1.0000
  H   H1327     1.0  0.44029  0.49624  0.84534  1.0000
  C   C739      1.0  0.00042  0.30288  0.99038  1.0000
  H   H1328     1.0  0.46168  0.26072  0.80966  1.0000
  H   H1329     1.0  0.17175  0.49532  0.88331  1.0000
  S   S165      1.0  0.14658  0.49610  0.74674  1.0000
  H   H1330     1.0  0.37669  0.49707  0.84604  1.0000
  H   H1331     1.0  0.43890  0.29395  0.99115  1.0000
  H   H1332     1.0  0.15290  0.43454  0.98682  1.0000
  H   H1333     1.0  0.07358  0.49429  0.79011  1.0000
  H   H1334     1.0  0.00712  0.39010  0.69322  1.0000
  C   C740      1.0  0.00022  0.36270  0.68591  1.0000
  H   H1335     1.0  0.01719  0.49510  0.76309  1.0000
  H   H1336     1.0  0.05708  0.49134  0.81059  1.0000
  S   S166      1.0  0.17939  0.34462  0.99201  1.0000
  H   H1337     1.0  0.26538  0.31086  0.99299  1.0000
  H   H1338     1.0  0.18978  0.29649  0.99076  1.0000
  S   S167      1.0  0.20854  0.38961  0.99251  1.0000
  C   C741      1.0  0.48233  0.25204  0.95456  1.0000
  H   H1339     1.0  0.48003  0.25097  0.98508  1.0000
  C   C742      1.0  0.29992  0.36150  0.99380  1.0000
  S   S168      1.0  0.37407  0.73112  0.02511  1.0000
  C   C743      1.0  0.42660  0.73773  0.07594  1.0000
  S   S169      1.0  0.31751  0.72352  0.04517  1.0000
  H   H1340     1.0  0.24892  0.71938  0.01984  1.0000
  H   H1341     1.0  0.01334  0.56494  0.23867  1.0000
  C   C744      1.0  0.20413  0.51190  0.08496  1.0000
  C   C745      1.0  0.34167  0.59222  0.09266  1.0000
  C   C746      1.0  0.05395  0.74017  0.14890  1.0000
  Fe  Fe86      1.0  0.03534  0.60765  0.23773  1.0000
  H   H1342     1.0  0.06866  0.73778  0.14210  1.0000
  S   S170      1.0  0.05241  0.58061  0.22850  1.0000
  Fe  Fe87      1.0  0.02758  0.64142  0.26318  1.0000
  H   H1343     1.0  0.34283  0.60168  0.10392  1.0000
  N   N43       1.0  0.21184  0.70262  0.02731  1.0000
  Fe  Fe88      1.0  0.02010  0.64673  0.22149  1.0000
  H   H1344     1.0  0.01982  0.56801  0.29263  1.0000
  S   S171      1.0  0.01945  0.61154  0.26579  1.0000
  S   S172      1.0  0.04611  0.63633  0.23632  1.0000
  H   H1345     1.0  0.23291  0.71336  0.99502  1.0000
  S   S173      1.0  0.25969  0.60613  0.02634  1.0000
  Fe  Fe89      1.0  0.21167  0.63615  0.02037  1.0000
  S   S174      1.0  0.22963  0.63967  0.04366  1.0000
  S   S175      1.0  0.18445  0.65484  0.01409  1.0000
  Fe  Fe90      1.0  0.25469  0.63779  0.02181  1.0000
  S   S176      1.0  0.28089  0.65445  0.01582  1.0000
  Fe  Fe91      1.0  0.23337  0.60774  0.04625  1.0000
  S   S177      1.0  0.22930  0.59159  0.07478  1.0000
  C   C747      1.0  0.01576  0.70554  0.30187  1.0000
  S   S178      1.0  0.21386  0.60435  0.02421  1.0000
  H   H1346     1.0  0.12132  0.55064  0.29485  1.0000
  S   S179      1.0  0.07147  0.71537  0.09149  1.0000
  Fe  Fe92      1.0  0.04617  0.71661  0.04552  1.0000
  S   S180      1.0  0.05967  0.68959  0.05925  1.0000
  H   H1347     1.0  0.03505  0.61687  0.31443  1.0000
  Fe  Fe93      1.0  0.04663  0.70017  0.08685  1.0000
  S   S181      1.0  0.03444  0.67791  0.10830  1.0000
  Fe  Fe94      1.0  0.08442  0.70562  0.06349  1.0000
  S   S182      1.0  0.11441  0.69088  0.06729  1.0000
  S   S183      1.0  0.03127  0.72603  0.07282  1.0000
  S   S184      1.0  0.07221  0.73220  0.04765  1.0000
  S   S185      1.0  0.08768  0.51489  0.28370  1.0000
  C   C748      1.0  0.03990  0.74279  0.13392  1.0000
  H   H1348     1.0  0.17888  0.50502  0.26780  1.0000
  H   H1349     1.0  0.06182  0.59507  0.28179  1.0000
  H   H1350     1.0  0.35315  0.65955  0.06107  1.0000
  C   C749      1.0  0.16476  0.66395  0.02924  1.0000
  C   C750      1.0  0.16466  0.66210  0.04878  1.0000
  C   C751      1.0  0.14915  0.67045  0.06012  1.0000
  C   C752      1.0  0.13337  0.68047  0.05214  1.0000
  C   C753      1.0  0.13339  0.68215  0.03262  1.0000
  C   C754      1.0  0.14903  0.67402  0.02127  1.0000
  H   H1351     1.0  0.17658  0.65435  0.05515  1.0000
  H   H1352     1.0  0.14936  0.66912  0.07519  1.0000
  H   H1353     1.0  0.12143  0.68984  0.02625  1.0000
  Fe  Fe95      1.0  0.34397  0.73981  0.03718  1.0000
  C   C755      1.0  0.06127  0.56192  0.24394  1.0000
  C   C756      1.0  0.07331  0.54687  0.23661  1.0000
  C   C757      1.0  0.08116  0.53208  0.24856  1.0000
  C   C758      1.0  0.07708  0.53230  0.26798  1.0000
  C   C759      1.0  0.06466  0.54714  0.27527  1.0000
  C   C760      1.0  0.05670  0.56182  0.26330  1.0000
  H   H1354     1.0  0.07685  0.54679  0.22162  1.0000
  H   H1355     1.0  0.09070  0.52075  0.24277  1.0000
  H   H1356     1.0  0.06128  0.54732  0.29027  1.0000
  H   H1357     1.0  0.04699  0.57303  0.26898  1.0000
  C   C761      1.0  0.02911  0.67088  0.17312  1.0000
  C   C762      1.0  0.02276  0.65754  0.16262  1.0000
  C   C763      1.0  0.02469  0.65980  0.14282  1.0000
  C   C764      1.0  0.03324  0.67521  0.13326  1.0000
  C   C765      1.0  0.04023  0.68810  0.14377  1.0000
  C   C766      1.0  0.03793  0.68609  0.16353  1.0000
  H   H1358     1.0  0.04014  0.68313  0.99995  1.0000
  H   H1359     1.0  0.01928  0.64966  0.13487  1.0000
  H   H1360     1.0  0.04737  0.69960  0.13666  1.0000
  H   H1361     1.0  0.29054  0.62348  0.04101  1.0000
  C   C767      1.0  0.22926  0.52553  0.05286  1.0000
  H   H1362     1.0  0.00335  0.53434  0.27999  1.0000
  C   C768      1.0  0.04085  0.67672  0.31641  1.0000
  C   C769      1.0  0.49218  0.72749  0.20132  1.0000
  C   C770      1.0  0.26200  0.53511  0.09340  1.0000
  C   C771      1.0  0.26901  0.54599  0.07750  1.0000
  C   C772      1.0  0.25899  0.56312  0.07140  1.0000
  C   C773      1.0  0.24194  0.56967  0.08133  1.0000
  C   C774      1.0  0.23492  0.55879  0.09723  1.0000
  C   C775      1.0  0.24482  0.54152  0.10318  1.0000
  H   H1363     1.0  0.28229  0.54114  0.06985  1.0000
  H   H1364     1.0  0.26457  0.57135  0.05917  1.0000
  H   H1365     1.0  0.22180  0.56379  0.10506  1.0000
  H   H1366     1.0  0.23933  0.53336  0.11551  1.0000
  C   C776      1.0  0.30716  0.70484  0.03618  1.0000
  C   C777      1.0  0.31553  0.69558  0.02058  1.0000
  C   C778      1.0  0.30709  0.68043  0.01444  1.0000
  C   C779      1.0  0.29011  0.67437  0.02369  1.0000
  C   C780      1.0  0.28160  0.68373  0.03919  1.0000
  C   C781      1.0  0.29010  0.69882  0.04540  1.0000
  H   H1367     1.0  0.32863  0.69998  0.01335  1.0000
  H   H1368     1.0  0.19096  0.69312  0.01108  1.0000
  H   H1369     1.0  0.26865  0.67919  0.04655  1.0000
  H   H1370     1.0  0.28353  0.70584  0.05751  1.0000
  H   H1371     1.0  0.01588  0.64580  0.16975  1.0000
  C   C782      1.0  0.43628  0.72661  0.08977  1.0000
  H   H1372     1.0  0.45843  0.72473  0.10870  1.0000
  H   H1373     1.0  0.43198  0.71276  0.09435  1.0000
  H   H1374     1.0  0.10828  0.61444  0.26476  1.0000
  C   C783      1.0  0.17666  0.71680  0.02533  1.0000
  C   C784      1.0  0.02003  0.68866  0.29267  1.0000
  C   C785      1.0  0.03268  0.67412  0.29983  1.0000
  S   S186      1.0  0.27532  0.51370  0.10039  1.0000
  H   H1375     1.0  0.00932  0.71641  0.13829  1.0000
  C   C786      1.0  0.37705  0.73387  0.10915  1.0000
  H   H1376     1.0  0.31376  0.65109  0.04561  1.0000
  H   H1377     1.0  0.06990  0.62617  0.07762  1.0000
  C   C787      1.0  0.02391  0.70817  0.31844  1.0000
  H   H1378     1.0  0.48500  0.71713  0.19453  1.0000
  H   H1379     1.0  0.20803  0.51543  0.11413  1.0000
  H   H1380     1.0  0.22166  0.67602  0.01550  1.0000
  H   H1381     1.0  0.33264  0.60792  0.03683  1.0000
  H   H1382     1.0  0.21043  0.72693  0.04366  1.0000
  H   H1383     1.0  0.01676  0.73922  0.15597  1.0000
  C   C788      1.0  0.01248  0.50552  0.25729  1.0000
  H   H1384     1.0  0.01365  0.68698  0.27994  1.0000
  C   C789      1.0  0.10474  0.57493  0.30707  1.0000
  H   H1385     1.0  0.26755  0.61785  0.06534  1.0000
  H   H1386     1.0  0.45050  0.71157  0.04942  1.0000
  H   H1387     1.0  0.23403  0.56264  0.04101  1.0000
  H   H1388     1.0  0.16827  0.73468  0.00083  1.0000
  H   H1389     1.0  0.05103  0.72783  0.15880  1.0000
  H   H1390     1.0  0.36940  0.72423  0.11945  1.0000
  H   H1391     1.0  0.00063  0.55652  0.30579  1.0000
  H   H1392     1.0  0.26336  0.69282  0.99700  1.0000
  H   H1393     1.0  0.34543  0.61365  0.07043  1.0000
  H   H1394     1.0  0.01840  0.54621  0.21205  1.0000
  C   C790      1.0  0.09831  0.58377  0.28799  1.0000
  C   C791      1.0  0.49688  0.72426  0.03832  1.0000
  H   H1395     1.0  0.26071  0.50732  0.06624  1.0000
  H   H1396     1.0  0.09056  0.66097  0.31636  1.0000
  C   C792      1.0  0.48358  0.51944  0.22568  1.0000
  N   N44       1.0  0.30684  0.62702  0.06419  1.0000
  H   H1397     1.0  0.09748  0.54644  0.30451  1.0000
  C   C793      1.0  0.28821  0.63690  0.07205  1.0000
  H   H1398     1.0  0.24757  0.55857  0.01895  1.0000
  H   H1399     1.0  0.36324  0.50745  0.22642  1.0000
  C   C794      1.0  0.32389  0.65553  0.07201  1.0000
  C   C795      1.0  0.27166  0.62431  0.07766  1.0000
  C   C796      1.0  0.33478  0.60360  0.07525  1.0000
  C   C797      1.0  0.33938  0.66813  0.06414  1.0000
  C   C798      1.0  0.25405  0.63599  0.08608  1.0000
  C   C799      1.0  0.45131  0.73335  0.09791  1.0000
  H   H1400     1.0  0.06683  0.60300  0.32235  1.0000
  H   H1401     1.0  0.28302  0.64827  0.06167  1.0000
  H   H1402     1.0  0.29020  0.64399  0.08482  1.0000
  H   H1403     1.0  0.31472  0.62130  0.09260  1.0000
  H   H1404     1.0  0.46961  0.69873  0.03590  1.0000
  H   H1405     1.0  0.29835  0.60203  0.05321  1.0000
  H   H1406     1.0  0.31092  0.66502  0.07588  1.0000
  H   H1407     1.0  0.32873  0.64758  0.08485  1.0000
  H   H1408     1.0  0.27550  0.61281  0.08832  1.0000
  C   C800      1.0  0.00391  0.55340  0.21530  1.0000
  H   H1409     1.0  0.16942  0.70693  0.03577  1.0000
  H   H1410     1.0  0.17994  0.72907  0.03251  1.0000
  C   C801      1.0  0.47512  0.50299  0.22260  1.0000
  C   C802      1.0  0.23654  0.55306  0.02942  1.0000
  H   H1411     1.0  0.25693  0.64142  0.09944  1.0000
  H   H1412     1.0  0.24974  0.64806  0.07617  1.0000
  H   H1413     1.0  0.24207  0.62703  0.08902  1.0000
  C   C803      1.0  0.47826  0.72117  0.05101  1.0000
  H   H1414     1.0  0.08520  0.62704  0.26606  1.0000
  C   C804      1.0  0.06021  0.59664  0.31140  1.0000
  H   H1415     1.0  0.04305  0.69636  0.17153  1.0000
  C   C805      1.0  0.03871  0.60133  0.31496  1.0000
  C   C806      1.0  0.00247  0.57172  0.20274  1.0000
  H   H1416     1.0  0.33440  0.59344  0.06448  1.0000
  H   H1417     1.0  0.08890  0.57413  0.28291  1.0000
  H   H1418     1.0  0.49265  0.73447  0.02658  1.0000
  H   H1419     1.0  0.18319  0.51087  0.29083  1.0000
  C   C807      1.0  0.31884  0.61356  0.03175  1.0000
  H   H1420     1.0  0.23981  0.68687  0.02401  1.0000
  C   C808      1.0  0.19824  0.50899  0.10594  1.0000
  H   H1421     1.0  0.46066  0.72233  0.02771  1.0000
  H   H1422     1.0  0.23707  0.74182  0.05450  1.0000
  H   H1423     1.0  0.11267  0.61606  0.29623  1.0000
  H   H1424     1.0  0.08902  0.62580  0.23074  1.0000
  H   H1425     1.0  0.34130  0.67831  0.07451  1.0000
  H   H1426     1.0  0.00606  0.71669  0.29607  1.0000
  H   H1427     1.0  0.01424  0.72215  0.11409  1.0000
  C   C809      1.0  0.09719  0.61547  0.30046  1.0000
  H   H1428     1.0  0.06313  0.58104  0.31302  1.0000
  H   H1429     1.0  0.02719  0.52772  0.24148  1.0000
  H   H1430     1.0  0.05063  0.66562  0.32214  1.0000
  C   C810      1.0  0.43394  0.74523  0.99854  1.0000
  C   C811      1.0  0.20526  0.69192  0.04539  1.0000
  C   C812      1.0  0.19500  0.70652  0.01572  1.0000
  H   H1431     1.0  0.07267  0.63600  0.30771  1.0000
  Fe  Fe96      1.0  0.05765  0.74061  0.07542  1.0000
  H   H1432     1.0  0.01806  0.50774  0.27073  1.0000
  H   H1433     1.0  0.47144  0.73475  0.05599  1.0000
  C   C813      1.0  0.21995  0.68708  0.05998  1.0000
  C   C814      1.0  0.21156  0.67541  0.07704  1.0000
  H   H1434     1.0  0.32562  0.59834  0.00666  1.0000
  C   C815      1.0  0.16240  0.72383  0.01112  1.0000
  C   C816      1.0  0.00582  0.54560  0.26863  1.0000
  H   H1435     1.0  0.15881  0.71191  0.00357  1.0000
  S   S187      1.0  0.23660  0.63629  0.99807  1.0000
  H   H1436     1.0  0.19316  0.70010  0.05302  1.0000
  H   H1437     1.0  0.19984  0.67854  0.04226  1.0000
  H   H1438     1.0  0.21573  0.73212  0.01940  1.0000
  S   S188      1.0  0.40731  0.72881  0.06664  1.0000
  H   H1439     1.0  0.03123  0.59542  0.30432  1.0000
  C   C817      1.0  0.00415  0.56774  0.29474  1.0000
  H   H1440     1.0  0.07081  0.64598  0.06044  1.0000
  H   H1441     1.0  0.33383  0.63583  0.05118  1.0000
  Fe  Fe97      1.0  0.24010  0.60480  0.00382  1.0000
  H   H1442     1.0  0.35593  0.58473  0.08910  1.0000
  C   C818      1.0  0.01227  0.52378  0.24396  1.0000
  H   H1443     1.0  0.01839  0.65814  0.99939  1.0000
  H   H1444     1.0  0.23298  0.67892  0.05402  1.0000
  H   H1445     1.0  0.22380  0.70020  0.06524  1.0000
  H   H1446     1.0  0.22231  0.67210  0.08734  1.0000
  H   H1447     1.0  0.19888  0.68342  0.08397  1.0000
  H   H1448     1.0  0.20731  0.66194  0.07289  1.0000
  C   C819      1.0  0.22681  0.69010  0.01650  1.0000
  S   S189      1.0  0.49763  0.74323  0.15270  1.0000
  C   C820      1.0  0.11016  0.55370  0.30648  1.0000
  H   H1449     1.0  0.05457  0.64774  0.08130  1.0000
  C   C821      1.0  0.46394  0.71294  0.04027  1.0000
  H   H1450     1.0  0.11748  0.58142  0.31033  1.0000
  C   C822      1.0  0.24027  0.72116  0.03342  1.0000
  S   S190      1.0  0.03903  0.65264  0.28855  1.0000
  H   H1451     1.0  0.30081  0.60627  0.01116  1.0000
  H   H1452     1.0  0.25749  0.53353  0.04187  1.0000
  C   C823      1.0  0.08780  0.63600  0.30207  1.0000
  H   H1453     1.0  0.14191  0.63216  0.08038  1.0000
  H   H1454     1.0  0.32078  0.62736  0.02379  1.0000
  H   H1455     1.0  0.47488  0.53100  0.23204  1.0000
  H   H1456     1.0  0.31129  0.58619  0.02500  1.0000
  S   S191      1.0  0.01041  0.61764  0.22122  1.0000
  H   H1457     1.0  0.48529  0.72880  0.21578  1.0000
  S   S192      1.0  0.03237  0.72047  0.01736  1.0000
  H   H1458     1.0  0.14908  0.73021  0.01855  1.0000
  H   H1459     1.0  0.99887  0.57660  0.26641  1.0000
  C   C824      1.0  0.24334  0.53302  0.03669  1.0000
  C   C825      1.0  0.31471  0.61381  0.07964  1.0000
  H   H1460     1.0  0.14893  0.67556  0.00619  1.0000
  H   H1461     1.0  0.24532  0.52407  0.02469  1.0000
  Fe  Fe98      1.0  0.38419  0.74438  0.04935  1.0000
  C   C826      1.0  0.01054  0.71582  0.00876  1.0000
  H   H1462     1.0  0.02147  0.54661  0.26691  1.0000
  Fe  Fe99      1.0  0.49753  0.74679  0.12112  1.0000
  H   H1463     1.0  0.18362  0.51584  0.10916  1.0000
  S   S193      1.0  0.02550  0.67002  0.19806  1.0000
  C   C827      1.0  0.23262  0.69781  0.99610  1.0000
  H   H1464     1.0  0.24545  0.70961  0.04337  1.0000
  H   H1465     1.0  0.10251  0.70904  0.11760  1.0000
  H   H1466     1.0  0.04115  0.72987  0.12625  1.0000
  H   H1467     1.0  0.37157  0.73332  0.09533  1.0000
  H   H1468     1.0  0.39243  0.72876  0.10810  1.0000
  H   H1469     1.0  0.19885  0.71520  0.00259  1.0000
  H   H1470     1.0  0.14770  0.60958  0.09261  1.0000
  C   C828      1.0  0.31377  0.60023  0.01786  1.0000
  H   H1471     1.0  0.33174  0.58153  0.09796  1.0000
  H   H1472     1.0  0.26017  0.73935  0.04154  1.0000
  H   H1473     1.0  0.21452  0.52919  0.04877  1.0000
  H   H1474     1.0  0.23061  0.53452  0.06455  1.0000
  N   N45       1.0  0.08880  0.60380  0.28734  1.0000
  C   C829      1.0  0.31987  0.64207  0.05733  1.0000
  H   H1475     1.0  0.09252  0.58681  0.25242  1.0000
  H   H1476     1.0  0.07118  0.60273  0.25215  1.0000
  H   H1477     1.0  0.20288  0.52735  0.08131  1.0000
  H   H1478     1.0  0.48087  0.71127  0.06340  1.0000
  C   C830      1.0  0.06756  0.60391  0.29141  1.0000
  C   C831      1.0  0.08690  0.60190  0.25161  1.0000
  H   H1479     1.0  0.06048  0.61824  0.28821  1.0000
  H   H1480     1.0  0.08881  0.60328  0.22125  1.0000
  H   H1481     1.0  0.10444  0.70910  0.14237  1.0000
  C   C832      1.0  0.09282  0.61266  0.26768  1.0000
  H   H1482     1.0  0.08850  0.64434  0.28837  1.0000
  H   H1483     1.0  0.33535  0.67633  0.05109  1.0000
  H   H1484     1.0  0.11149  0.58276  0.27813  1.0000
  C   C833      1.0  0.09416  0.61059  0.23242  1.0000
  H   H1485     1.0  0.08184  0.70613  0.13418  1.0000
  H   H1486     1.0  0.09641  0.60888  0.31498  1.0000
  H   H1487     1.0  0.22320  0.55318  0.02253  1.0000
  H   H1488     1.0  0.15352  0.63074  0.10184  1.0000
  H   H1489     1.0  0.30527  0.60238  0.08370  1.0000
  C   C834      1.0  0.30283  0.61617  0.04801  1.0000
  H   H1490     1.0  0.10996  0.60894  0.23064  1.0000
  N   N46       1.0  0.09644  0.65080  0.11817  1.0000
  C   C835      1.0  0.08237  0.64352  0.10681  1.0000
  C   C836      1.0  0.09489  0.64088  0.13753  1.0000
  C   C837      1.0  0.09188  0.67187  0.11885  1.0000
  C   C838      1.0  0.11656  0.64707  0.10937  1.0000
  C   C839      1.0  0.12336  0.62620  0.10581  1.0000
  C   C840      1.0  0.08434  0.64942  0.08552  1.0000
  C   C841      1.0  0.10251  0.68139  0.13282  1.0000
  C   C842      1.0  0.07542  0.64463  0.14923  1.0000
  C   C843      1.0  0.07580  0.63504  0.16901  1.0000
  C   C844      1.0  0.14282  0.62465  0.09449  1.0000
  C   C845      1.0  0.06893  0.64181  0.07569  1.0000
  C   C846      1.0  0.09746  0.70273  0.13162  1.0000
  H   H1491     1.0  0.06756  0.64854  0.11209  1.0000
  H   H1492     1.0  0.08300  0.62786  0.10860  1.0000
  H   H1493     1.0  0.09729  0.62532  0.13665  1.0000
  H   H1494     1.0  0.10635  0.64441  0.14575  1.0000
  H   H1495     1.0  0.07633  0.67558  0.12208  1.0000
  H   H1496     1.0  0.09525  0.67909  0.10478  1.0000
  H   H1497     1.0  0.11870  0.65588  0.09592  1.0000
  H   H1498     1.0  0.12682  0.65160  0.11839  1.0000
  H   H1499     1.0  0.11340  0.61978  0.09789  1.0000
  H   H1500     1.0  0.12477  0.61768  0.11931  1.0000
  H   H1501     1.0  0.08296  0.66497  0.08310  1.0000
  H   H1502     1.0  0.09829  0.64391  0.07868  1.0000
  H   H1503     1.0  0.11814  0.67882  0.12979  1.0000
  H   H1504     1.0  0.09864  0.67608  0.14749  1.0000
  H   H1505     1.0  0.07152  0.65989  0.15065  1.0000
  H   H1506     1.0  0.06396  0.63902  0.14256  1.0000
  H   H1507     1.0  0.06167  0.63793  0.17696  1.0000
  H   H1508     1.0  0.07896  0.61952  0.16853  1.0000
  H   H1509     1.0  0.08662  0.64064  0.17661  1.0000
  H   H1510     1.0  0.01397  0.58043  0.20507  1.0000
  C   C847      1.0  0.24462  0.73971  0.04042  1.0000
  C   C848      1.0  0.21870  0.72121  0.03102  1.0000
  H   H1511     1.0  0.00884  0.51976  0.23023  1.0000
  H   H1512     1.0  0.20600  0.49860  0.04951  1.0000
  H   H1513     1.0  0.31385  0.67328  0.00247  1.0000
  H   H1514     1.0  0.48788  0.50216  0.26318  1.0000
  H   H1515     1.0  0.05132  0.65987  0.00569  1.0000
  H   H1516     1.0  0.09355  0.57708  0.31876  1.0000
  H   H1517     1.0  0.11285  0.64733  0.31030  1.0000
  C   C849      1.0  0.09767  0.64641  0.31546  1.0000
  H   H1518     1.0  0.49024  0.74138  0.19328  1.0000
  H   H1519     1.0  0.00082  0.69806  0.03265  1.0000
  H   H1520     1.0  0.43450  0.73950  0.01332  1.0000
  H   H1521     1.0  0.00416  0.56846  0.18779  1.0000
  S   S194      1.0  0.00190  0.65304  0.24854  1.0000
  H   H1522     1.0  0.23424  0.50885  0.08876  1.0000
  H   H1523     1.0  0.46012  0.50208  0.22656  1.0000
  C   C850      1.0  0.17890  0.49967  0.28275  1.0000
  N   N47       1.0  0.23223  0.50483  0.05952  1.0000
  C   C851      1.0  0.22471  0.50275  0.07996  1.0000
  H   H1524     1.0  0.19371  0.50556  0.07752  1.0000
  H   H1525     1.0  0.11568  0.54787  0.31990  1.0000
  N   N48       1.0  0.00375  0.74642  0.13000  1.0000
  C   C852      1.0  0.03647  0.69357  0.32569  1.0000
  C   C853      1.0  0.00397  0.72574  0.12634  1.0000
  H   H1526     1.0  0.25984  0.49995  0.04366  1.0000
  C   C854      1.0  0.00088  0.55736  0.23636  1.0000
  H   H1527     1.0  0.22411  0.50527  0.01994  1.0000
  N   N49       1.0  0.99920  0.54053  0.25050  1.0000
  C   C855      1.0  0.01928  0.74800  0.14254  1.0000
  C   C856      1.0  0.04528  0.66933  0.99426  1.0000
  Fe  Fe100     1.0  0.39398  0.59352  0.60088  1.0000
  S   S195      1.0  0.37246  0.61093  0.58385  1.0000
  S   S196      1.0  0.41672  0.56981  0.59250  1.0000
  Fe  Fe101     1.0  0.37974  0.61196  0.63725  1.0000
  S   S197      1.0  0.35728  0.63031  0.62273  1.0000
  C   C857      1.0  0.40039  0.53613  0.65388  1.0000
  Fe  Fe102     1.0  0.35137  0.60491  0.60871  1.0000
  S   S198      1.0  0.31923  0.60316  0.60992  1.0000
  Fe  Fe103     1.0  0.37959  0.63538  0.59913  1.0000
  S   S199      1.0  0.37699  0.66573  0.58605  1.0000
  S   S200      1.0  0.37232  0.58601  0.62496  1.0000
  S   S201      1.0  0.40266  0.61849  0.61441  1.0000
  H   H1528     1.0  0.44570  0.73991  0.50284  1.0000
  Fe  Fe104     1.0  0.47211  0.51484  0.50775  1.0000
  S   S202      1.0  0.44669  0.53672  0.51365  1.0000
  H   H1529     1.0  0.99967  0.74450  0.53760  1.0000
  H   H1530     1.0  0.45687  0.67706  0.53401  1.0000
  S   S203      1.0  0.01476  0.73202  0.38590  1.0000
  S   S204      1.0  0.42494  0.73460  0.59585  1.0000
  H   H1531     1.0  0.18088  0.70589  0.57833  1.0000
  Fe  Fe105     1.0  0.14273  0.71255  0.51793  1.0000
  H   H1532     1.0  0.33681  0.61181  0.52560  1.0000
  S   S205      1.0  0.15795  0.68327  0.51248  1.0000
  H   H1533     1.0  0.29695  0.60767  0.56356  1.0000
  H   H1534     1.0  0.10397  0.72231  0.46379  1.0000
  S   S206      1.0  0.11096  0.71983  0.51914  1.0000
  H   H1535     1.0  0.14409  0.56146  0.63301  1.0000
  Fe  Fe106     1.0  0.19629  0.54561  0.58718  1.0000
  S   S207      1.0  0.17975  0.56021  0.56420  1.0000
  S   S208      1.0  0.17622  0.52930  0.60800  1.0000
  Fe  Fe107     1.0  0.23317  0.56016  0.56812  1.0000
  S   S209      1.0  0.21855  0.57577  0.54404  1.0000
  S   S210      1.0  0.26566  0.55825  0.56700  1.0000
  Fe  Fe108     1.0  0.19575  0.58524  0.56634  1.0000
  S   S211      1.0  0.17867  0.61370  0.57135  1.0000
  Fe  Fe109     1.0  0.20360  0.54931  0.54369  1.0000
  S   S212      1.0  0.19432  0.53811  0.51717  1.0000
  S   S213      1.0  0.21126  0.57126  0.59053  1.0000
  S   S214      1.0  0.21932  0.53320  0.56645  1.0000
  C   C858      1.0  0.20012  0.51614  0.50658  1.0000
  H   H1536     1.0  0.07386  0.67408  0.54414  1.0000
  H   H1537     1.0  0.41651  0.56232  0.63218  1.0000
  H   H1538     1.0  0.41030  0.58254  0.64558  1.0000
  H   H1539     1.0  0.40469  0.52609  0.51766  1.0000
  C   C859      1.0  0.16426  0.66452  0.52934  1.0000
  C   C860      1.0  0.17657  0.64890  0.52349  1.0000
  C   C861      1.0  0.18149  0.63346  0.53625  1.0000
  C   C862      1.0  0.17387  0.63330  0.55496  1.0000
  C   C863      1.0  0.16169  0.64897  0.56086  1.0000
  C   C864      1.0  0.15697  0.66453  0.54817  1.0000
  H   H1540     1.0  0.18244  0.64883  0.50902  1.0000
  H   H1541     1.0  0.19120  0.62172  0.53168  1.0000
  H   H1542     1.0  0.15575  0.64904  0.57530  1.0000
  H   H1543     1.0  0.14747  0.67640  0.55288  1.0000
  C   C865      1.0  0.19075  0.52734  0.64279  1.0000
  C   C866      1.0  0.17488  0.52659  0.63293  1.0000
  C   C867      1.0  0.15739  0.52321  0.64309  1.0000
  H   H1544     1.0  0.20435  0.52969  0.63522  1.0000
  H   H1545     1.0  0.14505  0.52239  0.63562  1.0000
  H   H1546     1.0  0.05757  0.72270  0.49507  1.0000
  H   H1547     1.0  0.04809  0.69794  0.55209  1.0000
  H   H1548     1.0  0.13227  0.53418  0.54572  1.0000
  S   S215      1.0  0.01807  0.73006  0.32913  1.0000
  N   N50       1.0  0.40836  0.50420  0.48536  1.0000
  Fe  Fe110     1.0  0.04198  0.74202  0.39358  1.0000
  S   S216      1.0  0.14615  0.72826  0.54288  1.0000
  C   C868      1.0  0.45848  0.68316  0.54742  1.0000
  H   H1549     1.0  0.21914  0.58097  0.65205  1.0000
  C   C869      1.0  0.42477  0.56102  0.57032  1.0000
  C   C870      1.0  0.43972  0.54643  0.56936  1.0000
  C   C871      1.0  0.44666  0.53892  0.55216  1.0000
  C   C872      1.0  0.43868  0.54591  0.53566  1.0000
  C   C873      1.0  0.42368  0.56047  0.53659  1.0000
  C   C874      1.0  0.41674  0.56801  0.55381  1.0000
  H   H1550     1.0  0.44603  0.54092  0.58202  1.0000
  H   H1551     1.0  0.45819  0.52774  0.55168  1.0000
  H   H1552     1.0  0.41751  0.56607  0.52389  1.0000
  H   H1553     1.0  0.40527  0.57924  0.55429  1.0000
  C   C875      1.0  0.30477  0.58967  0.59856  1.0000
  C   C876      1.0  0.28486  0.59307  0.60182  1.0000
  C   C877      1.0  0.27268  0.58340  0.59253  1.0000
  C   C878      1.0  0.28030  0.57026  0.57973  1.0000
  C   C879      1.0  0.30022  0.56679  0.57653  1.0000
  C   C880      1.0  0.31241  0.57636  0.58594  1.0000
  H   H1554     1.0  0.27880  0.60333  0.61156  1.0000
  H   H1555     1.0  0.25741  0.58621  0.59515  1.0000
  H   H1556     1.0  0.30625  0.55661  0.56671  1.0000
  H   H1557     1.0  0.32767  0.57352  0.58334  1.0000
  C   C881      1.0  0.39032  0.68463  0.58967  1.0000
  C   C882      1.0  0.38178  0.70329  0.58764  1.0000
  C   C883      1.0  0.39207  0.71876  0.58961  1.0000
  C   C884      1.0  0.41116  0.71574  0.59331  1.0000
  C   C885      1.0  0.41972  0.69708  0.59531  1.0000
  C   C886      1.0  0.40938  0.68162  0.59350  1.0000
  H   H1558     1.0  0.36710  0.70582  0.58449  1.0000
  H   H1559     1.0  0.38527  0.73302  0.58810  1.0000
  H   H1560     1.0  0.43449  0.69459  0.59815  1.0000
  H   H1561     1.0  0.41625  0.66739  0.59465  1.0000
  C   C887      1.0  0.34365  0.67583  0.64350  1.0000
  H   H1562     1.0  0.42784  0.50489  0.50661  1.0000
  N   N51       1.0  0.31299  0.63140  0.55399  1.0000
  C   C888      1.0  0.40020  0.69543  0.64497  1.0000
  H   H1563     1.0  0.38087  0.50994  0.50098  1.0000
  H   H1564     1.0  0.21360  0.56778  0.63335  1.0000
  H   H1565     1.0  0.03211  0.70746  0.48274  1.0000
  H   H1566     1.0  0.38510  0.52571  0.48112  1.0000
  H   H1567     1.0  0.04933  0.69449  0.52736  1.0000
  H   H1568     1.0  0.47378  0.68206  0.54982  1.0000
  H   H1569     1.0  0.40110  0.50248  0.44689  1.0000
  H   H1570     1.0  0.01289  0.67810  0.62435  1.0000
  H   H1571     1.0  0.03363  0.59524  0.32905  1.0000
  C   C889      1.0  0.39218  0.51774  0.49289  1.0000
  H   H1572     1.0  0.16293  0.73708  0.57777  1.0000
  C   C890      1.0  0.14674  0.57538  0.60539  1.0000
  C   C891      1.0  0.31433  0.64453  0.53645  1.0000
  H   H1573     1.0  0.24653  0.62613  0.55464  1.0000
  H   H1574     1.0  0.36997  0.53631  0.52154  1.0000
  H   H1575     1.0  0.16155  0.56959  0.60153  1.0000
  C   C892      1.0  0.13354  0.56273  0.59798  1.0000
  C   C893      1.0  0.40093  0.73521  0.54255  1.0000
  H   H1576     1.0  0.03409  0.73244  0.56073  1.0000
  H   H1577     1.0  0.47520  0.71205  0.52994  1.0000
  C   C894      1.0  0.44996  0.70371  0.54711  1.0000
  H   H1578     1.0  0.12747  0.58167  0.62981  1.0000
  H   H1579     1.0  0.29955  0.65528  0.56873  1.0000
  H   H1580     1.0  0.04211  0.72453  0.46581  1.0000
  H   H1581     1.0  0.32781  0.66859  0.54409  1.0000
  H   H1582     1.0  0.19772  0.73126  0.59000  1.0000
  H   H1583     1.0  0.43333  0.67308  0.63272  1.0000
  C   C895      1.0  0.06047  0.73635  0.59006  1.0000
  H   H1584     1.0  0.33639  0.67871  0.63045  1.0000
  N   N52       1.0  0.45522  0.73711  0.53076  1.0000
  H   H1585     1.0  0.14445  0.58949  0.59785  1.0000
  H   H1586     1.0  0.27466  0.64408  0.54766  1.0000
  Fe  Fe111     1.0  0.11707  0.74585  0.50070  1.0000
  H   H1587     1.0  0.45788  0.74193  0.56987  1.0000
  H   H1588     1.0  0.26156  0.60483  0.55979  1.0000
  H   H1589     1.0  0.20476  0.56157  0.65732  1.0000
  H   H1590     1.0  0.17404  0.56323  0.64285  1.0000
  H   H1591     1.0  0.03280  0.73890  0.60589  1.0000
  H   H1592     1.0  0.43804  0.58710  0.62330  1.0000
  H   H1593     1.0  0.31869  0.67612  0.51168  1.0000
  H   H1594     1.0  0.11842  0.56817  0.60116  1.0000
  H   H1595     1.0  0.13655  0.56247  0.58255  1.0000
  H   H1596     1.0  0.13591  0.54806  0.60433  1.0000
  C   C896      1.0  0.17260  0.50348  0.55551  1.0000
  C   C897      1.0  0.08427  0.72327  0.44249  1.0000
  H   H1597     1.0  0.37837  0.50611  0.46029  1.0000
  H   H1598     1.0  0.04498  0.74566  0.49024  1.0000
  C   C898      1.0  0.42154  0.51513  0.47184  1.0000
  H   H1599     1.0  0.45515  0.71081  0.51759  1.0000
  C   C899      1.0  0.45601  0.74585  0.51083  1.0000
  C   C900      1.0  0.39764  0.53273  0.50534  1.0000
  C   C901      1.0  0.46987  0.74555  0.54048  1.0000
  H   H1600     1.0  0.40874  0.73264  0.63964  1.0000
  H   H1601     1.0  0.48924  0.55255  0.40106  1.0000
  S   S217      1.0  0.14861  0.73745  0.49737  1.0000
  C   C902      1.0  0.38004  0.54505  0.51281  1.0000
  H   H1602     1.0  0.17091  0.74353  0.64095  1.0000
  C   C903      1.0  0.15566  0.60697  0.62505  1.0000
  C   C904      1.0  0.15925  0.62422  0.63554  1.0000
  H   H1603     1.0  0.31173  0.65497  0.60691  1.0000
  H   H1604     1.0  0.11402  0.74376  0.37826  1.0000
  H   H1605     1.0  0.06437  0.72226  0.59608  1.0000
  H   H1606     1.0  0.41340  0.52437  0.46158  1.0000
  H   H1607     1.0  0.42863  0.52501  0.47941  1.0000
  H   H1608     1.0  0.40235  0.64709  0.64901  1.0000
  C   C905      1.0  0.38355  0.50988  0.64306  1.0000
  H   H1609     1.0  0.09671  0.63913  0.32974  1.0000
  H   H1610     1.0  0.33397  0.66515  0.60122  1.0000
  H   H1611     1.0  0.40740  0.54220  0.49722  1.0000
  H   H1612     1.0  0.37237  0.52003  0.63710  1.0000
  H   H1613     1.0  0.42257  0.72495  0.52197  1.0000
  C   C906      1.0  0.16166  0.74248  0.61303  1.0000
  H   H1614     1.0  0.49569  0.54969  0.42485  1.0000
  H   H1615     1.0  0.43381  0.73683  0.55467  1.0000
  C   C907      1.0  0.10001  0.74312  0.38653  1.0000
  H   H1616     1.0  0.31350  0.67476  0.58945  1.0000
  H   H1617     1.0  0.15053  0.64512  0.61334  1.0000
  C   C908      1.0  0.33072  0.65744  0.53403  1.0000
  C   C909      1.0  0.09271  0.73067  0.45689  1.0000
  H   H1618     1.0  0.17580  0.63794  0.61202  1.0000
  H   H1619     1.0  0.48671  0.74509  0.58454  1.0000
  H   H1620     1.0  0.37276  0.55276  0.50106  1.0000
  C   C910      1.0  0.40654  0.66119  0.64330  1.0000
  H   H1621     1.0  0.38438  0.55555  0.52170  1.0000
  H   H1622     1.0  0.32939  0.60897  0.56888  1.0000
  H   H1623     1.0  0.30178  0.63369  0.58297  1.0000
  H   H1624     1.0  0.46092  0.50672  0.43918  1.0000
  C   C911      1.0  0.17503  0.74554  0.57336  1.0000
  H   H1625     1.0  0.19439  0.59931  0.63524  1.0000
  H   H1626     1.0  0.39705  0.69600  0.63008  1.0000
  H   H1627     1.0  0.17820  0.52204  0.48761  1.0000
  C   C912      1.0  0.47156  0.73900  0.56132  1.0000
  Fe  Fe112     1.0  0.02430  0.74237  0.35622  1.0000
  H   H1628     1.0  0.45326  0.64282  0.62985  1.0000
  H   H1629     1.0  0.10167  0.73332  0.39923  1.0000
  C   C913      1.0  0.37542  0.67409  0.65712  1.0000
  H   H1630     1.0  0.06922  0.72286  0.52156  1.0000
  C   C914      1.0  0.19008  0.58708  0.64467  1.0000
  C   C915      1.0  0.29637  0.61996  0.55302  1.0000
  H   H1631     1.0  0.27294  0.63356  0.57125  1.0000
  H   H1632     1.0  0.14172  0.61124  0.61926  1.0000
  H   H1633     1.0  0.37066  0.66825  0.62843  1.0000
  C   C916      1.0  0.32103  0.66153  0.59537  1.0000
  H   H1634     1.0  0.33575  0.65714  0.50359  1.0000
  H   H1635     1.0  0.38759  0.73096  0.62804  1.0000
  C   C917      1.0  0.16287  0.64120  0.62172  1.0000
  C   C918      1.0  0.44853  0.51539  0.44583  1.0000
  H   H1636     1.0  0.29722  0.61385  0.53917  1.0000
  H   H1637     1.0  0.45128  0.70890  0.56095  1.0000
  H   H1638     1.0  0.14808  0.74125  0.60715  1.0000
  H   H1639     1.0  0.33449  0.63504  0.58691  1.0000
  C   C919      1.0  0.17482  0.57760  0.63593  1.0000
  H   H1640     1.0  0.36603  0.60055  0.54132  1.0000
  H   H1641     1.0  0.15426  0.50829  0.53238  1.0000
  H   H1642     1.0  0.35310  0.58333  0.55586  1.0000
  H   H1643     1.0  0.45383  0.52737  0.45198  1.0000
  C   C920      1.0  0.14655  0.53042  0.55078  1.0000
  C   C921      1.0  0.05851  0.72168  0.53379  1.0000
  C   C922      1.0  0.15755  0.74293  0.63428  1.0000
  C   C923      1.0  0.36483  0.67815  0.63913  1.0000
  C   C924      1.0  0.15309  0.50977  0.54775  1.0000
  H   H1644     1.0  0.33733  0.65425  0.56985  1.0000
  N   N53       1.0  0.15522  0.58806  0.63620  1.0000
  C   C925      1.0  0.05639  0.70035  0.53833  1.0000
  H   H1645     1.0  0.47634  0.72372  0.56286  1.0000
  H   H1646     1.0  0.34344  0.62523  0.55587  1.0000
  C   C926      1.0  0.20795  0.57347  0.64694  1.0000
  C   C927      1.0  0.07331  0.74501  0.57670  1.0000
  H   H1647     1.0  0.14650  0.62835  0.64516  1.0000
  C   C928      1.0  0.30929  0.64227  0.57141  1.0000
  H   H1648     1.0  0.30110  0.65423  0.53570  1.0000
  H   H1649     1.0  0.43302  0.64397  0.61649  1.0000
  C   C929      1.0  0.02672  0.73146  0.54788  1.0000
  C   C930      1.0  0.18956  0.51193  0.49212  1.0000
  S   S218      1.0  0.06058  0.72469  0.41422  1.0000
  C   C931      1.0  0.07008  0.73417  0.43292  1.0000
  H   H1650     1.0  0.41559  0.69745  0.64429  1.0000
  C   C932      1.0  0.43564  0.74285  0.53996  1.0000
  H   H1651     1.0  0.44486  0.58598  0.64689  1.0000
  C   C933      1.0  0.42861  0.66036  0.64107  1.0000
  C   C934      1.0  0.33225  0.66752  0.51440  1.0000
  C   C935      1.0  0.35396  0.59170  0.54211  1.0000
  H   H1652     1.0  0.45077  0.56592  0.63277  1.0000
  H   H1653     1.0  0.34375  0.67708  0.51323  1.0000
  H   H1654     1.0  0.34470  0.64947  0.53603  1.0000
  C   C936      1.0  0.41886  0.73801  0.52943  1.0000
  H   H1655     1.0  0.43908  0.52098  0.43483  1.0000
  C   C937      1.0  0.03348  0.72276  0.47950  1.0000
  C   C938      1.0  0.33529  0.60400  0.53956  1.0000
  H   H1656     1.0  0.00430  0.74185  0.57982  1.0000
  H   H1657     1.0  0.17153  0.62133  0.64400  1.0000
  H   H1658     1.0  0.43454  0.70380  0.54567  1.0000
  H   H1659     1.0  0.15662  0.53965  0.54275  1.0000
  C   C939      1.0  0.04332  0.73063  0.49471  1.0000
  H   H1660     1.0  0.08380  0.69475  0.55012  1.0000
  H   H1661     1.0  0.02674  0.71463  0.51636  1.0000
  H   H1662     1.0  0.18356  0.51033  0.54591  1.0000
  H   H1663     1.0  0.02183  0.71708  0.54895  1.0000
  H   H1664     1.0  0.40192  0.66282  0.62890  1.0000
  H   H1665     1.0  0.48198  0.72858  0.50027  1.0000
  H   H1666     1.0  0.15101  0.72997  0.64008  1.0000
  H   H1667     1.0  0.20558  0.73853  0.56622  1.0000
  H   H1668     1.0  0.36597  0.69274  0.63287  1.0000
  H   H1669     1.0  0.43527  0.54697  0.65961  1.0000
  N   N54       1.0  0.16265  0.59268  0.49888  1.0000
  C   C940      1.0  0.18340  0.59138  0.50226  1.0000
  C   C941      1.0  0.15104  0.60251  0.51460  1.0000
  C   C942      1.0  0.15725  0.57292  0.49796  1.0000
  C   C943      1.0  0.15895  0.60381  0.48062  1.0000
  C   C944      1.0  0.16550  0.62403  0.47825  1.0000
  C   C945      1.0  0.19771  0.58419  0.48600  1.0000
  C   C946      1.0  0.13571  0.57081  0.49817  1.0000
  C   C947      1.0  0.15216  0.59245  0.53445  1.0000
  C   C948      1.0  0.13764  0.60203  0.54869  1.0000
  C   C949      1.0  0.16231  0.63332  0.45875  1.0000
  C   C950      1.0  0.21814  0.58245  0.49137  1.0000
  C   C951      1.0  0.13240  0.55024  0.49648  1.0000
  H   H1670     1.0  0.18616  0.58168  0.51486  1.0000
  H   H1671     1.0  0.18737  0.60524  0.50568  1.0000
  H   H1672     1.0  0.15574  0.61672  0.51559  1.0000
  H   H1673     1.0  0.13585  0.60526  0.51168  1.0000
  H   H1674     1.0  0.16269  0.56343  0.50968  1.0000
  H   H1675     1.0  0.16428  0.56668  0.48505  1.0000
  H   H1676     1.0  0.16556  0.59592  0.46851  1.0000
  H   H1677     1.0  0.14346  0.60554  0.47890  1.0000
  H   H1678     1.0  0.18083  0.62394  0.48006  1.0000
  H   H1679     1.0  0.15730  0.63320  0.48856  1.0000
  H   H1680     1.0  0.19482  0.57004  0.48238  1.0000
  H   H1681     1.0  0.19702  0.59403  0.47327  1.0000
  H   H1682     1.0  0.12948  0.57939  0.48632  1.0000
  H   H1683     1.0  0.12784  0.57522  0.51147  1.0000
  H   H1684     1.0  0.14941  0.57744  0.53492  1.0000
  H   H1685     1.0  0.16651  0.59314  0.53907  1.0000
  H   H1686     1.0  0.13953  0.61727  0.54862  1.0000
  H   H1687     1.0  0.12293  0.60046  0.54549  1.0000
  H   H1688     1.0  0.13969  0.59542  0.56296  1.0000
  H   H1689     1.0  0.16685  0.64783  0.45754  1.0000
  H   H1690     1.0  0.17079  0.62516  0.44776  1.0000
  H   H1691     1.0  0.14700  0.63435  0.45636  1.0000
  H   H1692     1.0  0.22005  0.57131  0.50293  1.0000
  H   H1693     1.0  0.22812  0.57835  0.47915  1.0000
  H   H1694     1.0  0.22178  0.59607  0.49578  1.0000
  H   H1695     1.0  0.14565  0.53291  0.56591  1.0000
  H   H1696     1.0  0.13828  0.54103  0.50817  1.0000
  H   H1697     1.0  0.11690  0.54891  0.49701  1.0000
  S   S219      1.0  0.48451  0.51410  0.47751  1.0000
  H   H1698     1.0  0.08426  0.68954  0.52581  1.0000
  H   H1699     1.0  0.43335  0.62995  0.63871  1.0000
  H   H1700     1.0  0.22321  0.50587  0.52307  1.0000
  H   H1701     1.0  0.16640  0.60582  0.61264  1.0000
  C   C952      1.0  0.07579  0.68906  0.53967  1.0000
  H   H1702     1.0  0.38896  0.73340  0.53425  1.0000
  H   H1703     1.0  0.08903  0.70916  0.43848  1.0000
  N   N55       1.0  0.04046  0.73426  0.53062  1.0000
  H   H1704     1.0  0.14193  0.50100  0.55445  1.0000
  H   H1705     1.0  0.32400  0.59432  0.53976  1.0000
  C   C953      1.0  0.14274  0.57633  0.62698  1.0000
  H   H1706     1.0  0.18494  0.59181  0.65873  1.0000
  H   H1707     1.0  0.06526  0.72652  0.54564  1.0000
  H   H1708     1.0  0.31517  0.63643  0.52378  1.0000
  C   C954      1.0  0.42088  0.57017  0.64341  1.0000
  S   S220      1.0  0.09562  0.73252  0.57009  1.0000
  C   C955      1.0  0.27614  0.63054  0.55629  1.0000
  H   H1709     1.0  0.13930  0.54527  0.48296  1.0000
  H   H1710     1.0  0.18073  0.57524  0.62136  1.0000
  C   C956      1.0  0.26086  0.61863  0.55145  1.0000
  C   C957      1.0  0.03132  0.72911  0.51392  1.0000
  H   H1711     1.0  0.16505  0.65348  0.62949  1.0000
  C   C958      1.0  0.32690  0.64779  0.58019  1.0000
  H   H1712     1.0  0.40334  0.72232  0.55205  1.0000
  H   H1713     1.0  0.39115  0.54520  0.64436  1.0000
  C   C959      1.0  0.39324  0.73108  0.64188  1.0000
  H   H1714     1.0  0.43457  0.65941  0.65482  1.0000
  C   C960      1.0  0.33063  0.61775  0.55535  1.0000
  H   H1715     1.0  0.45091  0.67478  0.55901  1.0000
  C   C961      1.0  0.43751  0.64319  0.63091  1.0000
  H   H1716     1.0  0.35682  0.58176  0.53085  1.0000
  C   C962      1.0  0.45954  0.71592  0.53057  1.0000
  H   H1717     1.0  0.17287  0.51001  0.56894  1.0000
  H   H1718     1.0  0.41343  0.53150  0.64476  1.0000
  H   H1719     1.0  0.26269  0.61607  0.53631  1.0000
  C   C963      1.0  0.43984  0.57773  0.63625  1.0000
  Fe  Fe113     1.0  0.11467  0.73722  0.54297  1.0000
  H   H1720     1.0  0.38606  0.74353  0.64890  1.0000
  H   H1721     1.0  0.20588  0.70399  0.57044  1.0000
  H   H1722     1.0  0.09021  0.73732  0.37788  1.0000
  C   C964      1.0  0.21480  0.50284  0.51215  1.0000
  H   H1723     1.0  0.18875  0.71364  0.55446  1.0000
  C   C965      1.0  0.43787  0.50316  0.46095  1.0000
  C   C966      1.0  0.19377  0.73256  0.57538  1.0000
  C   C967      1.0  0.19216  0.71283  0.56929  1.0000
  H   H1724     1.0  0.48435  0.74234  0.53341  1.0000
  C   C968      1.0  0.04258  0.74575  0.59568  1.0000
  H   H1725     1.0  0.17101  0.72937  0.61028  1.0000
  H   H1726     1.0  0.04289  0.69531  0.33838  1.0000
  H   H1727     1.0  0.39537  0.50705  0.63199  1.0000
  H   H1728     1.0  0.39683  0.74753  0.55101  1.0000
  H   H1729     1.0  0.01918  0.73038  0.47815  1.0000
  H   H1730     1.0  0.19908  0.50020  0.58158  1.0000
  C   C969      1.0  0.00838  0.74542  0.54937  1.0000
  H   H1731     1.0  0.01801  0.73843  0.51207  1.0000
  C   C970      1.0  0.14639  0.59049  0.65599  1.0000
  C   C971      1.0  0.38947  0.71299  0.65398  1.0000
  N   N56       1.0  0.39641  0.67655  0.65487  1.0000
  H   H1732     1.0  0.34152  0.66122  0.64928  1.0000
  H   H1733     1.0  0.13185  0.59804  0.65560  1.0000
  H   H1734     1.0  0.00080  0.69830  0.63527  1.0000
  H   H1735     1.0  0.33702  0.68595  0.65374  1.0000
  H   H1736     1.0  0.37388  0.71222  0.65566  1.0000
  C   C972      1.0  0.39083  0.51772  0.65985  1.0000
  H   H1737     1.0  0.46473  0.73945  0.47240  1.0000
  C   C973      1.0  0.47555  0.74342  0.49904  1.0000
  H   H1738     1.0  0.00078  0.74823  0.45133  1.0000
  C   C974      1.0  0.99939  0.68750  0.62539  1.0000
  C   C975      1.0  0.47594  0.69956  0.94456  1.0000
  H   H1739     1.0  0.38583  0.57170  0.66208  1.0000
  Fe  Fe114     1.0  0.44594  0.72544  0.89441  1.0000
  S   S221      1.0  0.47557  0.71052  0.89095  1.0000
  C   C976      1.0  0.43338  0.50304  0.79873  1.0000
  Fe  Fe115     1.0  0.46946  0.70825  0.86094  1.0000
  S   S222      1.0  0.47776  0.68217  0.84401  1.0000
  H   H1740     1.0  0.31187  0.52877  0.94111  1.0000
  H   H1741     1.0  0.25218  0.59718  0.90518  1.0000
  C   C977      1.0  0.28071  0.59592  0.92785  1.0000
  S   S223      1.0  0.23258  0.51418  0.88007  1.0000
  Fe  Fe116     1.0  0.27993  0.53777  0.86469  1.0000
  S   S224      1.0  0.25086  0.55183  0.85931  1.0000
  S   S225      1.0  0.30450  0.55636  0.85749  1.0000
  Fe  Fe117     1.0  0.24194  0.54110  0.88891  1.0000
  S   S226      1.0  0.22350  0.56132  0.90753  1.0000
  Fe  Fe118     1.0  0.24390  0.52387  0.85088  1.0000
  S   S227      1.0  0.23338  0.51760  0.82308  1.0000
  S   S228      1.0  0.27123  0.52852  0.89477  1.0000
  S   S229      1.0  0.27376  0.51058  0.85418  1.0000
  Fe  Fe119     1.0  0.42742  0.60035  0.79862  1.0000
  S   S230      1.0  0.42740  0.57262  0.81607  1.0000
  S   S231      1.0  0.42300  0.62868  0.81244  1.0000
  Fe  Fe120     1.0  0.42923  0.58104  0.76199  1.0000
  S   S232      1.0  0.42952  0.55199  0.77680  1.0000
  S   S233      1.0  0.43426  0.58421  0.72998  1.0000
  Fe  Fe121     1.0  0.40648  0.56466  0.79733  1.0000
  S   S234      1.0  0.38396  0.54424  0.80717  1.0000
  Fe  Fe122     1.0  0.45034  0.56112  0.79477  1.0000
  S   S235      1.0  0.47493  0.54191  0.80698  1.0000
  S   S236      1.0  0.40465  0.59316  0.78106  1.0000
  S   S237      1.0  0.45190  0.58958  0.77869  1.0000
  C   C978      1.0  0.43650  0.60074  0.85561  1.0000
  S   S238      1.0  0.10933  0.52233  0.76376  1.0000
  Fe  Fe123     1.0  0.14613  0.51679  0.72084  1.0000
  S   S239      1.0  0.14246  0.54238  0.73769  1.0000
  S   S240      1.0  0.17077  0.51759  0.69763  1.0000
  Fe  Fe124     1.0  0.14116  0.52188  0.76322  1.0000
  S   S241      1.0  0.15128  0.52673  0.79169  1.0000
  Fe  Fe125     1.0  0.11112  0.54057  0.73708  1.0000
  S   S242      1.0  0.09127  0.56661  0.72957  1.0000
  H   H1742     1.0  0.03163  0.65335  0.94544  1.0000
  H   H1743     1.0  0.39433  0.71433  0.66796  1.0000
  C   C979      1.0  0.17163  0.52141  0.67274  1.0000
  C   C980      1.0  0.43159  0.50366  0.76354  1.0000
  H   H1744     1.0  0.01019  0.71387  0.91189  1.0000
  H   H1745     1.0  0.41175  0.52100  0.84182  1.0000
  H   H1746     1.0  0.42527  0.53253  0.82261  1.0000
  H   H1747     1.0  0.19247  0.50601  0.88834  1.0000
  H   H1748     1.0  0.28676  0.52484  0.78679  1.0000
  H   H1749     1.0  0.40144  0.66645  0.71298  1.0000
  C   C981      1.0  0.21037  0.52026  0.81473  1.0000
  C   C982      1.0  0.19414  0.52762  0.82542  1.0000
  C   C983      1.0  0.17623  0.52943  0.81813  1.0000
  C   C984      1.0  0.17430  0.52405  0.80006  1.0000
  C   C985      1.0  0.19056  0.51680  0.78933  1.0000
  C   C986      1.0  0.20845  0.51488  0.79667  1.0000
  H   H1750     1.0  0.31589  0.56450  0.78137  1.0000
  H   H1751     1.0  0.46993  0.72130  0.78212  1.0000
  S   S243      1.0  0.01674  0.59426  0.78049  1.0000
  C   C987      1.0  0.32690  0.55234  0.84413  1.0000
  C   C988      1.0  0.33290  0.53520  0.83629  1.0000
  C   C989      1.0  0.35038  0.53299  0.82508  1.0000
  C   C990      1.0  0.36213  0.54784  0.82157  1.0000
  C   C991      1.0  0.35623  0.56492  0.82959  1.0000
  C   C992      1.0  0.33877  0.56710  0.84085  1.0000
  H   H1752     1.0  0.32410  0.52364  0.83893  1.0000
  H   H1753     1.0  0.35484  0.51967  0.81905  1.0000
  H   H1754     1.0  0.36510  0.57647  0.82708  1.0000
  H   H1755     1.0  0.33435  0.58043  0.84683  1.0000
  C   C993      1.0  0.46227  0.66757  0.83524  1.0000
  C   C994      1.0  0.44280  0.66851  0.84108  1.0000
  C   C995      1.0  0.43109  0.65652  0.83395  1.0000
  C   C996      1.0  0.43862  0.64333  0.82098  1.0000
  C   C997      1.0  0.45803  0.64260  0.81489  1.0000
  C   C998      1.0  0.46977  0.65456  0.82207  1.0000
  H   H1756     1.0  0.43679  0.67836  0.85125  1.0000
  H   H1757     1.0  0.41608  0.65737  0.83866  1.0000
  H   H1758     1.0  0.46397  0.63298  0.80452  1.0000
  H   H1759     1.0  0.48477  0.65379  0.81731  1.0000
  H   H1760     1.0  0.21371  0.57705  0.79260  1.0000
  C   C999      1.0  0.03615  0.58544  0.76519  1.0000
  C   C1000     1.0  0.03964  0.59313  0.74679  1.0000
  C   C1001     1.0  0.05642  0.58697  0.73586  1.0000
  C   C1002     1.0  0.06955  0.57276  0.74304  1.0000
  C   C1003     1.0  0.06558  0.56448  0.76110  1.0000
  C   C1004     1.0  0.04918  0.57106  0.77225  1.0000
  H   H1761     1.0  0.02979  0.60430  0.74126  1.0000
  H   H1762     1.0  0.05937  0.59346  0.72187  1.0000
  H   H1763     1.0  0.07536  0.55331  0.76665  1.0000
  H   H1764     1.0  0.04657  0.56505  0.78647  1.0000
  C   C1005     1.0  0.24276  0.57631  0.96328  1.0000
  C   C1006     1.0  0.25147  0.56035  0.95449  1.0000
  C   C1007     1.0  0.24542  0.55541  0.93766  1.0000
  C   C1008     1.0  0.23073  0.56654  0.92928  1.0000
  C   C1009     1.0  0.22176  0.58231  0.93825  1.0000
  C   C1010     1.0  0.22770  0.58717  0.95521  1.0000
  H   H1765     1.0  0.26303  0.55178  0.96071  1.0000
  H   H1766     1.0  0.25212  0.54299  0.93117  1.0000
  H   H1767     1.0  0.21026  0.59091  0.93196  1.0000
  H   H1768     1.0  0.22085  0.59947  0.96187  1.0000
  H   H1769     1.0  0.27145  0.58924  0.80636  1.0000
  H   H1770     1.0  0.42556  0.66028  0.70294  1.0000
  H   H1771     1.0  0.43529  0.60243  0.84037  1.0000
  H   H1772     1.0  0.43798  0.72576  0.77066  1.0000
  C   C1011     1.0  0.39412  0.60864  0.68553  1.0000
  C   C1012     1.0  0.41346  0.60383  0.68055  1.0000
  C   C1013     1.0  0.42559  0.59682  0.69443  1.0000
  C   C1014     1.0  0.41858  0.59458  0.71341  1.0000
  C   C1015     1.0  0.39935  0.59997  0.71846  1.0000
  C   C1016     1.0  0.38724  0.60709  0.70458  1.0000
  H   H1773     1.0  0.41518  0.73137  0.78219  1.0000
  H   H1774     1.0  0.44050  0.59291  0.69043  1.0000
  H   H1775     1.0  0.39378  0.59843  0.73301  1.0000
  H   H1776     1.0  0.37234  0.61102  0.70861  1.0000
  H   H1777     1.0  0.19537  0.53197  0.83926  1.0000
  H   H1778     1.0  0.22442  0.55384  0.78748  1.0000
  N   N57       1.0  0.29171  0.58804  0.91068  1.0000
  C   C1017     1.0  0.31145  0.59443  0.90879  1.0000
  C   C1018     1.0  0.28229  0.59494  0.89315  1.0000
  C   C1019     1.0  0.26118  0.59114  0.89321  1.0000
  C   C1020     1.0  0.32558  0.58565  0.89318  1.0000
  C   C1021     1.0  0.25291  0.59972  0.87524  1.0000
  C   C1022     1.0  0.34523  0.59261  0.89304  1.0000
  H   H1779     1.0  0.27777  0.56246  0.91574  1.0000
  H   H1780     1.0  0.31794  0.59177  0.92234  1.0000
  H   H1781     1.0  0.31077  0.60997  0.90565  1.0000
  H   H1782     1.0  0.28340  0.61031  0.88986  1.0000
  H   H1783     1.0  0.28986  0.58804  0.88085  1.0000
  H   H1784     1.0  0.25998  0.57575  0.89393  1.0000
  H   H1785     1.0  0.32057  0.58966  0.87915  1.0000
  H   H1786     1.0  0.32742  0.57003  0.89514  1.0000
  H   H1787     1.0  0.26124  0.59386  0.86275  1.0000
  H   H1788     1.0  0.23798  0.59625  0.87547  1.0000
  H   H1789     1.0  0.25293  0.61532  0.87418  1.0000
  H   H1790     1.0  0.35495  0.58626  0.88164  1.0000
  H   H1791     1.0  0.34437  0.60821  0.89047  1.0000
  H   H1792     1.0  0.35129  0.58839  0.90659  1.0000
  H   H1793     1.0  0.25546  0.69436  0.97385  1.0000
  C   C1023     1.0  0.48534  0.51418  0.78147  1.0000
  H   H1794     1.0  0.45357  0.70744  0.82170  1.0000
  C   C1024     1.0  0.15569  0.52089  0.66288  1.0000
  C   C1025     1.0  0.18421  0.50256  0.87698  1.0000
  C   C1026     1.0  0.02889  0.66055  0.98711  1.0000
  H   H1795     1.0  0.26706  0.58949  0.93110  1.0000
  H   H1796     1.0  0.44554  0.50965  0.76107  1.0000
  H   H1797     1.0  0.22207  0.69445  0.98674  1.0000
  H   H1798     1.0  0.24785  0.57827  0.78290  1.0000
  H   H1799     1.0  0.25638  0.54358  0.79557  1.0000
  H   H1800     1.0  0.03456  0.64675  0.98175  1.0000
  H   H1801     1.0  0.17890  0.51598  0.86943  1.0000
  H   H1802     1.0  0.06097  0.50748  0.75985  1.0000
  H   H1803     1.0  0.20160  0.52491  0.67000  1.0000
  C   C1027     1.0  0.41176  0.73227  0.82471  1.0000
  H   H1804     1.0  0.28861  0.59198  0.94043  1.0000
  H   H1805     1.0  0.27460  0.51863  0.80914  1.0000
  H   H1806     1.0  0.02275  0.54341  0.77149  1.0000
  H   H1807     1.0  0.37218  0.54438  0.69483  1.0000
  C   C1028     1.0  0.45411  0.58686  0.85985  1.0000
  H   H1808     1.0  0.03821  0.54638  0.73983  1.0000
  Fe  Fe126     1.0  0.26257  0.50231  0.88386  1.0000
  H   H1809     1.0  0.41067  0.64204  0.71191  1.0000
  H   H1810     1.0  0.16377  0.53508  0.82656  1.0000
  H   H1811     1.0  0.13405  0.56281  0.69715  1.0000
  H   H1812     1.0  0.44763  0.50841  0.79589  1.0000
  H   H1813     1.0  0.41798  0.68006  0.67333  1.0000
  H   H1814     1.0  0.26729  0.62281  0.91552  1.0000
  C   C1029     1.0  0.30372  0.55693  0.92896  1.0000
  C   C1030     1.0  0.27614  0.61767  0.92710  1.0000
  N   N58       1.0  0.11775  0.58553  0.78349  1.0000
  C   C1031     1.0  0.13642  0.57339  0.78087  1.0000
  C   C1032     1.0  0.10216  0.57283  0.78936  1.0000
  C   C1033     1.0  0.11370  0.59526  0.76461  1.0000
  C   C1034     1.0  0.11797  0.60029  0.79735  1.0000
  C   C1035     1.0  0.13062  0.59517  0.81384  1.0000
  C   C1036     1.0  0.15352  0.58350  0.77124  1.0000
  C   C1037     1.0  0.09432  0.60754  0.76385  1.0000
  C   C1038     1.0  0.10334  0.56090  0.80824  1.0000
  C   C1039     1.0  0.08797  0.54719  0.81112  1.0000
  C   C1040     1.0  0.12671  0.60977  0.82848  1.0000
  C   C1041     1.0  0.17240  0.57162  0.77393  1.0000
  C   C1042     1.0  0.09303  0.61862  0.74483  1.0000
  H   H1815     1.0  0.13483  0.56148  0.77228  1.0000
  H   H1816     1.0  0.14062  0.56645  0.79439  1.0000
  H   H1817     1.0  0.08802  0.58113  0.79072  1.0000
  H   H1818     1.0  0.10162  0.56296  0.77826  1.0000
  H   H1819     1.0  0.11443  0.58467  0.75392  1.0000
  H   H1820     1.0  0.12477  0.60488  0.75956  1.0000
  H   H1821     1.0  0.12300  0.61351  0.79011  1.0000
  H   H1822     1.0  0.10318  0.60445  0.80339  1.0000
  H   H1823     1.0  0.14591  0.59485  0.80866  1.0000
  H   H1824     1.0  0.12841  0.58118  0.82102  1.0000
  H   H1825     1.0  0.15229  0.58572  0.75591  1.0000
  H   H1826     1.0  0.15400  0.59746  0.77678  1.0000
  H   H1827     1.0  0.09225  0.61778  0.77484  1.0000
  H   H1828     1.0  0.08230  0.59867  0.76578  1.0000
  H   H1829     1.0  0.11724  0.55237  0.80902  1.0000
  H   H1830     1.0  0.10078  0.57025  0.82000  1.0000
  H   H1831     1.0  0.08878  0.53910  0.82493  1.0000
  H   H1832     1.0  0.07357  0.55494  0.81077  1.0000
  H   H1833     1.0  0.09012  0.53700  0.80007  1.0000
  H   H1834     1.0  0.13628  0.60603  0.83983  1.0000
  H   H1835     1.0  0.12936  0.62404  0.82206  1.0000
  H   H1836     1.0  0.11175  0.61004  0.83482  1.0000
  H   H1837     1.0  0.18435  0.57907  0.76672  1.0000
  H   H1838     1.0  0.17461  0.56913  0.78906  1.0000
  H   H1839     1.0  0.17262  0.55778  0.76786  1.0000
  H   H1840     1.0  0.10403  0.62874  0.74238  1.0000
  H   H1841     1.0  0.09491  0.60886  0.73338  1.0000
  H   H1842     1.0  0.07878  0.62665  0.74444  1.0000
  H   H1843     1.0  0.48410  0.73805  0.80632  1.0000
  N   N59       1.0  0.03229  0.51967  0.75477  1.0000
  H   H1844     1.0  0.01620  0.70309  0.94448  1.0000
  C   C1043     1.0  0.47133  0.71466  0.79647  1.0000
  H   H1845     1.0  0.30508  0.50646  0.82180  1.0000
  H   H1846     1.0  0.41288  0.64496  0.67766  1.0000
  H   H1847     1.0  0.49688  0.61166  0.82188  1.0000
  H   H1848     1.0  0.46157  0.64599  0.87396  1.0000
  H   H1849     1.0  0.40819  0.52280  0.72460  1.0000
  H   H1850     1.0  0.44950  0.53790  0.84366  1.0000
  C   C1044     1.0  0.13501  0.57625  0.68830  1.0000
  C   C1045     1.0  0.31019  0.56669  0.75254  1.0000
  H   H1851     1.0  0.45374  0.58389  0.87532  1.0000
  H   H1852     1.0  0.01355  0.62598  0.90954  1.0000
  C   C1046     1.0  0.03895  0.53114  0.73712  1.0000
  H   H1853     1.0  0.30954  0.54337  0.77319  1.0000
  H   H1854     1.0  0.29743  0.56158  0.94278  1.0000
  H   H1855     1.0  0.45339  0.71845  0.95651  1.0000
  S   S244      1.0  0.48142  0.73595  0.85118  1.0000
  H   H1856     1.0  0.28861  0.53165  0.93273  1.0000
  H   H1857     1.0  0.45133  0.73157  0.81486  1.0000
  C   C1047     1.0  0.30343  0.53553  0.92974  1.0000
  C   C1048     1.0  0.18914  0.52463  0.66255  1.0000
  H   H1858     1.0  0.42630  0.56682  0.67225  1.0000
  H   H1859     1.0  0.25115  0.61780  0.94744  1.0000
  H   H1860     1.0  0.30622  0.54497  0.80738  1.0000
  H   H1861     1.0  0.47694  0.55253  0.85763  1.0000
  H   H1862     1.0  0.42097  0.70231  0.82535  1.0000
  C   C1049     1.0  0.40342  0.67543  0.67411  1.0000
  H   H1863     1.0  0.42527  0.53752  0.73097  1.0000
  H   H1864     1.0  0.03130  0.67927  0.96214  1.0000
  C   C1050     1.0  0.29239  0.56681  0.91291  1.0000
  H   H1865     1.0  0.29790  0.59454  0.83780  1.0000
  H   H1866     1.0  0.49151  0.58021  0.79673  1.0000
  S   S245      1.0  0.37797  0.61638  0.66855  1.0000
  H   H1867     1.0  0.03469  0.62976  0.92011  1.0000
  H   H1868     1.0  0.14333  0.58546  0.69532  1.0000
  C   C1051     1.0  0.01023  0.69330  0.93588  1.0000
  H   H1869     1.0  0.45885  0.72857  0.98764  1.0000
  H   H1870     1.0  0.42604  0.54704  0.85275  1.0000
  N   N60       1.0  0.43471  0.71482  0.79983  1.0000
  C   C1052     1.0  0.43802  0.69576  0.79165  1.0000
  H   H1871     1.0  0.14218  0.51826  0.67048  1.0000
  H   H1872     1.0  0.06982  0.53138  0.73735  1.0000
  N   N61       1.0  0.40538  0.54745  0.66932  1.0000
  C   C1053     1.0  0.42066  0.68857  0.78393  1.0000
  C   C1054     1.0  0.04832  0.51504  0.76724  1.0000
  H   H1873     1.0  0.42309  0.51590  0.79807  1.0000
  C   C1055     1.0  0.01673  0.64999  0.94955  1.0000
  H   H1874     1.0  0.43680  0.52518  0.86300  1.0000
  C   C1056     1.0  0.42673  0.67161  0.77230  1.0000
  H   H1875     1.0  0.07795  0.53366  0.70337  1.0000
  H   H1876     1.0  0.01217  0.68624  0.97875  1.0000
  H   H1877     1.0  0.01712  0.61564  0.93280  1.0000
  H   H1878     1.0  0.05935  0.55184  0.70938  1.0000
  H   H1879     1.0  0.34236  0.56560  0.69490  1.0000
  H   H1880     1.0  0.44948  0.69587  0.77990  1.0000
  H   H1881     1.0  0.35354  0.58197  0.67795  1.0000
  H   H1882     1.0  0.01595  0.73251  0.98275  1.0000
  C   C1057     1.0  0.02404  0.50218  0.75016  1.0000
  C   C1058     1.0  0.42263  0.55747  0.66190  1.0000
  C   C1059     1.0  0.39611  0.72900  0.84052  1.0000
  C   C1060     1.0  0.04380  0.50267  0.78559  1.0000
  H   H1883     1.0  0.41319  0.69981  0.77500  1.0000
  H   H1884     1.0  0.30774  0.58234  0.75145  1.0000
  H   H1885     1.0  0.25247  0.67344  0.98917  1.0000
  H   H1886     1.0  0.40104  0.71763  0.85093  1.0000
  H   H1887     1.0  0.44320  0.68471  0.80233  1.0000
  H   H1888     1.0  0.02225  0.68440  0.92900  1.0000
  H   H1889     1.0  0.30104  0.56090  0.74319  1.0000
  C   C1061     1.0  0.41074  0.65629  0.70442  1.0000
  H   H1890     1.0  0.31561  0.60491  0.82163  1.0000
  C   C1062     1.0  0.01948  0.67382  0.97172  1.0000
  H   H1891     1.0  0.40504  0.55480  0.70834  1.0000
  C   C1063     1.0  0.41555  0.73148  0.93702  1.0000
  C   C1064     1.0  0.06043  0.50065  0.79780  1.0000
  H   H1892     1.0  0.43616  0.67567  0.75966  1.0000
  H   H1893     1.0  0.43433  0.66004  0.78079  1.0000
  H   H1894     1.0  0.41396  0.66621  0.76772  1.0000
  H   H1895     1.0  0.01056  0.65785  0.92031  1.0000
  H   H1896     1.0  0.46217  0.72520  0.93276  1.0000
  C   C1065     1.0  0.41811  0.59343  0.86492  1.0000
  C   C1066     1.0  0.43530  0.53397  0.84966  1.0000
  H   H1897     1.0  0.48501  0.72555  0.96726  1.0000
  C   C1067     1.0  0.46640  0.71954  0.94671  1.0000
  H   H1898     1.0  0.18934  0.51259  0.77542  1.0000
  H   H1899     1.0  0.41606  0.57965  0.85974  1.0000
  H   H1900     1.0  0.41834  0.59189  0.88040  1.0000
  H   H1901     1.0  0.40583  0.60364  0.86141  1.0000
  H   H1902     1.0  0.47998  0.69289  0.95828  1.0000
  H   H1903     1.0  0.02918  0.53040  0.72606  1.0000
  C   C1068     1.0  0.28473  0.56376  0.77991  1.0000
  H   H1904     1.0  0.43285  0.51946  0.71500  1.0000
  H   H1905     1.0  0.06305  0.51464  0.80213  1.0000
  H   H1906     1.0  0.47553  0.69932  0.79537  1.0000
  C   C1069     1.0  0.14472  0.57206  0.66892  1.0000
  H   H1907     1.0  0.38893  0.65123  0.68746  1.0000
  C   C1070     1.0  0.42097  0.53006  0.71933  1.0000
  H   H1908     1.0  0.41904  0.60549  0.66604  1.0000
  H   H1909     1.0  0.12034  0.58314  0.68722  1.0000
  H   H1910     1.0  0.49063  0.71509  0.81800  1.0000
  C   C1071     1.0  0.47546  0.61275  0.85663  1.0000
  H   H1911     1.0  0.00302  0.68387  0.69008  1.0000
  C   C1072     1.0  0.48008  0.73229  0.95386  1.0000
  H   H1912     1.0  0.36370  0.54848  0.67173  1.0000
  C   C1073     1.0  0.01668  0.53175  0.76541  1.0000
  H   H1913     1.0  0.00636  0.67985  0.73604  1.0000
  H   H1914     1.0  0.05676  0.67146  0.98283  1.0000
  H   H1915     1.0  0.32531  0.56260  0.74770  1.0000
  C   C1074     1.0  0.48761  0.72278  0.80441  1.0000
  H   H1916     1.0  0.03119  0.50884  0.79416  1.0000
  H   H1917     1.0  0.30437  0.59054  0.79532  1.0000
  S   S246      1.0  0.42688  0.71625  0.92014  1.0000
  H   H1918     1.0  0.25449  0.55163  0.81842  1.0000
  S   S247      1.0  0.43942  0.72140  0.86507  1.0000
  H   H1919     1.0  0.21890  0.55978  0.81155  1.0000
  C   C1075     1.0  0.42636  0.52335  0.83572  1.0000
  C   C1076     1.0  0.22401  0.56521  0.79720  1.0000
  H   H1920     1.0  0.27647  0.55570  0.77148  1.0000
  H   H1921     1.0  0.30969  0.52997  0.91625  1.0000
  H   H1922     1.0  0.40504  0.71109  0.80831  1.0000
  H   H1923     1.0  0.39444  0.68552  0.68306  1.0000
  C   C1077     1.0  0.41076  0.53463  0.68617  1.0000
  H   H1924     1.0  0.24207  0.58343  0.80710  1.0000
  H   H1925     1.0  0.29806  0.56051  0.89957  1.0000
  H   H1926     1.0  0.28939  0.62484  0.92519  1.0000
  H   H1927     1.0  0.39035  0.72887  0.98022  1.0000
  C   C1078     1.0  0.40646  0.72358  0.95366  1.0000
  C   C1079     1.0  0.30599  0.55888  0.77280  1.0000
  H   H1928     1.0  0.40640  0.70842  0.95585  1.0000
  C   C1080     1.0  0.45388  0.74377  0.98814  1.0000
  H   H1929     1.0  0.27636  0.57390  0.82647  1.0000
  H   H1930     1.0  0.15899  0.56468  0.67104  1.0000
  C   C1081     1.0  0.25856  0.55586  0.80342  1.0000
  C   C1082     1.0  0.24368  0.57212  0.79720  1.0000
  H   H1931     1.0  0.28742  0.54188  0.82476  1.0000
  C   C1083     1.0  0.28098  0.57692  0.81131  1.0000
  C   C1084     1.0  0.30120  0.59992  0.82301  1.0000
  H   H1932     1.0  0.28070  0.57887  0.77558  1.0000
  H   H1933     1.0  0.41051  0.68376  0.79570  1.0000
  C   C1085     1.0  0.30423  0.50877  0.80644  1.0000
  N   N62       1.0  0.27919  0.55993  0.80064  1.0000
  H   H1934     1.0  0.01236  0.50595  0.74092  1.0000
  C   C1086     1.0  0.47452  0.59270  0.83076  1.0000
  C   C1087     1.0  0.29083  0.54311  0.80926  1.0000
  C   C1088     1.0  0.30083  0.58431  0.80975  1.0000
  H   H1935     1.0  0.45178  0.57327  0.85435  1.0000
  C   C1089     1.0  0.26510  0.62377  0.94534  1.0000
  H   H1936     1.0  0.27324  0.61898  0.95758  1.0000
  H   H1937     1.0  0.47086  0.57894  0.82662  1.0000
  C   C1090     1.0  0.49402  0.59693  0.82027  1.0000
  H   H1938     1.0  0.46367  0.60325  0.82482  1.0000
  H   H1939     1.0  0.42963  0.55170  0.69908  1.0000
  H   H1940     1.0  0.31883  0.55994  0.92701  1.0000
  H   H1941     1.0  0.26243  0.63939  0.94477  1.0000
  C   C1091     1.0  0.41660  0.54441  0.70298  1.0000
  H   H1942     1.0  0.00611  0.67105  0.76027  1.0000
  C   C1092     1.0  0.45231  0.71751  0.80913  1.0000
  H   H1943     1.0  0.43726  0.61486  0.86067  1.0000
  H   H1944     1.0  0.38318  0.72511  0.83485  1.0000
  H   H1945     1.0  0.47493  0.52167  0.77285  1.0000
  H   H1946     1.0  0.31206  0.57302  0.81324  1.0000
  H   H1947     1.0  0.42280  0.52410  0.68181  1.0000
  H   H1948     1.0  0.05335  0.52833  0.77103  1.0000
  H   H1949     1.0  0.45860  0.61239  0.88433  1.0000
  C   C1093     1.0  0.39734  0.73514  0.96750  1.0000
  H   H1950     1.0  0.01811  0.63650  0.95848  1.0000
  H   H1951     1.0  0.39898  0.52621  0.69191  1.0000
  H   H1952     1.0  0.40582  0.74359  0.81481  1.0000
  H   H1953     1.0  0.00986  0.52338  0.77748  1.0000
  H   H1954     1.0  0.39372  0.57148  0.68447  1.0000
  H   H1955     1.0  0.47187  0.63948  0.89573  1.0000
  H   H1956     1.0  0.29073  0.61207  0.81954  1.0000
  C   C1094     1.0  0.37027  0.55485  0.68275  1.0000
  C   C1095     1.0  0.28795  0.52376  0.80211  1.0000
  H   H1957     1.0  0.40139  0.50678  0.66572  1.0000
  S   S248      1.0  0.25212  0.58258  0.98359  1.0000
  C   C1096     1.0  0.00874  0.64595  0.93107  1.0000
  C   C1097     1.0  0.43061  0.72994  0.78433  1.0000
  N   N63       1.0  0.00582  0.66532  0.96073  1.0000
  Fe  Fe127     1.0  0.48466  0.73936  0.88163  1.0000
  H   H1958     1.0  0.42377  0.73719  0.83092  1.0000
  H   H1959     1.0  0.00955  0.69556  0.75356  1.0000
  H   H1960     1.0  0.31801  0.51308  0.79962  1.0000
  C   C1098     1.0  0.48831  0.52118  0.79845  1.0000
  H   H1961     1.0  0.36163  0.57764  0.70115  1.0000
  H   H1962     1.0  0.05383  0.53096  0.69913  1.0000
  C   C1099     1.0  0.41799  0.71410  0.81455  1.0000
  C   C1100     1.0  0.06282  0.53635  0.70888  1.0000
  C   C1101     1.0  0.25217  0.68903  0.98864  1.0000
  C   C1102     1.0  0.49445  0.59471  0.79930  1.0000
  C   C1103     1.0  0.05969  0.52642  0.72846  1.0000
  H   H1963     1.0  0.45304  0.50840  0.82658  1.0000
  H   H1964     1.0  0.22089  0.50918  0.78824  1.0000
  C   C1104     1.0  0.01923  0.62823  0.92295  1.0000
  C   C1105     1.0  0.99997  0.70539  0.92072  1.0000
  C   C1106     1.0  0.40348  0.65582  0.68518  1.0000
  C   C1107     1.0  0.00625  0.72354  0.99078  1.0000
  H   H1965     1.0  0.48880  0.69977  0.93440  1.0000
  H   H1966     1.0  0.37869  0.51984  0.67062  1.0000
  S   S249      1.0  0.11468  0.51626  0.71866  1.0000
  C   C1108     1.0  0.35613  0.57104  0.68959  1.0000
  C   C1109     1.0  0.38931  0.56216  0.67450  1.0000
  H   H1967     1.0  0.49401  0.55875  0.83853  1.0000
  H   H1968     1.0  0.37310  0.65934  0.66241  1.0000
  H   H1969     1.0  0.46584  0.69090  0.93916  1.0000
  H   H1970     1.0  0.49300  0.73164  0.94369  1.0000
  H   H1971     1.0  0.00537  0.55081  0.74232  1.0000
  C   C1110     1.0  0.00015  0.54102  0.75406  1.0000
  H   H1972     1.0  0.42449  0.73691  0.99186  1.0000
  H   H1973     1.0  0.15440  0.59959  0.66340  1.0000
  H   H1974     1.0  0.36786  0.68302  0.66805  1.0000
  H   H1975     1.0  0.41995  0.51534  0.76363  1.0000
  H   H1976     1.0  0.46573  0.62322  0.84902  1.0000
  H   H1977     1.0  0.48998  0.61664  0.85166  1.0000
  H   H1978     1.0  0.39231  0.74216  0.84785  1.0000
  H   H1979     1.0  0.40147  0.50381  0.82041  1.0000
  C   C1111     1.0  0.43851  0.50456  0.83173  1.0000
  C   C1112     1.0  0.47256  0.61635  0.87775  1.0000
  H   H1980     1.0  0.48382  0.60516  0.79293  1.0000
  C   C1113     1.0  0.48859  0.57963  0.86005  1.0000
  H   H1981     1.0  0.13615  0.56225  0.66307  1.0000
  N   N64       1.0  0.47317  0.59300  0.85183  1.0000
  C   C1114     1.0  0.47336  0.63723  0.88053  1.0000
  H   H1982     1.0  0.48712  0.64210  0.87425  1.0000
  C   C1115     1.0  0.00194  0.68346  0.75068  1.0000
  H   H1983     1.0  0.48393  0.60814  0.88538  1.0000
  H   H1984     1.0  0.06358  0.51116  0.72730  1.0000
  H   H1985     1.0  0.48622  0.57857  0.87563  1.0000
  C   C1116     1.0  0.49039  0.55913  0.85387  1.0000
  H   H1986     1.0  0.20798  0.49843  0.85627  1.0000
  Fe  Fe128     1.0  0.12747  0.89810  0.10314  1.0000
  S   S250      1.0  0.10485  0.91350  0.12227  1.0000
  S   S251      1.0  0.15362  0.91115  0.08830  1.0000
  Fe  Fe129     1.0  0.10339  0.86479  0.10120  1.0000
  S   S252      1.0  0.07961  0.87758  0.12050  1.0000
  S   S253      1.0  0.10435  0.83852  0.08461  1.0000
  Fe  Fe130     1.0  0.08373  0.90516  0.10382  1.0000
  S   S254      1.0  0.05629  0.92319  0.09725  1.0000
  Fe  Fe131     1.0  0.10220  0.88506  0.13773  1.0000
  S   S255      1.0  0.09652  0.87879  0.16948  1.0000
  S   S256      1.0  0.10629  0.89208  0.08355  1.0000
  S   S257      1.0  0.12610  0.86995  0.11960  1.0000
  H   H1987     1.0  0.12584  0.84547  0.29907  1.0000
  H   H1988     1.0  0.23454  0.91382  0.01629  1.0000
  S   S258      1.0  0.03989  0.96635  0.01842  1.0000
  Fe  Fe132     1.0  0.08974  0.92828  0.30393  1.0000
  C   C1117     1.0  0.41029  0.77054  0.13186  1.0000
  Fe  Fe133     1.0  0.07373  0.93061  0.26529  1.0000
  S   S259      1.0  0.04386  0.92700  0.27798  1.0000
  S   S260      1.0  0.08271  0.93646  0.23401  1.0000
  Fe  Fe134     1.0  0.04917  0.94741  0.29869  1.0000
  S   S261      1.0  0.02758  0.97093  0.31044  1.0000
  Fe  Fe135     1.0  0.05746  0.90425  0.29762  1.0000
  H   H1989     1.0  0.40051  0.82729  0.06293  1.0000
  S   S262      1.0  0.07841  0.95259  0.28485  1.0000
  S   S263      1.0  0.08689  0.90668  0.28333  1.0000
  Fe  Fe136     1.0  0.35264  0.97062  0.25933  1.0000
  H   H1990     1.0  0.41807  0.78080  0.10398  1.0000
  Fe  Fe137     1.0  0.38848  0.95837  0.23436  1.0000
  S   S264      1.0  0.38164  0.98117  0.21164  1.0000
  S   S265      1.0  0.41661  0.94033  0.22818  1.0000
  Fe  Fe138     1.0  0.35159  0.97325  0.21646  1.0000
  S   S266      1.0  0.32988  0.97504  0.19445  1.0000
  S   S267      1.0  0.38308  0.97806  0.25752  1.0000
  S   S268      1.0  0.35876  0.94904  0.23768  1.0000
  C   C1118     1.0  0.39887  0.81306  0.05853  1.0000
  Fe  Fe139     1.0  0.35420  0.77918  0.04632  1.0000
  H   H1991     1.0  0.48975  0.90387  0.21279  1.0000
  S   S269      1.0  0.34309  0.80359  0.06470  1.0000
  H   H1992     1.0  0.07677  0.85049  0.02519  1.0000
  C   C1119     1.0  0.38738  0.80177  0.09175  1.0000
  S   S270      1.0  0.38485  0.77332  0.03487  1.0000
  S   S271      1.0  0.34234  0.76873  0.02163  1.0000
  Fe  Fe140     1.0  0.30357  0.93324  0.09857  1.0000
  S   S272      1.0  0.31157  0.93708  0.06733  1.0000
  S   S273      1.0  0.32567  0.93326  0.11974  1.0000
  Fe  Fe141     1.0  0.26312  0.92376  0.09314  1.0000
  S   S274      1.0  0.26792  0.92773  0.06181  1.0000
  S   S275      1.0  0.23827  0.91189  0.11130  1.0000
  Fe  Fe142     1.0  0.29639  0.91108  0.06533  1.0000
  S   S276      1.0  0.30503  0.88747  0.04562  1.0000
  Fe  Fe143     1.0  0.28269  0.95334  0.06604  1.0000
  S   S277      1.0  0.27649  0.98343  0.05264  1.0000
  S   S278      1.0  0.29086  0.90608  0.09640  1.0000
  S   S279      1.0  0.27546  0.95063  0.09750  1.0000
  H   H1993     1.0  0.25305  0.98148  0.13156  1.0000
  S   S280      1.0  0.47017  0.89277  0.28490  1.0000
  C   C1120     1.0  0.22549  0.99035  0.27855  1.0000
  H   H1994     1.0  0.22259  0.88962  0.18671  1.0000
  H   H1995     1.0  0.01929  0.76269  0.14648  1.0000
  H   H1996     1.0  0.34020  0.80999  0.14309  1.0000
  H   H1997     1.0  0.14760  0.95794  0.27603  1.0000
  H   H1998     1.0  0.02259  0.87312  0.09372  1.0000
  C   C1121     1.0  0.09046  0.82363  0.29853  1.0000
  N   N65       1.0  0.38740  0.78673  0.10786  1.0000
  C   C1122     1.0  0.44731  0.76235  0.07831  1.0000
  Fe  Fe144     1.0  0.37315  0.76066  0.01119  1.0000
  H   H1999     1.0  0.37154  0.78331  0.13523  1.0000
  H   H2000     1.0  0.42577  0.76382  0.05879  1.0000
  H   H2001     1.0  0.45154  0.77624  0.07378  1.0000
  C   C1123     1.0  0.33272  0.82689  0.05890  1.0000
  C   C1124     1.0  0.32909  0.83338  0.04059  1.0000
  C   C1125     1.0  0.32063  0.85193  0.03680  1.0000
  C   C1126     1.0  0.31588  0.86430  0.05118  1.0000
  C   C1127     1.0  0.31959  0.85784  0.06949  1.0000
  C   C1128     1.0  0.32785  0.83923  0.07331  1.0000
  H   H2002     1.0  0.33273  0.82409  0.02935  1.0000
  H   H2003     1.0  0.31786  0.85675  0.02258  1.0000
  H   H2004     1.0  0.31609  0.86716  0.08070  1.0000
  H   H2005     1.0  0.33054  0.83440  0.08753  1.0000
  C   C1129     1.0  0.43143  0.92800  0.24451  1.0000
  C   C1130     1.0  0.45006  0.92117  0.23812  1.0000
  C   C1131     1.0  0.46213  0.91063  0.25039  1.0000
  C   C1132     1.0  0.45568  0.90669  0.26918  1.0000
  C   C1133     1.0  0.43719  0.91387  0.27567  1.0000
  C   C1134     1.0  0.42513  0.92455  0.26343  1.0000
  H   H2006     1.0  0.45513  0.92388  0.22354  1.0000
  H   H2007     1.0  0.47643  0.90553  0.24534  1.0000
  H   H2008     1.0  0.43208  0.91098  0.29021  1.0000
  H   H2009     1.0  0.41083  0.92975  0.26855  1.0000
  C   C1135     1.0  0.32945  0.96360  0.17342  1.0000
  C   C1136     1.0  0.31490  0.96954  0.16166  1.0000
  C   C1137     1.0  0.31360  0.96058  0.14512  1.0000
  C   C1138     1.0  0.32667  0.94533  0.14027  1.0000
  C   C1139     1.0  0.34132  0.93951  0.15191  1.0000
  C   C1140     1.0  0.34274  0.94856  0.16838  1.0000
  C   C1141     1.0  0.35220  0.79882  0.11667  1.0000
  H   H2010     1.0  0.30257  0.96554  0.13612  1.0000
  H   H2011     1.0  0.35163  0.92783  0.14823  1.0000
  H   H2012     1.0  0.35400  0.94381  0.17725  1.0000
  H   H2013     1.0  0.24620  0.88082  0.02534  1.0000
  H   H2014     1.0  0.24263  0.87187  0.18346  1.0000
  H   H2015     1.0  0.46203  0.81288  0.21408  1.0000
  H   H2016     1.0  0.44215  0.88692  0.23142  1.0000
  H   H2017     1.0  0.22460  0.87502  0.16722  1.0000
  H   H2018     1.0  0.27581  0.82121  0.03184  1.0000
  C   C1142     1.0  0.30849  0.96877  0.31689  1.0000
  C   C1143     1.0  0.31366  0.97175  0.29754  1.0000
  C   C1144     1.0  0.29980  0.97986  0.28598  1.0000
  C   C1145     1.0  0.19588  0.98607  0.31083  1.0000
  H   H2019     1.0  0.33392  0.96172  0.08730  1.0000
  H   H2020     1.0  0.44488  0.83534  0.27321  1.0000
  H   H2021     1.0  0.39921  0.77242  0.14371  1.0000
  C   C1146     1.0  0.05176  0.93341  0.07458  1.0000
  C   C1147     1.0  0.03293  0.93955  0.07082  1.0000
  C   C1148     1.0  0.02892  0.94893  0.05339  1.0000
  C   C1149     1.0  0.04378  0.95271  0.03974  1.0000
  C   C1150     1.0  0.06254  0.94609  0.04334  1.0000
  C   C1151     1.0  0.06652  0.93640  0.06060  1.0000
  H   H2022     1.0  0.02139  0.93714  0.08148  1.0000
  H   H2023     1.0  0.01443  0.95359  0.05057  1.0000
  H   H2024     1.0  0.07413  0.94887  0.03283  1.0000
  H   H2025     1.0  0.08107  0.93185  0.06333  1.0000
  C   C1152     1.0  0.09008  0.81922  0.08633  1.0000
  C   C1153     1.0  0.07275  0.81915  0.09749  1.0000
  C   C1154     1.0  0.06150  0.80396  0.09752  1.0000
  C   C1155     1.0  0.06755  0.78849  0.08669  1.0000
  C   C1156     1.0  0.08498  0.78846  0.07574  1.0000
  C   C1157     1.0  0.09608  0.80379  0.07548  1.0000
  H   H2026     1.0  0.06795  0.83086  0.10595  1.0000
  H   H2027     1.0  0.04805  0.80416  0.10605  1.0000
  H   H2028     1.0  0.08982  0.77674  0.06729  1.0000
  H   H2029     1.0  0.10943  0.80368  0.06677  1.0000
  C   C1158     1.0  0.09318  0.89492  0.18736  1.0000
  C   C1159     1.0  0.08469  0.88917  0.20517  1.0000
  C   C1160     1.0  0.08174  0.90157  0.21972  1.0000
  C   C1161     1.0  0.08717  0.91990  0.21657  1.0000
  C   C1162     1.0  0.09587  0.92557  0.19884  1.0000
  C   C1163     1.0  0.09903  0.91309  0.18438  1.0000
  H   H2030     1.0  0.08031  0.87507  0.20770  1.0000
  H   H2031     1.0  0.07508  0.89711  0.23331  1.0000
  H   H2032     1.0  0.10035  0.93964  0.19633  1.0000
  H   H2033     1.0  0.10638  0.91737  0.17106  1.0000
  C   C1164     1.0  0.17709  0.91097  0.09505  1.0000
  C   C1165     1.0  0.18267  0.90186  0.11189  1.0000
  C   C1166     1.0  0.20146  0.90222  0.11661  1.0000
  C   C1167     1.0  0.21489  0.91159  0.10455  1.0000
  C   C1168     1.0  0.20938  0.92051  0.08762  1.0000
  C   C1169     1.0  0.19058  0.92023  0.08294  1.0000
  H   H2034     1.0  0.17247  0.89464  0.12131  1.0000
  H   H2035     1.0  0.20556  0.89526  0.12974  1.0000
  H   H2036     1.0  0.21951  0.92783  0.07822  1.0000
  H   H2037     1.0  0.18641  0.92731  0.06989  1.0000
  C   C1170     1.0  0.46386  0.85163  0.25406  1.0000
  H   H2038     1.0  0.04184  0.95255  0.21547  1.0000
  C   C1171     1.0  0.09013  0.88484  0.02926  1.0000
  C   C1172     1.0  0.11289  0.85405  0.30467  1.0000
  H   H2039     1.0  0.44252  0.87056  0.19973  1.0000
  H   H2040     1.0  0.07049  0.81845  0.01726  1.0000
  H   H2041     1.0  0.10527  0.82180  0.25924  1.0000
  H   H2042     1.0  0.45467  0.86500  0.25557  1.0000
  C   C1173     1.0  0.43247  0.87674  0.22835  1.0000
  H   H2043     1.0  0.22421  0.95998  0.30651  1.0000
  C   C1174     1.0  0.05484  0.86085  0.24995  1.0000
  H   H2044     1.0  0.03135  0.95120  0.12281  1.0000
  H   H2045     1.0  0.10100  0.86728  0.27968  1.0000
  H   H2046     1.0  0.10590  0.88191  0.31529  1.0000
  H   H2047     1.0  0.03592  0.88645  0.10706  1.0000
  H   H2048     1.0  0.07998  0.82963  0.30962  1.0000
  C   C1175     1.0  0.99813  0.77399  0.08112  1.0000
  C   C1176     1.0  0.43692  0.97883  0.26321  1.0000
  H   H2049     1.0  0.26873  0.84843  0.11431  1.0000
  H   H2050     1.0  0.35534  0.93170  0.08423  1.0000
  H   H2051     1.0  0.37397  0.77074  0.08934  1.0000
  H   H2052     1.0  0.11368  0.90087  0.01832  1.0000
  H   H2053     1.0  0.06820  0.80768  0.29019  1.0000
  H   H2054     1.0  0.33671  0.78547  0.14106  1.0000
  N   N66       1.0  0.19805  0.97248  0.29560  1.0000
  H   H2055     1.0  0.15414  0.93844  0.29256  1.0000
  H   H2056     1.0  0.49480  0.96937  0.24233  1.0000
  H   H2057     1.0  0.48411  0.83666  0.20246  1.0000
  H   H2058     1.0  0.04417  0.86557  0.26142  1.0000
  H   H2059     1.0  0.49449  0.79735  0.22051  1.0000
  H   H2060     1.0  0.49020  0.86081  0.21994  1.0000
  H   H2061     1.0  0.05450  0.87193  0.23818  1.0000
  H   H2062     1.0  0.05085  0.84766  0.24489  1.0000
  H   H2063     1.0  0.01927  0.89745  0.01631  1.0000
  C   C1177     1.0  0.27675  0.81920  0.04722  1.0000
  H   H2064     1.0  0.12943  0.87124  0.31911  1.0000
  C   C1178     1.0  0.38348  0.76823  0.10091  1.0000
  H   H2065     1.0  0.01876  0.95187  0.19102  1.0000
  H   H2066     1.0  0.08050  0.95427  0.16580  1.0000
  C   C1179     1.0  0.11031  0.83086  0.26924  1.0000
  H   H2067     1.0  0.12720  0.83105  0.23193  1.0000
  C   C1180     1.0  0.28114  0.98516  0.29376  1.0000
  C   C1181     1.0  0.05120  0.91835  0.15511  1.0000
  C   C1182     1.0  0.03861  0.90385  0.16589  1.0000
  C   C1183     1.0  0.07978  0.94932  0.15169  1.0000
  C   C1184     1.0  0.04297  0.88439  0.15827  1.0000
  C   C1185     1.0  0.09199  0.96138  0.13775  1.0000
  H   H2068     1.0  0.06012  0.94660  0.13155  1.0000
  H   H2069     1.0  0.05203  0.91631  0.13986  1.0000
  H   H2070     1.0  0.06588  0.91391  0.15898  1.0000
  H   H2071     1.0  0.02327  0.90800  0.16486  1.0000
  H   H2072     1.0  0.04155  0.90227  0.18086  1.0000
  H   H2073     1.0  0.18888  0.97957  0.32389  1.0000
  H   H2074     1.0  0.08632  0.93464  0.15163  1.0000
  C   C1186     1.0  0.40681  0.78511  0.11510  1.0000
  H   H2075     1.0  0.05807  0.87905  0.15952  1.0000
  H   H2076     1.0  0.03392  0.87428  0.16647  1.0000
  H   H2077     1.0  0.07306  0.82885  0.26598  1.0000
  H   H2078     1.0  0.09212  0.95683  0.12332  1.0000
  H   H2079     1.0  0.08650  0.97651  0.13793  1.0000
  C   C1187     1.0  0.20672  0.98132  0.27739  1.0000
  H   H2080     1.0  0.42909  0.96706  0.25960  1.0000
  C   C1188     1.0  0.00148  0.95026  0.12932  1.0000
  H   H2081     1.0  0.18811  0.93942  0.28120  1.0000
  H   H2082     1.0  0.34847  0.78860  0.10715  1.0000
  H   H2083     1.0  0.08474  0.85389  0.24450  1.0000
  H   H2084     1.0  0.01397  0.97496  0.27276  1.0000
  H   H2085     1.0  0.44116  0.77041  0.12807  1.0000
  H   H2086     1.0  0.06335  0.84462  0.28303  1.0000
  H   H2087     1.0  0.46666  0.97662  0.22249  1.0000
  H   H2088     1.0  0.11654  0.88868  0.04097  1.0000
  H   H2089     1.0  0.47206  0.96285  0.27286  1.0000
  C   C1189     1.0  0.45853  0.82287  0.20197  1.0000
  H   H2090     1.0  0.35846  0.75795  0.11757  1.0000
  H   H2091     1.0  0.47244  0.83001  0.23556  1.0000
  H   H2092     1.0  0.49401  0.75055  0.06464  1.0000
  C   C1190     1.0  0.00875  0.98551  0.30015  1.0000
  Fe  Fe145     1.0  0.01252  0.97986  0.00641  1.0000
  H   H2093     1.0  0.38958  0.81570  0.09670  1.0000
  H   H2094     1.0  0.42779  0.86866  0.24157  1.0000
  H   H2095     1.0  0.42908  0.97371  0.20323  1.0000
  H   H2096     1.0  0.04494  0.92705  0.21679  1.0000
  C   C1191     1.0  0.02193  0.94305  0.13293  1.0000
  H   H2097     1.0  0.21002  0.98896  0.31477  1.0000
  H   H2098     1.0  0.01192  0.76871  0.07369  1.0000
  H   H2099     1.0  0.27711  0.80388  0.05151  1.0000
  H   H2100     1.0  0.44797  0.98593  0.28916  1.0000
  H   H2101     1.0  0.25012  0.96816  0.02905  1.0000
  H   H2102     1.0  0.01858  0.97999  0.08335  1.0000
  H   H2103     1.0  0.08401  0.86238  0.29843  1.0000
  H   H2104     1.0  0.47240  0.87752  0.22920  1.0000
  C   C1192     1.0  0.03501  0.93967  0.21340  1.0000
  H   H2105     1.0  0.46703  0.84896  0.18817  1.0000
  H   H2106     1.0  0.30611  0.97371  0.10102  1.0000
  H   H2107     1.0  0.44739  0.83520  0.23853  1.0000
  H   H2108     1.0  0.04286  0.86163  0.10511  1.0000
  C   C1193     1.0  0.29559  0.98552  0.01665  1.0000
  H   H2109     1.0  0.21466  0.98800  0.01170  1.0000
  C   C1194     1.0  0.28975  0.97380  0.32464  1.0000
  H   H2110     1.0  0.43210  0.85226  0.21362  1.0000
  H   H2111     1.0  0.44760  0.96282  0.23013  1.0000
  H   H2112     1.0  0.04430  0.89324  0.07342  1.0000
  C   C1195     1.0  0.00801  0.75814  0.11193  1.0000
  H   H2113     1.0  0.00314  0.90273  0.32460  1.0000
  H   H2114     1.0  0.32294  0.80398  0.12835  1.0000
  H   H2115     1.0  0.30461  0.98121  0.16537  1.0000
  H   H2116     1.0  0.27278  0.85619  0.04984  1.0000
  C   C1196     1.0  0.07476  0.85776  0.25676  1.0000
  H   H2117     1.0  0.40782  0.89719  0.23220  1.0000
  H   H2118     1.0  0.07495  0.79556  0.32264  1.0000
  H   H2119     1.0  0.45870  0.79909  0.18491  1.0000
  H   H2120     1.0  0.37678  0.96684  0.08494  1.0000
  H   H2121     1.0  0.06418  0.88189  0.08461  1.0000
  H   H2122     1.0  0.46016  0.82151  0.17163  1.0000
  H   H2123     1.0  0.09205  0.79915  0.28141  1.0000
  H   H2124     1.0  0.05040  0.90607  0.04019  1.0000
  C   C1197     1.0  0.03039  0.90597  0.02000  1.0000
  H   H2125     1.0  0.02850  0.89623  0.04892  1.0000
  C   C1198     1.0  0.08372  0.79020  0.31014  1.0000
  H   H2126     1.0  0.25607  0.91248  0.02779  1.0000
  C   C1199     1.0  0.04881  0.87640  0.03370  1.0000
  H   H2127     1.0  0.47885  0.85489  0.25363  1.0000
  H   H2128     1.0  0.05563  0.87639  0.01906  1.0000
  H   H2129     1.0  0.09679  0.87219  0.02231  1.0000
  N   N67       1.0  0.26724  0.92233  0.16537  1.0000
  C   C1200     1.0  0.25542  0.90783  0.17599  1.0000
  C   C1201     1.0  0.27743  0.93215  0.17873  1.0000
  C   C1202     1.0  0.25362  0.93691  0.15586  1.0000
  C   C1203     1.0  0.28118  0.91379  0.15038  1.0000
  C   C1204     1.0  0.29601  0.89788  0.15718  1.0000
  C   C1205     1.0  0.24389  0.89691  0.16396  1.0000
  C   C1206     1.0  0.26187  0.95536  0.14737  1.0000
  C   C1207     1.0  0.28473  0.92024  0.19609  1.0000
  C   C1208     1.0  0.29822  0.93084  0.20569  1.0000
  C   C1209     1.0  0.30606  0.88710  0.14095  1.0000
  C   C1210     1.0  0.36724  0.93923  0.08788  1.0000
  H   H2130     1.0  0.24516  0.91478  0.18670  1.0000
  H   H2131     1.0  0.26423  0.89705  0.18415  1.0000
  H   H2132     1.0  0.28967  0.93886  0.17096  1.0000
  H   H2133     1.0  0.26781  0.94392  0.18481  1.0000
  H   H2134     1.0  0.24116  0.94117  0.16586  1.0000
  H   H2135     1.0  0.24773  0.93089  0.14412  1.0000
  H   H2136     1.0  0.27352  0.90859  0.13936  1.0000
  H   H2137     1.0  0.28960  0.92474  0.14273  1.0000
  H   H2138     1.0  0.28947  0.88732  0.16723  1.0000
  H   H2139     1.0  0.30710  0.90414  0.16384  1.0000
  H   H2140     1.0  0.23336  0.90657  0.15654  1.0000
  H   H2141     1.0  0.25344  0.88909  0.15343  1.0000
  H   H2142     1.0  0.27393  0.95219  0.13681  1.0000
  H   H2143     1.0  0.26696  0.96325  0.15823  1.0000
  H   H2144     1.0  0.27249  0.91733  0.20646  1.0000
  H   H2145     1.0  0.29239  0.90655  0.19255  1.0000
  H   H2146     1.0  0.30240  0.92257  0.21865  1.0000
  H   H2147     1.0  0.31135  0.93293  0.19627  1.0000
  H   H2148     1.0  0.29131  0.94485  0.20955  1.0000
  H   H2149     1.0  0.29566  0.88015  0.13403  1.0000
  H   H2150     1.0  0.31353  0.89671  0.13049  1.0000
  H   H2151     1.0  0.31680  0.87606  0.14629  1.0000
  H   H2152     1.0  0.02548  0.98710  0.05950  1.0000
  H   H2153     1.0  0.36385  0.96131  0.06612  1.0000
  C   C1211     1.0  0.46826  0.96141  0.25842  1.0000
  H   H2154     1.0  0.03666  0.86777  0.03379  1.0000
  N   N68       1.0  0.24459  0.86388  0.06329  1.0000
  C   C1212     1.0  0.24602  0.88407  0.05567  1.0000
  C   C1213     1.0  0.24939  0.86207  0.08339  1.0000
  C   C1214     1.0  0.25827  0.85125  0.05129  1.0000
  C   C1215     1.0  0.22476  0.85825  0.06287  1.0000
  C   C1216     1.0  0.20861  0.87099  0.07317  1.0000
  C   C1217     1.0  0.23839  0.88953  0.03623  1.0000
  C   C1218     1.0  0.25973  0.82990  0.05776  1.0000
  C   C1219     1.0  0.27064  0.86274  0.08628  1.0000
  C   C1220     1.0  0.27360  0.86166  0.10711  1.0000
  C   C1221     1.0  0.18915  0.86426  0.07149  1.0000
  H   H2155     1.0  0.05981  0.98173  0.06354  1.0000
  H   H2156     1.0  0.10380  0.81949  0.30540  1.0000
  H   H2157     1.0  0.26113  0.88729  0.05429  1.0000
  H   H2158     1.0  0.23856  0.89408  0.06572  1.0000
  H   H2159     1.0  0.24128  0.87358  0.09130  1.0000
  H   H2160     1.0  0.24473  0.84880  0.09081  1.0000
  C   C1222     1.0  0.04723  0.85668  0.31896  1.0000
  H   H2161     1.0  0.25414  0.85219  0.03672  1.0000
  H   H2162     1.0  0.22139  0.85747  0.04818  1.0000
  H   H2163     1.0  0.22377  0.84371  0.06951  1.0000
  H   H2164     1.0  0.20823  0.88582  0.06724  1.0000
  H   H2165     1.0  0.21053  0.87073  0.08832  1.0000
  H   H2166     1.0  0.17101  0.96233  0.30630  1.0000
  H   H2167     1.0  0.22303  0.88773  0.03664  1.0000
  H   H2168     1.0  0.24669  0.82372  0.05491  1.0000
  H   H2169     1.0  0.26144  0.82729  0.07293  1.0000
  H   H2170     1.0  0.27963  0.85070  0.08022  1.0000
  H   H2171     1.0  0.27587  0.87595  0.07953  1.0000
  H   H2172     1.0  0.26568  0.87396  0.11385  1.0000
  H   H2173     1.0  0.23464  0.97273  0.14808  1.0000
  H   H2174     1.0  0.28899  0.86174  0.10870  1.0000
  H   H2175     1.0  0.18610  0.86505  0.05658  1.0000
  H   H2176     1.0  0.18851  0.84955  0.07768  1.0000
  H   H2177     1.0  0.17791  0.87345  0.07918  1.0000
  C   C1223     1.0  0.20272  0.94194  0.31754  1.0000
  C   C1224     1.0  0.24074  0.91015  0.02985  1.0000
  H   H2178     1.0  0.03161  0.83908  0.30444  1.0000
  H   H2179     1.0  0.04115  0.90764  0.00780  1.0000
  H   H2180     1.0  0.24140  0.96154  0.12640  1.0000
  C   C1225     1.0  0.07574  0.84172  0.27260  1.0000
  H   H2181     1.0  0.23651  0.97985  0.28421  1.0000
  H   H2182     1.0  0.40048  0.78418  0.06944  1.0000
  H   H2183     1.0  0.38071  0.93282  0.08078  1.0000
  S   S281      1.0  0.06086  0.92430  0.31930  1.0000
  H   H2184     1.0  0.35369  0.98718  0.31603  1.0000
  C   C1226     1.0  0.03982  0.89671  0.03712  1.0000
  H   H2185     1.0  0.35220  0.99070  0.05731  1.0000
  H   H2186     1.0  0.35132  0.81299  0.10897  1.0000
  H   H2187     1.0  0.30259  0.98933  0.08054  1.0000
  C   C1227     1.0  0.10610  0.89680  0.03210  1.0000
  H   H2188     1.0  0.27061  0.99153  0.28469  1.0000
  H   H2189     1.0  0.07790  0.87138  0.26148  1.0000
  H   H2190     1.0  0.09855  0.78624  0.31372  1.0000
  H   H2191     1.0  0.07409  0.89269  0.05477  1.0000
  H   H2192     1.0  0.08099  0.81027  0.03875  1.0000
  H   H2193     1.0  0.41292  0.99653  0.29143  1.0000
  N   N69       1.0  0.06269  0.86746  0.04723  1.0000
  C   C1228     1.0  0.03706  0.87483  0.09753  1.0000
  C   C1229     1.0  0.22955  0.98801  0.01510  1.0000
  H   H2194     1.0  0.46961  0.82550  0.27130  1.0000
  C   C1230     1.0  0.27594  0.98205  0.31311  1.0000
  H   H2195     1.0  0.11319  0.85744  0.25107  1.0000
  C   C1231     1.0  0.40200  0.79803  0.07465  1.0000
  C   C1232     1.0  0.37402  0.75392  0.11553  1.0000
  C   C1233     1.0  0.05903  0.95062  0.14630  1.0000
  C   C1234     1.0  0.23279  0.88249  0.17617  1.0000
  S   S282      1.0  0.25215  0.98893  0.32210  1.0000
  N   N70       1.0  0.04557  0.93881  0.15868  1.0000
  H   H2196     1.0  0.05971  0.93303  0.18420  1.0000
  H   H2197     1.0  0.10686  0.95976  0.14164  1.0000
  H   H2198     1.0  0.40801  0.97211  0.29156  1.0000
  H   H2199     1.0  0.15802  0.93567  0.26779  1.0000
  H   H2200     1.0  0.02359  0.92024  0.02311  1.0000
  H   H2201     1.0  0.05350  0.96583  0.14598  1.0000
  H   H2202     1.0  0.40947  0.81000  0.04646  1.0000
  H   H2203     1.0  0.10026  0.90990  0.03883  1.0000
  C   C1235     1.0  0.02570  0.94535  0.15350  1.0000
  C   C1236     1.0  0.04739  0.94221  0.17893  1.0000
  H   H2204     1.0  0.22581  0.96731  0.03875  1.0000
  S   S283      1.0  0.05246  0.77001  0.08693  1.0000
  H   H2205     1.0  0.02415  0.92798  0.12980  1.0000
  H   H2206     1.0  0.19637  0.99216  0.27103  1.0000
  H   H2207     1.0  0.14528  0.82505  0.24814  1.0000
  H   H2208     1.0  0.48435  0.95044  0.23326  1.0000
  H   H2209     1.0  0.42752  0.99180  0.25980  1.0000
  H   H2210     1.0  0.38442  0.81303  0.05382  1.0000
  N   N71       1.0  0.09377  0.83831  0.28243  1.0000
  C   C1237     1.0  0.08323  0.80507  0.29358  1.0000
  H   H2211     1.0  0.11263  0.96421  0.32411  1.0000
  H   H2212     1.0  0.24033  0.75180  0.03049  1.0000
  C   C1238     1.0  0.42939  0.77229  0.13934  1.0000
  H   H2213     1.0  0.02112  0.75182  0.10412  1.0000
  H   H2214     1.0  0.05062  0.95699  0.18009  1.0000
  H   H2215     1.0  0.02322  0.92668  0.19202  1.0000
  H   H2216     1.0  0.34554  0.96645  0.10669  1.0000
  S   S284      1.0  0.35434  0.75080  0.06242  1.0000
  H   H2217     1.0  0.03856  0.85865  0.06551  1.0000
  H   H2218     1.0  0.05382  0.82825  0.05678  1.0000
  H   H2219     1.0  0.05800  0.80369  0.03489  1.0000
  H   H2220     1.0  0.12073  0.82131  0.27705  1.0000
  C   C1239     1.0  0.48723  0.95661  0.24626  1.0000
  H   H2221     1.0  0.08926  0.87165  0.05760  1.0000
  C   C1240     1.0  0.13550  0.83666  0.24217  1.0000
  H   H2222     1.0  0.41083  0.75602  0.12723  1.0000
  H   H2223     1.0  0.29991  0.97060  0.01896  1.0000
  H   H2224     1.0  0.40449  0.87858  0.21774  1.0000
  H   H2225     1.0  0.43196  0.76117  0.15079  1.0000
  C   C1241     1.0  0.02976  0.93983  0.19327  1.0000
  C   C1242     1.0  0.05778  0.83272  0.04185  1.0000
  C   C1243     1.0  0.05018  0.87969  0.08001  1.0000
  H   H2226     1.0  0.06104  0.85179  0.07431  1.0000
  H   H2227     1.0  0.04456  0.83724  0.03504  1.0000
  C   C1244     1.0  0.24677  0.96854  0.13778  1.0000
  C   C1245     1.0  0.37256  0.79367  0.12294  1.0000
  H   H2228     1.0  0.02224  0.96053  0.15620  1.0000
  C   C1246     1.0  0.34548  0.96953  0.09126  1.0000
  H   H2229     1.0  0.29024  0.82418  0.05057  1.0000
  C   C1247     1.0  0.09730  0.85621  0.29075  1.0000
  H   H2230     1.0  0.41936  0.97983  0.31049  1.0000
  H   H2231     1.0  0.32919  0.98317  0.06167  1.0000
  C   C1248     1.0  0.05277  0.86355  0.06658  1.0000
  C   C1249     1.0  0.06747  0.81526  0.03258  1.0000
  H   H2232     1.0  0.02201  0.93917  0.22334  1.0000
  C   C1250     1.0  0.28434  0.99500  0.03072  1.0000
  C   C1251     1.0  0.41484  0.88809  0.22119  1.0000
  H   H2233     1.0  0.47525  0.99364  0.26531  1.0000
  C   C1252     1.0  0.15826  0.94572  0.27873  1.0000
  C   C1253     1.0  0.07123  0.84873  0.04020  1.0000
  H   H2234     1.0  0.08376  0.84312  0.04795  1.0000
  H   H2235     1.0  0.22101  0.91659  0.31037  1.0000
  N   N72       1.0  0.46169  0.85389  0.21769  1.0000
  H   H2236     1.0  0.13108  0.85193  0.26691  1.0000
  S   S285      1.0  0.11816  0.92371  0.31742  1.0000
  N   N73       1.0  0.34121  0.99039  0.08651  1.0000
  H   H2237     1.0  0.41888  0.89742  0.20859  1.0000
  H   H2238     1.0  0.48068  0.80998  0.18233  1.0000
  H   H2239     1.0  0.37796  0.99019  0.31938  1.0000
  C   C1254     1.0  0.45294  0.97671  0.23144  1.0000
  H   H2240     1.0  0.23327  0.91964  0.04032  1.0000
  S   S286      1.0  0.33754  0.96511  0.28863  1.0000
  H   H2241     1.0  0.08064  0.89332  0.01970  1.0000
  C   C1255     1.0  0.47593  0.86824  0.21751  1.0000
  H   H2242     1.0  0.37334  0.80370  0.08601  1.0000
  C   C1256     1.0  0.41829  0.98165  0.29514  1.0000
  H   H2243     1.0  0.04000  0.88498  0.14334  1.0000
  H   H2244     1.0  0.20993  0.97055  0.26688  1.0000
  C   C1257     1.0  0.07893  0.87929  0.04823  1.0000
  C   C1258     1.0  0.43781  0.97675  0.28476  1.0000
  S   S287      1.0  0.47463  0.76122  0.10299  1.0000
  H   H2245     1.0  0.05338  0.97178  0.08702  1.0000
  C   C1259     1.0  0.17819  0.95213  0.27834  1.0000
  H   H2246     1.0  0.37682  0.80652  0.12855  1.0000
  H   H2247     1.0  0.36811  0.93728  0.10328  1.0000
  H   H2248     1.0  0.21629  0.94693  0.28948  1.0000
  H   H2249     1.0  0.04436  0.75445  0.12384  1.0000
  H   H2250     1.0  0.46237  0.84605  0.28420  1.0000
  H   H2251     1.0  0.40999  0.79917  0.11898  1.0000
  H   H2252     1.0  0.44287  0.82581  0.20263  1.0000
  H   H2253     1.0  0.41679  0.79838  0.07822  1.0000
  C   C1260     1.0  0.21112  0.95545  0.30158  1.0000
  C   C1261     1.0  0.03915  0.83995  0.31665  1.0000
  C   C1262     1.0  0.46099  0.84191  0.23610  1.0000
  H   H2254     1.0  0.19013  0.93581  0.31353  1.0000
  H   H2255     1.0  0.42953  0.78630  0.14492  1.0000
  C   C1263     1.0  0.45989  0.83874  0.27173  1.0000
  H   H2256     1.0  0.06888  0.99042  0.08334  1.0000
  C   C1264     1.0  0.33715  0.79960  0.13340  1.0000
  C   C1265     1.0  0.21732  0.92543  0.32246  1.0000
  H   H2257     1.0  0.01482  0.93792  0.16251  1.0000
  C   C1266     1.0  0.11846  0.87321  0.30897  1.0000
  H   H2258     1.0  0.44256  0.96189  0.28929  1.0000
  H   H2259     1.0  0.46024  0.94874  0.25959  1.0000
  S   S288      1.0  0.04427  0.87596  0.30185  1.0000
  C   C1267     1.0  0.12216  0.84567  0.25769  1.0000
  C   C1268     1.0  0.36424  0.96020  0.08156  1.0000
  H   H2260     1.0  0.01149  0.77241  0.11478  1.0000
  H   H2261     1.0  0.18216  0.95819  0.26393  1.0000
  H   H2262     1.0  0.12439  0.88096  0.29603  1.0000
  C   C1269     1.0  0.23516  0.96899  0.02549  1.0000
  H   H2263     1.0  0.14416  0.84746  0.23455  1.0000
  C   C1270     1.0  0.46494  0.81279  0.18412  1.0000
  H   H2264     1.0  0.37225  0.98323  0.29727  1.0000
  C   C1271     1.0  0.17861  0.96712  0.29269  1.0000
  H   H2265     1.0  0.25753  0.99242  0.00191  1.0000
  H   H2266     1.0  0.07782  0.77733  0.30645  1.0000
  C   C1272     1.0  0.47827  0.88166  0.19950  1.0000
  S   S289      1.0  0.34376  0.99417  0.23856  1.0000
  H   H2267     1.0  0.30342  0.98186  0.27102  1.0000
  C   C1273     1.0  0.02137  0.99250  0.07362  1.0000
  N   N74       1.0  0.45591  0.97872  0.25166  1.0000
  C   C1274     1.0  0.44217  0.86307  0.21394  1.0000
  C   C1275     1.0  0.46858  0.84118  0.20207  1.0000
  H   H2268     1.0  0.10746  0.84697  0.31820  1.0000
  C   C1276     1.0  0.43251  0.75548  0.06996  1.0000
  H   H2269     1.0  0.48265  0.87370  0.18693  1.0000
  C   C1277     1.0  0.24322  0.99137  0.99718  1.0000
  H   H2270     1.0  0.23363  0.95720  0.01679  1.0000
  C   C1278     1.0  0.00515  0.98471  0.28146  1.0000
  H   H2271     1.0  0.46479  0.89061  0.19738  1.0000
  H   H2272     1.0  0.36948  0.98229  0.11322  1.0000
  C   C1279     1.0  0.05630  0.98499  0.07842  1.0000
  H   H2273     1.0  0.16946  0.97968  0.28749  1.0000
  H   H2274     1.0  0.42763  0.76014  0.99854  1.0000
  H   H2275     1.0  0.44953  0.98553  0.19329  1.0000
  C   C1280     1.0  0.36717  0.99209  0.30906  1.0000
  C   C1281     1.0  0.30516  0.98870  0.09551  1.0000
  H   H2276     1.0  0.37954  0.75335  0.12940  1.0000
  H   H2277     1.0  0.32563  0.99425  0.11361  1.0000
  H   H2278     1.0  0.27478  0.99264  0.10332  1.0000
  H   H2279     1.0  0.23692  0.98640  0.24967  1.0000
  H   H2280     1.0  0.42519  0.99407  0.22996  1.0000
  C   C1282     1.0  0.45673  0.75139  0.09240  1.0000
  H   H2281     1.0  0.49357  0.92905  0.26119  1.0000
  C   C1283     1.0  0.46608  0.99599  0.25346  1.0000
  H   H2282     1.0  0.39689  0.76102  0.09439  1.0000
  C   C1284     1.0  0.33839  0.99352  0.06589  1.0000
  H   H2283     1.0  0.46322  0.75040  0.99660  1.0000
  H   H2284     1.0  0.99862  0.96550  0.13174  1.0000
  H   H2285     1.0  0.99925  0.94842  0.11453  1.0000
  C   C1285     1.0  0.30139  0.99541  0.99953  1.0000
  H   H2286     1.0  0.31904  0.96239  0.32596  1.0000
  C   C1286     1.0  0.43933  0.99215  0.22192  1.0000
  H   H2287     1.0  0.05302  0.75301  0.15681  1.0000
  C   C1287     1.0  0.43592  0.98708  0.20237  1.0000
  H   H2288     1.0  0.99940  0.78822  0.08575  1.0000
  C   C1288     1.0  0.49359  0.89488  0.20084  1.0000
  H   H2289     1.0  0.00155  0.83828  0.32521  1.0000
  H   H2290     1.0  0.99898  0.86993  0.32128  1.0000
  H   H2291     1.0  0.49507  0.90426  0.18777  1.0000
  H   H2292     1.0  0.23049  0.93060  0.32641  1.0000
  H   H2293     1.0  0.28914  0.99792  0.12122  1.0000
  C   C1289     1.0  0.36438  0.99736  0.11030  1.0000
  C   C1290     1.0  0.32363  0.99740  0.09848  1.0000
  C   C1291     1.0  0.23348  0.99799  0.25921  1.0000
  Fe  Fe146     1.0  0.23788  0.98260  0.35171  1.0000
  H   H2294     1.0  0.07539  0.75417  0.52874  1.0000
  H   H2295     1.0  0.48123  0.83048  0.47851  1.0000
  Fe  Fe147     1.0  0.23097  0.95713  0.38761  1.0000
  S   S290      1.0  0.20396  0.97429  0.39720  1.0000
  S   S291      1.0  0.24322  0.93030  0.40340  1.0000
  Fe  Fe148     1.0  0.19682  0.97545  0.36719  1.0000
  S   S292      1.0  0.16656  0.97699  0.35776  1.0000
  H   H2296     1.0  0.11974  0.79599  0.57935  1.0000
  S   S293      1.0  0.22275  0.95635  0.35814  1.0000
  S   S294      1.0  0.24818  0.98207  0.38049  1.0000
  H   H2297     1.0  0.22962  0.99413  0.52532  1.0000
  S   S295      1.0  0.02893  0.77110  0.39907  1.0000
  H   H2298     1.0  0.36629  0.84542  0.61049  1.0000
  Fe  Fe149     1.0  0.00234  0.76189  0.38956  1.0000
  Fe  Fe150     1.0  0.03756  0.77897  0.36861  1.0000
  H   H2299     1.0  0.46406  0.84686  0.43338  1.0000
  H   H2300     1.0  0.46878  0.80726  0.45883  1.0000
  C   C1292     1.0  0.08701  0.74907  0.46182  1.0000
  C   C1293     1.0  0.47643  0.80916  0.44468  1.0000
  H   H2301     1.0  0.04334  0.76068  0.54236  1.0000
  S   S296      1.0  0.01495  0.77640  0.59425  1.0000
  H   H2302     1.0  0.12411  0.78762  0.46169  1.0000
  Fe  Fe151     1.0  0.24724  0.89534  0.51278  1.0000
  S   S297      1.0  0.22762  0.89344  0.53926  1.0000
  S   S298      1.0  0.23582  0.91920  0.49252  1.0000
  Fe  Fe152     1.0  0.27592  0.86414  0.52915  1.0000
  S   S299      1.0  0.25755  0.86025  0.55630  1.0000
  S   S300      1.0  0.30584  0.84915  0.52292  1.0000
  Fe  Fe153     1.0  0.23303  0.86181  0.53806  1.0000
  S   S301      1.0  0.20536  0.84705  0.54260  1.0000
  Fe  Fe154     1.0  0.25358  0.89214  0.55472  1.0000
  S   S302      1.0  0.26017  0.90930  0.57823  1.0000
  S   S303      1.0  0.25165  0.86388  0.51081  1.0000
  S   S304      1.0  0.27301  0.89590  0.52840  1.0000
  Fe  Fe155     1.0  0.41913  0.76669  0.58967  1.0000
  S   S305      1.0  0.40769  0.78176  0.56387  1.0000
  Fe  Fe156     1.0  0.43026  0.80397  0.60347  1.0000
  S   S306      1.0  0.41991  0.82137  0.57792  1.0000
  S   S307      1.0  0.44648  0.81149  0.62786  1.0000
  Fe  Fe157     1.0  0.39445  0.80434  0.58243  1.0000
  S   S308      1.0  0.36286  0.81593  0.58396  1.0000
  Fe  Fe158     1.0  0.43400  0.79747  0.56082  1.0000
  S   S309      1.0  0.44854  0.79866  0.53056  1.0000
  S   S310      1.0  0.40420  0.78809  0.60883  1.0000
  S   S311      1.0  0.44596  0.78140  0.58579  1.0000
  S   S312      1.0  0.11902  0.76388  0.52476  1.0000
  C   C1294     1.0  0.10756  0.79355  0.42808  1.0000
  Fe  Fe159     1.0  0.15032  0.75376  0.52263  1.0000
  S   S313      1.0  0.17716  0.76946  0.52229  1.0000
  H   H2303     1.0  0.13140  0.81741  0.36171  1.0000
  C   C1295     1.0  0.23626  0.98872  0.44730  1.0000
  C   C1296     1.0  0.19777  0.82584  0.53568  1.0000
  C   C1297     1.0  0.17823  0.82330  0.53801  1.0000
  C   C1298     1.0  0.17154  0.80642  0.53354  1.0000
  C   C1299     1.0  0.18437  0.79171  0.52686  1.0000
  C   C1300     1.0  0.20387  0.79440  0.52422  1.0000
  C   C1301     1.0  0.21054  0.81134  0.52852  1.0000
  H   H2304     1.0  0.16820  0.83442  0.54350  1.0000
  H   H2305     1.0  0.15649  0.80473  0.53549  1.0000
  H   H2306     1.0  0.21396  0.78316  0.51905  1.0000
  H   H2307     1.0  0.22561  0.81296  0.52675  1.0000
  C   C1302     1.0  0.32150  0.83884  0.53971  1.0000
  C   C1303     1.0  0.31475  0.83304  0.55800  1.0000
  C   C1304     1.0  0.32760  0.82571  0.57117  1.0000
  C   C1305     1.0  0.34738  0.82373  0.56620  1.0000
  C   C1306     1.0  0.35411  0.82892  0.54772  1.0000
  C   C1307     1.0  0.34123  0.83637  0.53457  1.0000
  H   H2308     1.0  0.29960  0.83424  0.56199  1.0000
  H   H2309     1.0  0.32217  0.82155  0.58534  1.0000
  H   H2310     1.0  0.36925  0.82748  0.54363  1.0000
  H   H2311     1.0  0.34662  0.84055  0.52039  1.0000
  H   H2312     1.0  0.17796  0.80942  0.49080  1.0000
  H   H2313     1.0  0.35315  0.88783  0.60540  1.0000
  H   H2314     1.0  0.00230  0.77221  0.45668  1.0000
  C   C1308     1.0  0.44341  0.82719  0.64640  1.0000
  S   S314      1.0  0.05256  0.75017  0.36357  1.0000
  H   H2315     1.0  0.28160  0.96704  0.44867  1.0000
  H   H2316     1.0  0.13189  0.98429  0.33982  1.0000
  H   H2317     1.0  0.42460  0.84863  0.63314  1.0000
  C   C1309     1.0  0.03746  0.76406  0.58816  1.0000
  C   C1310     1.0  0.05044  0.77282  0.57505  1.0000
  C   C1311     1.0  0.06821  0.76331  0.56921  1.0000
  C   C1312     1.0  0.19070  0.77355  0.57716  1.0000
  H   H2318     1.0  0.04665  0.78703  0.56926  1.0000
  H   H2319     1.0  0.07802  0.77024  0.55911  1.0000
  C   C1313     1.0  0.24694  0.93058  0.58472  1.0000
  C   C1314     1.0  0.22819  0.93529  0.58036  1.0000
  C   C1315     1.0  0.21780  0.95181  0.58677  1.0000
  C   C1316     1.0  0.22621  0.96404  0.59710  1.0000
  C   C1317     1.0  0.24506  0.95949  0.60120  1.0000
  C   C1318     1.0  0.25528  0.94273  0.59519  1.0000
  H   H2320     1.0  0.22153  0.92597  0.57249  1.0000
  H   H2321     1.0  0.20317  0.95512  0.58370  1.0000
  H   H2322     1.0  0.25165  0.96871  0.60924  1.0000
  H   H2323     1.0  0.26972  0.93914  0.59873  1.0000
  H   H2324     1.0  0.43383  0.75839  0.54117  1.0000
  C   C1319     1.0  0.06426  0.75939  0.51924  1.0000
  H   H2325     1.0  0.47061  0.78106  0.43909  1.0000
  C   C1320     1.0  0.12090  0.78215  0.57313  1.0000
  H   H2326     1.0  0.00586  0.82239  0.41323  1.0000
  H   H2327     1.0  0.15824  0.77922  0.56141  1.0000
  H   H2328     1.0  0.06660  0.84264  0.35999  1.0000
  H   H2329     1.0  0.09018  0.77192  0.37903  1.0000
  H   H2330     1.0  0.07212  0.78803  0.42103  1.0000
  H   H2331     1.0  0.29258  0.89942  0.61694  1.0000
  C   C1321     1.0  0.11567  0.82023  0.36222  1.0000
  H   H2332     1.0  0.18124  0.80387  0.57504  1.0000
  H   H2333     1.0  0.44974  0.85333  0.49759  1.0000
  H   H2334     1.0  0.44942  0.82828  0.49575  1.0000
  H   H2335     1.0  0.21126  0.91654  0.33453  1.0000
  C   C1322     1.0  0.24054  0.92672  0.42816  1.0000
  C   C1323     1.0  0.25166  0.91189  0.43719  1.0000
  C   C1324     1.0  0.25019  0.90905  0.45692  1.0000
  C   C1325     1.0  0.23752  0.92104  0.46773  1.0000
  C   C1326     1.0  0.22607  0.93551  0.45867  1.0000
  C   C1327     1.0  0.22752  0.93832  0.43900  1.0000
  H   H2336     1.0  0.26167  0.90274  0.42888  1.0000
  H   H2337     1.0  0.25908  0.89784  0.46373  1.0000
  H   H2338     1.0  0.21596  0.94457  0.46693  1.0000
  H   H2339     1.0  0.21849  0.94939  0.43218  1.0000
  C   C1328     1.0  0.15360  0.96192  0.34629  1.0000
  H   H2340     1.0  0.16394  0.77273  0.61098  1.0000
  H   H2341     1.0  0.15487  0.78987  0.58318  1.0000
  H   H2342     1.0  0.20884  0.96688  0.52621  1.0000
  H   H2343     1.0  0.47469  0.89372  0.65305  1.0000
  H   H2344     1.0  0.10216  0.76152  0.41883  1.0000
  H   H2345     1.0  0.10740  0.80878  0.43038  1.0000
  C   C1329     1.0  0.07976  0.79728  0.41025  1.0000
  C   C1330     1.0  0.48302  0.78942  0.43840  1.0000
  C   C1331     1.0  0.06393  0.75232  0.43835  1.0000
  C   C1332     1.0  0.10601  0.80475  0.37441  1.0000
  C   C1333     1.0  0.11201  0.80318  0.39464  1.0000
  C   C1334     1.0  0.21167  0.98426  0.54918  1.0000
  H   H2346     1.0  0.42970  0.84442  0.48893  1.0000
  C   C1335     1.0  0.13665  0.96950  0.33868  1.0000
  C   C1336     1.0  0.04068  0.82434  0.32997  1.0000
  H   H2347     1.0  0.28470  0.99561  0.56037  1.0000
  H   H2348     1.0  0.11048  0.79133  0.36777  1.0000
  H   H2349     1.0  0.33004  0.90653  0.59314  1.0000
  H   H2350     1.0  0.18584  0.75845  0.60981  1.0000
  C   C1337     1.0  0.05243  0.82301  0.41421  1.0000
  H   H2351     1.0  0.48555  0.75262  0.50374  1.0000
  C   C1338     1.0  0.13444  0.79058  0.44941  1.0000
  H   H2352     1.0  0.07709  0.82017  0.42938  1.0000
  H   H2353     1.0  0.16697  0.80790  0.46960  1.0000
  H   H2354     1.0  0.43124  0.90522  0.65646  1.0000
  C   C1339     1.0  0.21039  0.80058  0.58089  1.0000
  H   H2355     1.0  0.47992  0.85545  0.47539  1.0000
  H   H2356     1.0  0.08115  0.82802  0.40490  1.0000
  H   H2357     1.0  0.12730  0.79777  0.39347  1.0000
  H   H2358     1.0  0.28600  0.97131  0.33954  1.0000
  H   H2359     1.0  0.46703  0.76121  0.53955  1.0000
  H   H2360     1.0  0.01405  0.85506  0.34922  1.0000
  H   H2361     1.0  0.31542  0.89269  0.62608  1.0000
  H   H2362     1.0  0.10700  0.77615  0.57612  1.0000
  C   C1340     1.0  0.30841  0.92238  0.62092  1.0000
  C   C1341     1.0  0.33315  0.86720  0.60120  1.0000
  C   C1342     1.0  0.05041  0.82525  0.34578  1.0000
  H   H2363     1.0  0.45149  0.76132  0.51073  1.0000
  H   H2364     1.0  0.11176  0.81773  0.39919  1.0000
  N   N75       1.0  0.10084  0.79115  0.40915  1.0000
  C   C1343     1.0  0.45483  0.84449  0.46898  1.0000
  H   H2365     1.0  0.49527  0.90562  0.65577  1.0000
  H   H2366     1.0  0.13850  0.78758  0.41986  1.0000
  C   C1344     1.0  0.19051  0.79381  0.58357  1.0000
  H   H2367     1.0  0.11967  0.76701  0.40030  1.0000
  C   C1345     1.0  0.47659  0.79392  0.50148  1.0000
  C   C1346     1.0  0.47687  0.84270  0.46867  1.0000
  H   H2368     1.0  0.44970  0.83376  0.46101  1.0000
  N   N76       1.0  0.19860  0.86171  0.47724  1.0000
  C   C1347     1.0  0.21793  0.85157  0.47195  1.0000
  C   C1348     1.0  0.19185  0.87312  0.46016  1.0000
  C   C1349     1.0  0.20046  0.87422  0.49276  1.0000
  C   C1350     1.0  0.18427  0.84795  0.48417  1.0000
  C   C1351     1.0  0.18120  0.83328  0.47025  1.0000
  C   C1352     1.0  0.22491  0.83535  0.48611  1.0000
  C   C1353     1.0  0.18259  0.88777  0.49841  1.0000
  C   C1354     1.0  0.20392  0.88935  0.45219  1.0000
  C   C1355     1.0  0.19577  0.89962  0.43481  1.0000
  C   C1356     1.0  0.12780  0.78414  0.43160  1.0000
  C   C1357     1.0  0.24518  0.82719  0.48011  1.0000
  C   C1358     1.0  0.18599  0.89928  0.51451  1.0000
  H   H2369     1.0  0.22897  0.86174  0.47009  1.0000
  H   H2370     1.0  0.21840  0.84563  0.45806  1.0000
  H   H2371     1.0  0.19172  0.86382  0.44851  1.0000
  H   H2372     1.0  0.17680  0.87912  0.46297  1.0000
  H   H2373     1.0  0.21266  0.88291  0.48918  1.0000
  H   H2374     1.0  0.20406  0.86548  0.50567  1.0000
  H   H2375     1.0  0.18795  0.84043  0.49773  1.0000
  H   H2376     1.0  0.17000  0.85551  0.48749  1.0000
  H   H2377     1.0  0.19480  0.82645  0.46391  1.0000
  H   H2378     1.0  0.17312  0.84029  0.45872  1.0000
  H   H2379     1.0  0.22467  0.84040  0.50028  1.0000
  H   H2380     1.0  0.21580  0.82355  0.48717  1.0000
  H   H2381     1.0  0.17018  0.87987  0.50326  1.0000
  H   H2382     1.0  0.17880  0.89790  0.48653  1.0000
  H   H2383     1.0  0.20413  0.89993  0.46259  1.0000
  H   H2384     1.0  0.21881  0.88383  0.44803  1.0000
  H   H2385     1.0  0.19558  0.88973  0.42371  1.0000
  H   H2386     1.0  0.18112  0.90622  0.43840  1.0000
  H   H2387     1.0  0.20476  0.91093  0.42905  1.0000
  H   H2388     1.0  0.06372  0.87017  0.33650  1.0000
  H   H2389     1.0  0.42940  0.92687  0.64172  1.0000
  H   H2390     1.0  0.14744  0.75536  0.63782  1.0000
  H   H2391     1.0  0.24994  0.81602  0.49079  1.0000
  H   H2392     1.0  0.24573  0.82085  0.46645  1.0000
  H   H2393     1.0  0.25517  0.83829  0.47885  1.0000
  H   H2394     1.0  0.19815  0.90782  0.51047  1.0000
  H   H2395     1.0  0.17313  0.90903  0.51809  1.0000
  H   H2396     1.0  0.18890  0.88979  0.52715  1.0000
  H   H2397     1.0  0.27042  0.98383  0.41721  1.0000
  C   C1359     1.0  0.25256  0.97820  0.47579  1.0000
  H   H2398     1.0  0.13270  0.76753  0.59692  1.0000
  C   C1360     1.0  0.12566  0.95814  0.32976  1.0000
  H   H2399     1.0  0.04424  0.81291  0.42349  1.0000
  H   H2400     1.0  0.24442  0.98918  0.48412  1.0000
  C   C1361     1.0  0.27095  0.97195  0.48558  1.0000
  N   N77       1.0  0.17314  0.76351  0.58333  1.0000
  C   C1362     1.0  0.49341  0.82090  0.44556  1.0000
  H   H2401     1.0  0.00007  0.89947  0.34982  1.0000
  H   H2402     1.0  0.29627  0.95780  0.41764  1.0000
  C   C1363     1.0  0.26626  0.96599  0.50631  1.0000
  C   C1364     1.0  0.14847  0.93137  0.33585  1.0000
  H   H2403     1.0  0.24387  0.96592  0.47756  1.0000
  C   C1365     1.0  0.47791  0.85232  0.43454  1.0000
  H   H2404     1.0  0.46664  0.76381  0.47649  1.0000
  H   H2405     1.0  0.12397  0.78437  0.55771  1.0000
  H   H2406     1.0  0.26084  0.95487  0.45041  1.0000
  H   H2407     1.0  0.49348  0.78190  0.44759  1.0000
  H   H2408     1.0  0.18518  0.79452  0.59856  1.0000
  H   H2409     1.0  0.01081  0.82364  0.36065  1.0000
  H   H2410     1.0  0.09764  0.78768  0.43958  1.0000
  H   H2411     1.0  0.47435  0.86721  0.43826  1.0000
  H   H2412     1.0  0.27905  0.95957  0.47919  1.0000
  H   H2413     1.0  0.49201  0.83855  0.40962  1.0000
  H   H2414     1.0  0.20952  0.81564  0.58403  1.0000
  H   H2415     1.0  0.23102  0.97541  0.44393  1.0000
  H   H2416     1.0  0.06804  0.75272  0.50590  1.0000
  C   C1366     1.0  0.48807  0.79727  0.53137  1.0000
  H   H2417     1.0  0.48541  0.79920  0.54621  1.0000
  N   N78       1.0  0.48841  0.84123  0.44981  1.0000
  H   H2418     1.0  0.48955  0.79027  0.42374  1.0000
  H   H2419     1.0  0.44969  0.85863  0.46273  1.0000
  H   H2420     1.0  0.03332  0.76343  0.52065  1.0000
  H   H2421     1.0  0.25682  0.95435  0.50793  1.0000
  H   H2422     1.0  0.27957  0.96080  0.51280  1.0000
  H   H2423     1.0  0.25923  0.97811  0.51389  1.0000
  H   H2424     1.0  0.04868  0.82282  0.39962  1.0000
  H   H2425     1.0  0.19936  0.97857  0.45882  1.0000
  H   H2426     1.0  0.00008  0.80628  0.33665  1.0000
  H   H2427     1.0  0.07964  0.78358  0.50958  1.0000
  N   N79       1.0  0.25533  0.98468  0.45526  1.0000
  H   H2428     1.0  0.28074  0.95531  0.39981  1.0000
  H   H2429     1.0  0.30098  0.93259  0.61093  1.0000
  H   H2430     1.0  0.28022  0.98361  0.48472  1.0000
  H   H2431     1.0  0.40850  0.91471  0.64853  1.0000
  H   H2432     1.0  0.03442  0.81158  0.32794  1.0000
  C   C1367     1.0  0.48837  0.85293  0.41447  1.0000
  H   H2433     1.0  0.49142  0.84728  0.61438  1.0000
  C   C1368     1.0  0.30780  0.90215  0.61571  1.0000
  C   C1369     1.0  0.16978  0.81769  0.47999  1.0000
  C   C1370     1.0  0.19998  0.97281  0.53839  1.0000
  C   C1371     1.0  0.15619  0.77605  0.57688  1.0000
  H   H2434     1.0  0.06157  0.78792  0.52859  1.0000
  C   C1372     1.0  0.17151  0.76009  0.60446  1.0000
  H   H2435     1.0  0.25452  0.99389  0.54589  1.0000
  C   C1373     1.0  0.26651  0.96856  0.44534  1.0000
  C   C1374     1.0  0.47584  0.86396  0.40038  1.0000
  C   C1375     1.0  0.42196  0.91841  0.65330  1.0000
  H   H2436     1.0  0.27899  0.94062  0.42135  1.0000
  H   H2437     1.0  0.46641  0.81600  0.43473  1.0000
  S   S315      1.0  0.09847  0.75995  0.47827  1.0000
  S   S316      1.0  0.21274  0.98495  0.60430  1.0000
  H   H2438     1.0  0.09052  0.80828  0.37399  1.0000
  H   H2439     1.0  0.22350  0.97437  0.55422  1.0000
  C   C1376     1.0  0.13644  0.76857  0.58155  1.0000
  H   H2440     1.0  0.47217  0.87875  0.40419  1.0000
  C   C1377     1.0  0.43156  0.85704  0.65980  1.0000
  C   C1378     1.0  0.07239  0.75972  0.45269  1.0000
  H   H2441     1.0  0.17219  0.93654  0.35087  1.0000
  H   H2442     1.0  0.32336  0.92570  0.62084  1.0000
  H   H2443     1.0  0.46256  0.85716  0.39984  1.0000
  C   C1379     1.0  0.05890  0.84181  0.34789  1.0000
  H   H2444     1.0  0.21993  0.79214  0.59045  1.0000
  C   C1380     1.0  0.07380  0.81799  0.41499  1.0000
  H   H2445     1.0  0.18743  0.98172  0.53342  1.0000
  C   C1381     1.0  0.28167  0.95498  0.41517  1.0000
  H   H2446     1.0  0.19485  0.96087  0.54776  1.0000
  C   C1382     1.0  0.43232  0.84460  0.64531  1.0000
  H   H2447     1.0  0.46487  0.79311  0.49317  1.0000
  H   H2448     1.0  0.04833  0.83744  0.41885  1.0000
  H   H2449     1.0  0.07731  0.76159  0.39911  1.0000
  H   H2450     1.0  0.23801  0.99690  0.43346  1.0000
  H   H2451     1.0  0.07362  0.79529  0.39706  1.0000
  H   H2452     1.0  0.27070  0.99040  0.58233  1.0000
  H   H2453     1.0  0.06771  0.77388  0.45658  1.0000
  C   C1383     1.0  0.49543  0.79218  0.49293  1.0000
  C   C1384     1.0  0.36521  0.86023  0.61444  1.0000
  H   H2454     1.0  0.11119  0.83424  0.36775  1.0000
  N   N80       1.0  0.31974  0.87971  0.58938  1.0000
  C   C1385     1.0  0.30101  0.87127  0.58981  1.0000
  C   C1386     1.0  0.32883  0.88055  0.56941  1.0000
  C   C1387     1.0  0.31581  0.88904  0.55403  1.0000
  C   C1388     1.0  0.29372  0.86037  0.60827  1.0000
  C   C1389     1.0  0.27329  0.85573  0.60749  1.0000
  C   C1390     1.0  0.32731  0.89151  0.53499  1.0000
  H   H2455     1.0  0.33470  0.85258  0.59649  1.0000
  H   H2456     1.0  0.28967  0.88232  0.58574  1.0000
  H   H2457     1.0  0.30186  0.86085  0.57912  1.0000
  H   H2458     1.0  0.33452  0.86613  0.56544  1.0000
  H   H2459     1.0  0.34131  0.88894  0.56803  1.0000
  H   H2460     1.0  0.30671  0.90845  0.58642  1.0000
  H   H2461     1.0  0.30852  0.90302  0.55728  1.0000
  H   H2462     1.0  0.30475  0.87956  0.55246  1.0000
  H   H2463     1.0  0.30271  0.84679  0.61034  1.0000
  H   H2464     1.0  0.29405  0.86836  0.62073  1.0000
  H   H2465     1.0  0.26360  0.86890  0.60563  1.0000
  H   H2466     1.0  0.27247  0.84682  0.59570  1.0000
  H   H2467     1.0  0.26840  0.84787  0.62077  1.0000
  H   H2468     1.0  0.31760  0.89670  0.52410  1.0000
  H   H2469     1.0  0.33783  0.90189  0.53537  1.0000
  H   H2470     1.0  0.33488  0.87783  0.53097  1.0000
  S   S317      1.0  0.05255  0.80615  0.36321  1.0000
  H   H2471     1.0  0.11141  0.82067  0.34772  1.0000
  C   C1391     1.0  0.13143  0.93892  0.32839  1.0000
  C   C1392     1.0  0.47273  0.79652  0.52074  1.0000
  C   C1393     1.0  0.26693  0.96985  0.42363  1.0000
  H   H2472     1.0  0.30118  0.92408  0.63520  1.0000
  C   C1394     1.0  0.00473  0.81769  0.39909  1.0000
  C   C1395     1.0  0.44543  0.84252  0.48904  1.0000
  H   H2473     1.0  0.36122  0.87250  0.58682  1.0000
  H   H2474     1.0  0.05498  0.78645  0.50504  1.0000
  H   H2475     1.0  0.21664  0.79942  0.56620  1.0000
  H   H2476     1.0  0.05277  0.76069  0.43139  1.0000
  C   C1396     1.0  0.31658  0.89963  0.59540  1.0000
  H   H2477     1.0  0.15595  0.82372  0.48673  1.0000
  C   C1397     1.0  0.09182  0.76277  0.39202  1.0000
  H   H2478     1.0  0.01908  0.81214  0.39320  1.0000
  H   H2479     1.0  0.32732  0.86577  0.61607  1.0000
  H   H2480     1.0  0.37983  0.86460  0.61378  1.0000
  H   H2481     1.0  0.13608  0.80593  0.44786  1.0000
  C   C1398     1.0  0.10448  0.77047  0.40548  1.0000
  C   C1399     1.0  0.06506  0.78067  0.51542  1.0000
  C   C1400     1.0  0.35352  0.87328  0.60101  1.0000
  H   H2482     1.0  0.35863  0.86088  0.62909  1.0000
  H   H2483     1.0  0.20241  0.98947  0.56141  1.0000
  H   H2484     1.0  0.19337  0.77452  0.56158  1.0000
  H   H2485     1.0  0.23958  0.99337  0.56736  1.0000
  H   H2486     1.0  0.48292  0.76481  0.56761  1.0000
  S   S318      1.0  0.00994  0.77197  0.35952  1.0000
  H   H2487     1.0  0.25285  0.96727  0.41947  1.0000
  C   C1401     1.0  0.15944  0.94273  0.34480  1.0000
  H   H2488     1.0  0.19321  0.99524  0.47636  1.0000
  H   H2489     1.0  0.49294  0.87121  0.63853  1.0000
  H   H2490     1.0  0.48688  0.82843  0.63213  1.0000
  H   H2491     1.0  0.00643  0.84555  0.38627  1.0000
  H   H2492     1.0  0.20353  0.76526  0.58238  1.0000
  H   H2493     1.0  0.15309  0.91653  0.33493  1.0000
  H   H2494     1.0  0.14839  0.78282  0.45218  1.0000
  H   H2495     1.0  0.17424  0.74895  0.55805  1.0000
  H   H2496     1.0  0.12778  0.76854  0.43343  1.0000
  C   C1402     1.0  0.49742  0.85951  0.64882  1.0000
  C   C1403     1.0  0.99855  0.85980  0.35122  1.0000
  H   H2497     1.0  0.02076  0.88813  0.33693  1.0000
  C   C1404     1.0  0.20523  0.98657  0.46915  1.0000
  H   H2498     1.0  0.21180  0.97654  0.47980  1.0000
  H   H2499     1.0  0.48393  0.85353  0.65449  1.0000
  H   H2500     1.0  0.13594  0.75466  0.57596  1.0000
  C   C1405     1.0  0.04440  0.75479  0.52844  1.0000
  H   H2501     1.0  0.42310  0.87050  0.65860  1.0000
  C   C1406     1.0  0.05731  0.85746  0.33458  1.0000
  H   H2502     1.0  0.19832  0.94952  0.33031  1.0000
  C   C1407     1.0  0.00526  0.89240  0.33683  1.0000
  H   H2503     1.0  0.48362  0.86426  0.38618  1.0000
  C   C1408     1.0  0.48642  0.74928  0.56934  1.0000
  H   H2504     1.0  0.41536  0.74974  0.51879  1.0000
  H   H2505     1.0  0.01174  0.76023  0.54946  1.0000
  C   C1409     1.0  0.47346  0.74914  0.47830  1.0000
  H   H2506     1.0  0.28141  0.99785  0.45576  1.0000
  H   H2507     1.0  0.48766  0.74847  0.47026  1.0000
  H   H2508     1.0  0.47494  0.76967  0.81798  1.0000
  S   S319      1.0  0.47994  0.88188  0.76407  1.0000
  Fe  Fe160     1.0  0.45556  0.87033  0.72027  1.0000
  S   S320      1.0  0.44096  0.86809  0.74986  1.0000
  S   S321      1.0  0.44057  0.86882  0.69334  1.0000
  Fe  Fe161     1.0  0.45256  0.89579  0.75355  1.0000
  S   S322      1.0  0.44175  0.92389  0.76579  1.0000
  Fe  Fe162     1.0  0.46948  0.85439  0.75814  1.0000
  S   S323      1.0  0.47835  0.82717  0.77578  1.0000
  S   S324      1.0  0.46515  0.89884  0.72376  1.0000
  H   H2509     1.0  0.41827  0.96254  0.71572  1.0000
  S   S325      1.0  0.43683  0.77189  0.83746  1.0000
  H   H2510     1.0  0.23781  0.98988  0.69273  1.0000
  C   C1410     1.0  0.46587  0.81153  0.79195  1.0000
  C   C1411     1.0  0.44677  0.81555  0.79855  1.0000
  C   C1412     1.0  0.43793  0.80307  0.81217  1.0000
  C   C1413     1.0  0.44812  0.78657  0.81946  1.0000
  H   H2511     1.0  0.43888  0.82838  0.79336  1.0000
  H   H2512     1.0  0.42323  0.80644  0.81737  1.0000
  H   H2513     1.0  0.07979  0.99082  0.69666  1.0000
  H   H2514     1.0  0.01578  0.83764  0.77453  1.0000
  H   H2515     1.0  0.40182  0.88624  0.70972  1.0000
  N   N81       1.0  0.47230  0.75255  0.95598  1.0000
  H   H2516     1.0  0.32485  0.96822  0.82824  1.0000
  C   C1414     1.0  0.09374  0.99392  0.68925  1.0000
  S   S326      1.0  0.01144  0.98140  0.97503  1.0000
  C   C1415     1.0  0.38526  0.96209  0.76779  1.0000
  C   C1416     1.0  0.38514  0.94236  0.76844  1.0000
  C   C1417     1.0  0.40232  0.93045  0.76719  1.0000
  C   C1418     1.0  0.41976  0.93818  0.76554  1.0000
  C   C1419     1.0  0.41984  0.95790  0.76485  1.0000
  C   C1420     1.0  0.40271  0.96982  0.76573  1.0000
  H   H2517     1.0  0.37170  0.93626  0.77015  1.0000
  H   H2518     1.0  0.40208  0.91531  0.76817  1.0000
  H   H2519     1.0  0.43327  0.96400  0.76372  1.0000
  C   C1421     1.0  0.46060  0.79131  0.91573  1.0000
  S   S327      1.0  0.36339  0.97648  0.77036  1.0000
  C   C1422     1.0  0.46706  0.78236  0.81256  1.0000
  C   C1423     1.0  0.49001  0.95757  0.75403  1.0000
  H   H2520     1.0  0.27437  0.98613  0.97202  1.0000
  C   C1424     1.0  0.44874  0.80816  0.86517  1.0000
  H   H2521     1.0  0.45006  0.79272  0.86884  1.0000
  H   H2522     1.0  0.39168  0.89045  0.75180  1.0000
  H   H2523     1.0  0.00317  0.89715  0.70394  1.0000
  H   H2524     1.0  0.44639  0.81571  0.87822  1.0000
  C   C1425     1.0  0.44161  0.85221  0.67575  1.0000
  H   H2525     1.0  0.28531  0.98334  0.93863  1.0000
  H   H2526     1.0  0.44729  0.78618  0.91209  1.0000
  H   H2527     1.0  0.41732  0.90528  0.68941  1.0000
  H   H2528     1.0  0.45227  0.96620  0.71163  1.0000
  H   H2529     1.0  0.48452  0.95635  0.76906  1.0000
  C   C1426     1.0  0.22462  0.99739  0.69929  1.0000
  H   H2530     1.0  0.49610  0.82881  0.67301  1.0000
  Fe  Fe163     1.0  0.49187  0.88389  0.73404  1.0000
  C   C1427     1.0  0.37370  0.95459  0.83213  1.0000
  C   C1428     1.0  0.40759  0.91832  0.68698  1.0000
  H   H2531     1.0  0.30993  0.97037  0.79908  1.0000
  H   H2532     1.0  0.43157  0.75498  0.80065  1.0000
  H   H2533     1.0  0.39459  0.91369  0.68192  1.0000
  C   C1429     1.0  0.46883  0.76182  0.93680  1.0000
  C   C1430     1.0  0.33209  0.97589  0.81602  1.0000
  H   H2534     1.0  0.24476  0.97824  0.98976  1.0000
  C   C1431     1.0  0.46484  0.78367  0.93551  1.0000
  H   H2535     1.0  0.37628  0.88272  0.73593  1.0000
  S   S328      1.0  0.38640  0.76990  0.98202  1.0000
  H   H2536     1.0  0.22065  0.97697  0.97361  1.0000
  C   C1432     1.0  0.31947  0.97702  0.88032  1.0000
  C   C1433     1.0  0.42018  0.93181  0.71349  1.0000
  H   H2537     1.0  0.47786  0.95723  0.74549  1.0000
  H   H2538     1.0  0.48055  0.77668  0.96843  1.0000
  C   C1434     1.0  0.47586  0.79474  0.79888  1.0000
  N   N82       1.0  0.40242  0.92794  0.70499  1.0000
  H   H2539     1.0  0.39840  0.86900  0.74026  1.0000
  H   H2540     1.0  0.37434  0.95013  0.84725  1.0000
  H   H2541     1.0  0.39129  0.92932  0.82387  1.0000
  H   H2542     1.0  0.41265  0.76593  0.77379  1.0000
  C   C1435     1.0  0.40634  0.76267  0.94817  1.0000
  C   C1436     1.0  0.49617  0.83644  0.82397  1.0000
  C   C1437     1.0  0.48656  0.76221  0.96500  1.0000
  C   C1438     1.0  0.38914  0.94548  0.70121  1.0000
  H   H2543     1.0  0.40452  0.94902  0.82643  1.0000
  C   C1439     1.0  0.37952  0.95493  0.71890  1.0000
  H   H2544     1.0  0.45642  0.75631  0.93155  1.0000
  H   H2545     1.0  0.42832  0.95563  0.69327  1.0000
  H   H2546     1.0  0.37744  0.94216  0.69314  1.0000
  H   H2547     1.0  0.32371  0.98907  0.78930  1.0000
  H   H2548     1.0  0.21272  0.99565  0.69087  1.0000
  H   H2549     1.0  0.36784  0.94675  0.72559  1.0000
  H   H2550     1.0  0.47968  0.87226  0.68064  1.0000
  H   H2551     1.0  0.31496  0.96393  0.87552  1.0000
  H   H2552     1.0  0.36043  0.97514  0.70351  1.0000
  H   H2553     1.0  0.43198  0.92082  0.70991  1.0000
  H   H2554     1.0  0.40301  0.98497  0.76522  1.0000
  H   H2555     1.0  0.48469  0.79428  0.86976  1.0000
  H   H2556     1.0  0.39644  0.95628  0.69207  1.0000
  H   H2557     1.0  0.47256  0.78684  0.90535  1.0000
  H   H2558     1.0  0.37625  0.97998  0.81366  1.0000
  H   H2559     1.0  0.36328  0.98086  0.72693  1.0000
  C   C1440     1.0  0.37324  0.97640  0.82902  1.0000
  H   H2560     1.0  0.40926  0.94308  0.66654  1.0000
  C   C1441     1.0  0.45366  0.75385  0.96816  1.0000
  H   H2561     1.0  0.48099  0.75801  0.92631  1.0000
  C   C1442     1.0  0.27737  0.99664  0.94323  1.0000
  H   H2562     1.0  0.43611  0.81168  0.85712  1.0000
  H   H2563     1.0  0.40624  0.77783  0.94595  1.0000
  H   H2564     1.0  0.45794  0.94173  0.70702  1.0000
  H   H2565     1.0  0.30675  0.98516  0.88705  1.0000
  C   C1443     1.0  0.41545  0.75110  0.93431  1.0000
  H   H2566     1.0  0.01575  0.87384  0.70404  1.0000
  H   H2567     1.0  0.49059  0.79144  0.79377  1.0000
  H   H2568     1.0  0.45864  0.80697  0.91499  1.0000
  H   H2569     1.0  0.44844  0.76884  0.97012  1.0000
  C   C1444     1.0  0.46651  0.81390  0.85320  1.0000
  H   H2570     1.0  0.46787  0.80642  0.84026  1.0000
  C   C1445     1.0  0.39131  0.88358  0.73856  1.0000
  H   H2571     1.0  0.39134  0.94871  0.80625  1.0000
  C   C1446     1.0  0.37085  0.97501  0.71408  1.0000
  H   H2572     1.0  0.30604  0.99301  0.80896  1.0000
  H   H2573     1.0  0.47731  0.79040  0.93895  1.0000
  H   H2574     1.0  0.41658  0.89512  0.72536  1.0000
  C   C1447     1.0  0.41790  0.92980  0.67060  1.0000
  C   C1448     1.0  0.45220  0.83457  0.67709  1.0000
  C   C1449     1.0  0.39131  0.94488  0.82152  1.0000
  H   H2575     1.0  0.45239  0.78829  0.94521  1.0000
  H   H2576     1.0  0.42217  0.75737  0.92147  1.0000
  H   H2577     1.0  0.34249  0.96426  0.85157  1.0000
  C   C1450     1.0  0.42767  0.95147  0.70845  1.0000
  H   H2578     1.0  0.44762  0.94809  0.72995  1.0000
  H   H2579     1.0  0.35696  0.97548  0.86491  1.0000
  H   H2580     1.0  0.43184  0.93303  0.67447  1.0000
  H   H2581     1.0  0.46414  0.82933  0.84966  1.0000
  H   H2582     1.0  0.38982  0.95544  0.72939  1.0000
  C   C1451     1.0  0.44760  0.95182  0.71465  1.0000
  H   H2583     1.0  0.45218  0.74996  0.78495  1.0000
  H   H2584     1.0  0.41806  0.93038  0.72905  1.0000
  H   H2585     1.0  0.38839  0.92057  0.73241  1.0000
  C   C1452     1.0  0.39159  0.91461  0.71848  1.0000
  C   C1453     1.0  0.40170  0.89450  0.72217  1.0000
  H   H2586     1.0  0.45929  0.83016  0.68954  1.0000
  H   H2587     1.0  0.25547  0.98179  0.95870  1.0000
  H   H2588     1.0  0.38600  0.97987  0.83544  1.0000
  H   H2589     1.0  0.37753  0.91296  0.71346  1.0000
  C   C1454     1.0  0.42845  0.76458  0.77207  1.0000
  H   H2590     1.0  0.46635  0.92410  0.66718  1.0000
  H   H2591     1.0  0.36102  0.94927  0.82745  1.0000
  C   C1455     1.0  0.49207  0.87992  0.67494  1.0000
  C   C1456     1.0  0.21705  0.99050  0.96547  1.0000
  H   H2592     1.0  0.48195  0.81761  0.87624  1.0000
  H   H2593     1.0  0.00818  0.98437  0.73629  1.0000
  C   C1457     1.0  0.49308  0.85755  0.81837  1.0000
  S   S329      1.0  0.48340  0.85551  0.72841  1.0000
  H   H2594     1.0  0.44235  0.74837  0.96112  1.0000
  H   H2595     1.0  0.34275  0.96601  0.80855  1.0000
  C   C1458     1.0  0.47167  0.91146  0.67587  1.0000
  H   H2596     1.0  0.43329  0.77855  0.77395  1.0000
  N   N83       1.0  0.35549  0.98811  0.83668  1.0000
  H   H2597     1.0  0.32980  0.97322  0.89097  1.0000
  H   H2598     1.0  0.48163  0.86448  0.82788  1.0000
  H   H2599     1.0  0.48023  0.91614  0.68644  1.0000
  H   H2600     1.0  0.99968  0.82488  0.75026  1.0000
  H   H2601     1.0  0.00673  0.84802  0.74296  1.0000
  C   C1459     1.0  0.34642  0.97833  0.85426  1.0000
  H   H2602     1.0  0.38213  0.98423  0.70864  1.0000
  H   H2603     1.0  0.99844  0.85795  0.77537  1.0000
  C   C1460     1.0  0.19668  0.99051  0.96027  1.0000
  C   C1461     1.0  0.43647  0.74996  0.78669  1.0000
  C   C1462     1.0  0.31701  0.98260  0.80256  1.0000
  H   H2604     1.0  0.48710  0.84300  0.69195  1.0000
  C   C1463     1.0  0.26483  0.99251  0.96134  1.0000
  H   H2605     1.0  0.31019  0.98795  0.98880  1.0000
  S   S330      1.0  0.45528  0.75425  0.88674  1.0000
  H   H2606     1.0  0.22164  0.99076  0.71367  1.0000
  C   C1464     1.0  0.00174  0.88202  0.70244  1.0000
  C   C1465     1.0  0.00074  0.84277  0.77256  1.0000
  C   C1466     1.0  0.48388  0.89775  0.66339  1.0000
  C   C1467     1.0  0.45338  0.82237  0.66239  1.0000
  H   H2607     1.0  0.43353  0.76060  0.75768  1.0000
  H   H2608     1.0  0.03048  0.99790  0.90614  1.0000
  H   H2609     1.0  0.10118  0.98064  0.68404  1.0000
  H   H2610     1.0  0.49441  0.84260  0.85345  1.0000
  C   C1468     1.0  0.99975  0.99073  0.72528  1.0000
  H   H2611     1.0  0.48957  0.75467  0.97869  1.0000
  C   C1469     1.0  0.34179  0.99265  0.82182  1.0000
  H   H2612     1.0  0.46189  0.80891  0.66355  1.0000
  H   H2613     1.0  0.19572  0.97827  0.95195  1.0000
  C   C1470     1.0  0.32826  0.98904  0.86378  1.0000
  H   H2614     1.0  0.31726  0.99273  0.85382  1.0000
  H   H2615     1.0  0.48802  0.98773  0.75167  1.0000
  H   H2616     1.0  0.45926  0.90471  0.68304  1.0000
  H   H2617     1.0  0.29774  0.99535  0.69584  1.0000
  C   C1471     1.0  0.48445  0.80917  0.86380  1.0000
  C   C1472     1.0  0.39728  0.75475  0.96485  1.0000
  H   H2618     1.0  0.18661  0.98933  0.97310  1.0000
  H   H2619     1.0  0.22636  0.99125  0.95214  1.0000
  Fe  Fe164     1.0  0.45163  0.74919  0.85687  1.0000
  H   H2620     1.0  0.48276  0.83034  0.82255  1.0000
  H   H2621     1.0  0.48870  0.85965  0.80386  1.0000
  H   H2622     1.0  0.49752  0.79992  0.82791  1.0000
  H   H2623     1.0  0.49779  0.88436  0.68760  1.0000
  Fe  Fe165     1.0  0.85254  0.10867  0.10237  1.0000
  S   S331      1.0  0.87458  0.12363  0.08380  1.0000
  S   S332      1.0  0.82169  0.11386  0.09432  1.0000
  Fe  Fe166     1.0  0.88173  0.09481  0.13093  1.0000
  S   S333      1.0  0.90570  0.10850  0.11384  1.0000
  S   S334      1.0  0.88481  0.07630  0.15829  1.0000
  Fe  Fe167     1.0  0.88406  0.13365  0.10973  1.0000
  S   S335      1.0  0.88753  0.16418  0.11538  1.0000
  Fe  Fe168     1.0  0.89453  0.09736  0.08896  1.0000
  S   S336      1.0  0.91256  0.08820  0.06237  1.0000
  S   S337      1.0  0.86066  0.12045  0.12828  1.0000
  S   S338      1.0  0.87193  0.08188  0.10616  1.0000
  H   H2624     1.0  0.64093  0.11339  0.00990  1.0000
  S   S339      1.0  0.95050  0.00824  0.03682  1.0000
  H   H2625     1.0  0.55856  0.23007  0.09828  1.0000
  Fe  Fe169     1.0  0.91777  0.08389  0.26213  1.0000
  S   S340      1.0  0.91035  0.05469  0.27202  1.0000
  S   S341      1.0  0.91026  0.10082  0.23502  1.0000
  Fe  Fe170     1.0  0.93596  0.08938  0.29841  1.0000
  S   S342      1.0  0.92977  0.06023  0.31058  1.0000
  H   H2626     1.0  0.81531  0.22082  0.05466  1.0000
  Fe  Fe171     1.0  0.93986  0.05019  0.28218  1.0000
  S   S343      1.0  0.95905  0.02331  0.27489  1.0000
  Fe  Fe172     1.0  0.90088  0.06685  0.29979  1.0000
  C   C1473     1.0  0.61906  0.17198  0.99997  1.0000
  S   S344      1.0  0.94780  0.07888  0.27047  1.0000
  S   S345      1.0  0.90658  0.09652  0.28934  1.0000
  H   H2627     1.0  0.51738  0.15007  0.25973  1.0000
  H   H2628     1.0  0.55169  0.19081  0.05499  1.0000
  H   H2629     1.0  0.57445  0.10573  0.31830  1.0000
  C   C1474     1.0  0.98188  0.01008  0.30373  1.0000
  Fe  Fe173     1.0  0.62890  0.02745  0.21705  1.0000
  S   S346      1.0  0.62609  0.04657  0.24097  1.0000
  S   S347      1.0  0.63328  0.04290  0.18765  1.0000
  Fe  Fe174     1.0  0.64407  0.02342  0.25619  1.0000
  S   S348      1.0  0.67106  0.02964  0.26890  1.0000
  Fe  Fe175     1.0  0.60081  0.03129  0.25248  1.0000
  S   S349      1.0  0.57226  0.04162  0.26771  1.0000
  H   H2630     1.0  0.51989  0.11853  0.28483  1.0000
  S   S350      1.0  0.60220  0.01355  0.22777  1.0000
  C   C1475     1.0  0.96998  0.20503  0.00929  1.0000
  S   S351      1.0  0.60951  0.21734  0.02194  1.0000
  H   H2631     1.0  0.84479  0.03748  0.07545  1.0000
  Fe  Fe176     1.0  0.64093  0.21990  0.01835  1.0000
  S   S352      1.0  0.66379  0.19489  0.01507  1.0000
  C   C1476     1.0  0.56762  0.04664  0.19675  1.0000
  Fe  Fe177     1.0  0.72931  0.06434  0.06485  1.0000
  S   S353      1.0  0.70411  0.07605  0.08342  1.0000
  S   S354      1.0  0.76054  0.06133  0.07215  1.0000
  Fe  Fe178     1.0  0.70353  0.04618  0.03973  1.0000
  S   S355      1.0  0.67677  0.05658  0.05724  1.0000
  S   S356      1.0  0.70640  0.03095  0.01196  1.0000
  Fe  Fe179     1.0  0.68987  0.08429  0.05673  1.0000
  S   S357      1.0  0.66876  0.11113  0.05522  1.0000
  Fe  Fe180     1.0  0.69252  0.04804  0.08295  1.0000
  S   S358      1.0  0.68407  0.02958  0.10977  1.0000
  S   S359      1.0  0.71595  0.07442  0.03798  1.0000
  S   S360      1.0  0.71834  0.03576  0.06538  1.0000
  S   S361      1.0  0.87380  0.06507  0.31989  1.0000
  C   C1477     1.0  0.66559  0.17209  0.02734  1.0000
  C   C1478     1.0  0.68141  0.15911  0.02277  1.0000
  C   C1479     1.0  0.68289  0.14054  0.03138  1.0000
  C   C1480     1.0  0.66843  0.13464  0.04456  1.0000
  C   C1481     1.0  0.65266  0.14767  0.04918  1.0000
  C   C1482     1.0  0.65131  0.16629  0.04077  1.0000
  H   H2632     1.0  0.69257  0.16340  0.01243  1.0000
  H   H2633     1.0  0.69509  0.13073  0.02764  1.0000
  H   H2634     1.0  0.64142  0.14333  0.05941  1.0000
  H   H2635     1.0  0.63920  0.17613  0.04464  1.0000
  C   C1483     1.0  0.64803  0.03904  0.16637  1.0000
  C   C1484     1.0  0.64717  0.05300  0.15134  1.0000
  C   C1485     1.0  0.65819  0.05051  0.13405  1.0000
  C   C1486     1.0  0.67022  0.03391  0.13147  1.0000
  C   C1487     1.0  0.67114  0.01999  0.14653  1.0000
  C   C1488     1.0  0.66020  0.02253  0.16386  1.0000
  H   H2636     1.0  0.63782  0.06583  0.15303  1.0000
  H   H2637     1.0  0.65717  0.06129  0.12261  1.0000
  H   H2638     1.0  0.95791  0.24586  0.05123  1.0000
  H   H2639     1.0  0.66101  0.01161  0.17518  1.0000
  C   C1489     1.0  0.53165  0.09331  0.25103  1.0000
  C   C1490     1.0  0.52461  0.07724  0.26047  1.0000
  C   C1491     1.0  0.53725  0.06158  0.26565  1.0000
  C   C1492     1.0  0.55697  0.06171  0.26112  1.0000
  C   C1493     1.0  0.56401  0.07785  0.25184  1.0000
  C   C1494     1.0  0.55138  0.09355  0.24672  1.0000
  H   H2640     1.0  0.50943  0.07680  0.26364  1.0000
  H   H2641     1.0  0.53172  0.04916  0.27292  1.0000
  H   H2642     1.0  0.57920  0.07826  0.24883  1.0000
  H   H2643     1.0  0.55695  0.10598  0.23950  1.0000
  H   H2644     1.0  0.63725  0.23442  0.08900  1.0000
  H   H2645     1.0  0.76100  0.02998  0.11994  1.0000
  C   C1495     1.0  0.85101  0.03767  0.31206  1.0000
  C   C1496     1.0  0.58841  0.05266  0.13735  1.0000
  H   H2646     1.0  0.66631  0.11379  0.00764  1.0000
  C   C1497     1.0  0.97885  0.22377  0.28475  1.0000
  S   S362      1.0  0.63981  0.24057  0.04057  1.0000
  C   C1498     1.0  0.54828  0.02839  0.22258  1.0000
  H   H2647     1.0  0.85190  0.05983  0.08006  1.0000
  C   C1499     1.0  0.66866  0.01861  0.30727  1.0000
  C   C1500     1.0  0.67968  0.02562  0.29150  1.0000
  C   C1501     1.0  0.69834  0.02958  0.29360  1.0000
  C   C1502     1.0  0.70592  0.02663  0.31116  1.0000
  C   C1503     1.0  0.95162  0.16920  0.32645  1.0000
  C   C1504     1.0  0.91489  0.22862  0.27936  1.0000
  H   H2648     1.0  0.72027  0.02983  0.31249  1.0000
  C   C1505     1.0  0.79743  0.19931  0.05136  1.0000
  H   H2649     1.0  0.80726  0.04064  0.03429  1.0000
  H   H2650     1.0  0.69068  0.09987  0.11720  1.0000
  H   H2651     1.0  0.54234  0.12720  0.32399  1.0000
  H   H2652     1.0  0.83880  0.22917  0.06815  1.0000
  C   C1506     1.0  0.92433  0.06598  0.05645  1.0000
  C   C1507     1.0  0.92205  0.04937  0.06784  1.0000
  C   C1508     1.0  0.93038  0.03186  0.06172  1.0000
  C   C1509     1.0  0.94136  0.03077  0.04434  1.0000
  C   C1510     1.0  0.94423  0.04744  0.03328  1.0000
  C   C1511     1.0  0.93563  0.06491  0.03925  1.0000
  H   H2653     1.0  0.91355  0.05000  0.08117  1.0000
  H   H2654     1.0  0.92813  0.01905  0.07042  1.0000
  H   H2655     1.0  0.95264  0.04684  0.01989  1.0000
  H   H2656     1.0  0.93753  0.07766  0.03035  1.0000
  C   C1512     1.0  0.80491  0.09894  0.08825  1.0000
  C   C1513     1.0  0.78691  0.10709  0.08351  1.0000
  C   C1514     1.0  0.77310  0.09590  0.07866  1.0000
  C   C1515     1.0  0.77715  0.07633  0.07841  1.0000
  C   C1516     1.0  0.79508  0.06814  0.08336  1.0000
  C   C1517     1.0  0.80885  0.07933  0.08825  1.0000
  H   H2657     1.0  0.78361  0.12222  0.08355  1.0000
  H   H2658     1.0  0.75941  0.10245  0.07496  1.0000
  H   H2659     1.0  0.79827  0.05301  0.08360  1.0000
  H   H2660     1.0  0.82235  0.07280  0.09236  1.0000
  C   C1518     1.0  0.89260  0.08318  0.17930  1.0000
  C   C1519     1.0  0.89700  0.10155  0.18103  1.0000
  C   C1520     1.0  0.90282  0.10650  0.19802  1.0000
  C   C1521     1.0  0.90433  0.09323  0.21353  1.0000
  C   C1522     1.0  0.90013  0.07479  0.21177  1.0000
  C   C1523     1.0  0.89424  0.06984  0.19478  1.0000
  H   H2661     1.0  0.89586  0.11197  0.16928  1.0000
  H   H2662     1.0  0.90608  0.12079  0.19916  1.0000
  H   H2663     1.0  0.90131  0.06438  0.22350  1.0000
  H   H2664     1.0  0.89095  0.05557  0.19358  1.0000
  C   C1524     1.0  0.89761  0.18338  0.10205  1.0000
  C   C1525     1.0  0.89618  0.20093  0.10990  1.0000
  C   C1526     1.0  0.90317  0.21687  0.09967  1.0000
  C   C1527     1.0  0.91160  0.21545  0.08134  1.0000
  C   C1528     1.0  0.91322  0.19784  0.07353  1.0000
  C   C1529     1.0  0.90636  0.18186  0.08385  1.0000
  H   H2665     1.0  0.88956  0.20223  0.12402  1.0000
  H   H2666     1.0  0.72184  0.06005  0.20072  1.0000
  H   H2667     1.0  0.91981  0.19655  0.05941  1.0000
  H   H2668     1.0  0.90779  0.16839  0.07775  1.0000
  H   H2669     1.0  0.97507  0.00558  0.06554  1.0000
  H   H2670     1.0  0.81247  0.01596  0.04129  1.0000
  H   H2671     1.0  0.84078  0.02782  0.02407  1.0000
  H   H2672     1.0  0.72865  0.01274  0.10399  1.0000
  H   H2673     1.0  0.90624  0.20194  0.29279  1.0000
  N   N84       1.0  0.96980  0.23710  0.02394  1.0000
  H   H2674     1.0  0.57102  0.04452  0.22674  1.0000
  H   H2675     1.0  0.57575  0.19696  0.05475  1.0000
  H   H2676     1.0  0.88351  0.05230  0.06118  1.0000
  C   C1530     1.0  0.90548  0.03493  0.00632  1.0000
  C   C1531     1.0  0.53891  0.07594  0.18408  1.0000
  H   H2677     1.0  0.51732  0.19435  0.24220  1.0000
  C   C1532     1.0  0.85565  0.10920  0.04543  1.0000
  H   H2678     1.0  0.53093  0.19995  0.01720  1.0000
  H   H2679     1.0  0.98390  0.23029  0.27085  1.0000
  Fe  Fe181     1.0  0.97271  0.00099  0.01244  1.0000
  H   H2680     1.0  0.58595  0.17825  0.02466  1.0000
  C   C1533     1.0  0.99269  0.06460  0.24471  1.0000
  H   H2681     1.0  0.87258  0.02989  0.02542  1.0000
  H   H2682     1.0  0.86641  0.17447  0.03824  1.0000
  H   H2683     1.0  0.85918  0.22356  0.10440  1.0000
  N   N85       1.0  0.73466  0.05936  0.13460  1.0000
  C   C1534     1.0  0.72112  0.07677  0.13099  1.0000
  C   C1535     1.0  0.75511  0.06418  0.13190  1.0000
  C   C1536     1.0  0.73231  0.04574  0.12018  1.0000
  C   C1537     1.0  0.73025  0.04964  0.15375  1.0000
  C   C1538     1.0  0.72942  0.06188  0.17064  1.0000
  C   C1539     1.0  0.69958  0.07400  0.13375  1.0000
  H   H2684     1.0  0.84936  0.11234  0.03185  1.0000
  C   C1540     1.0  0.75913  0.08396  0.13709  1.0000
  C   C1541     1.0  0.78045  0.08530  0.13735  1.0000
  C   C1542     1.0  0.72196  0.05117  0.18873  1.0000
  H   H2685     1.0  0.85767  0.03666  0.10626  1.0000
  H   H2686     1.0  0.72438  0.08301  0.11643  1.0000
  H   H2687     1.0  0.72308  0.08800  0.14014  1.0000
  H   H2688     1.0  0.76443  0.05339  0.13968  1.0000
  H   H2689     1.0  0.76078  0.06363  0.11686  1.0000
  H   H2690     1.0  0.73417  0.05281  0.10579  1.0000
  H   H2691     1.0  0.71769  0.04127  0.12182  1.0000
  H   H2692     1.0  0.71660  0.04308  0.15436  1.0000
  H   H2693     1.0  0.74113  0.03761  0.15645  1.0000
  H   H2694     1.0  0.71988  0.07508  0.16886  1.0000
  H   H2695     1.0  0.74392  0.06538  0.17258  1.0000
  H   H2696     1.0  0.69578  0.06488  0.12329  1.0000
  H   H2697     1.0  0.69544  0.06756  0.14794  1.0000
  C   C1543     1.0  0.85316  0.05264  0.32279  1.0000
  N   N86       1.0  0.51513  0.12229  0.31474  1.0000
  H   H2698     1.0  0.75382  0.09490  0.12642  1.0000
  H   H2699     1.0  0.75214  0.08748  0.15098  1.0000
  H   H2700     1.0  0.78817  0.08163  0.12375  1.0000
  H   H2701     1.0  0.78301  0.09994  0.13973  1.0000
  H   H2702     1.0  0.78625  0.07561  0.14875  1.0000
  H   H2703     1.0  0.70717  0.04776  0.18777  1.0000
  H   H2704     1.0  0.73118  0.03788  0.19152  1.0000
  H   H2705     1.0  0.54334  0.02777  0.23777  1.0000
  C   C1544     1.0  0.53516  0.11547  0.31938  1.0000
  H   H2706     1.0  0.98334  0.06328  0.03904  1.0000
  H   H2707     1.0  0.92022  0.23755  0.31825  1.0000
  H   H2708     1.0  0.85583  0.20171  0.05682  1.0000
  C   C1545     1.0  0.98668  0.23543  0.05488  1.0000
  C   C1546     1.0  0.87100  0.16723  0.05154  1.0000
  H   H2709     1.0  0.91446  0.23615  0.26527  1.0000
  H   H2710     1.0  0.54050  0.13777  0.26318  1.0000
  H   H2711     1.0  0.82767  0.19925  0.04641  1.0000
  C   C1547     1.0  0.85722  0.04534  0.07663  1.0000
  H   H2712     1.0  0.87219  0.15177  0.05020  1.0000
  H   H2713     1.0  0.98038  0.03905  0.06554  1.0000
  H   H2714     1.0  0.61755  0.10608  0.20663  1.0000
  H   H2715     1.0  0.88524  0.17127  0.05374  1.0000
  H   H2716     1.0  0.56744  0.04415  0.15895  1.0000
  C   C1548     1.0  0.74372  0.01559  0.10426  1.0000
  C   C1549     1.0  0.70104  0.00997  0.00221  1.0000
  H   H2717     1.0  0.87068  0.11262  0.04374  1.0000
  H   H2718     1.0  0.56292  0.08405  0.32074  1.0000
  H   H2719     1.0  0.53975  0.06793  0.17147  1.0000
  H   H2720     1.0  0.84150  0.12276  0.31799  1.0000
  H   H2721     1.0  0.86082  0.08629  0.06594  1.0000
  H   H2722     1.0  0.81154  0.03323  0.05829  1.0000
  H   H2723     1.0  0.90058  0.00143  0.30346  1.0000
  H   H2724     1.0  0.90191  0.23026  0.10591  1.0000
  H   H2725     1.0  0.55015  0.22581  0.00077  1.0000
  H   H2726     1.0  0.86260  0.08106  0.02378  1.0000
  H   H2727     1.0  0.55375  0.11812  0.29299  1.0000
  H   H2728     1.0  0.86985  0.22576  0.08058  1.0000
  S   S363      1.0  0.61856  0.00968  0.26954  1.0000
  C   C1550     1.0  0.94991  0.24293  0.01842  1.0000
  C   C1551     1.0  0.65114  0.13835  0.99418  1.0000
  H   H2729     1.0  0.61970  0.14766  0.02090  1.0000
  H   H2730     1.0  0.83344  0.01581  0.30760  1.0000
  C   C1552     1.0  0.53013  0.14971  0.26755  1.0000
  C   C1553     1.0  0.90810  0.01317  0.30740  1.0000
  C   C1554     1.0  0.97193  0.21583  0.02674  1.0000
  C   C1555     1.0  0.53473  0.22891  0.00513  1.0000
  H   H2731     1.0  0.98174  0.22188  0.06129  1.0000
  H   H2732     1.0  0.95685  0.23999  0.25680  1.0000
  H   H2733     1.0  0.92239  0.01264  0.29945  1.0000
  H   H2734     1.0  0.94818  0.23803  0.00448  1.0000
  H   H2735     1.0  0.53250  0.06713  0.19600  1.0000
  H   H2736     1.0  0.97856  0.07284  0.30102  1.0000
  H   H2737     1.0  0.84504  0.02184  0.04818  1.0000
  H   H2738     1.0  0.51488  0.16025  0.29246  1.0000
  H   H2739     1.0  0.88031  0.04253  0.09495  1.0000
  C   C1556     1.0  0.53722  0.22695  0.03962  1.0000
  H   H2740     1.0  0.52671  0.24728  0.10569  1.0000
  H   H2741     1.0  0.94359  0.21575  0.27504  1.0000
  H   H2742     1.0  0.90000  0.02681  0.30337  1.0000
  H   H2743     1.0  0.93479  0.17419  0.30285  1.0000
  H   H2744     1.0  0.59083  0.15785  0.04059  1.0000
  C   C1557     1.0  0.81579  0.03043  0.04341  1.0000
  H   H2745     1.0  0.70699  0.03511  0.28155  1.0000
  C   C1558     1.0  0.52455  0.14760  0.28862  1.0000
  C   C1559     1.0  0.56678  0.09620  0.31096  1.0000
  C   C1560     1.0  0.95145  0.13031  0.32021  1.0000
  H   H2746     1.0  0.83340  0.20440  0.11346  1.0000
  H   H2747     1.0  0.82628  0.22935  0.09089  1.0000
  H   H2748     1.0  0.60905  0.18488  0.99771  1.0000
  N   N87       1.0  0.57456  0.06532  0.18930  1.0000
  C   C1561     1.0  0.58832  0.07029  0.20246  1.0000
  H   H2749     1.0  0.56300  0.09250  0.17757  1.0000
  C   C1562     1.0  0.58559  0.06297  0.17042  1.0000
  C   C1563     1.0  0.55869  0.08117  0.18824  1.0000
  H   H2750     1.0  0.98585  0.04868  0.30493  1.0000
  C   C1564     1.0  0.59949  0.08759  0.19592  1.0000
  C   C1565     1.0  0.57472  0.05699  0.15463  1.0000
  H   H2751     1.0  0.97311  0.21031  0.28272  1.0000
  H   H2752     1.0  0.96117  0.21115  0.03813  1.0000
  H   H2753     1.0  0.89772  0.06252  0.01588  1.0000
  C   C1566     1.0  0.60971  0.09373  0.21177  1.0000
  H   H2754     1.0  0.63054  0.17685  0.00730  1.0000
  H   H2755     1.0  0.59892  0.05804  0.20542  1.0000
  S   S364      1.0  0.58912  0.23645  0.06991  1.0000
  C   C1567     1.0  0.83483  0.02756  0.31577  1.0000
  H   H2756     1.0  0.57954  0.03517  0.19551  1.0000
  H   H2757     1.0  0.59820  0.05245  0.17200  1.0000
  H   H2758     1.0  0.59132  0.07637  0.16468  1.0000
  H   H2759     1.0  0.55607  0.08814  0.20172  1.0000
  H   H2760     1.0  0.74856  0.02324  0.09084  1.0000
  H   H2761     1.0  0.58068  0.07330  0.21626  1.0000
  H   H2762     1.0  0.90473  0.01985  0.01128  1.0000
  H   H2763     1.0  0.61061  0.08397  0.18442  1.0000
  H   H2764     1.0  0.58984  0.09979  0.19090  1.0000
  H   H2765     1.0  0.56420  0.06871  0.15026  1.0000
  C   C1568     1.0  0.74586  0.02718  0.12070  1.0000
  C   C1569     1.0  0.93553  0.22535  0.28510  1.0000
  C   C1570     1.0  0.50720  0.08869  0.30867  1.0000
  S   S365      1.0  0.63865  0.24281  0.99457  1.0000
  Fe  Fe182     1.0  0.60695  0.24139  0.99974  1.0000
  H   H2766     1.0  0.83927  0.08634  0.05458  1.0000
  H   H2767     1.0  0.93521  0.21692  0.29884  1.0000
  H   H2768     1.0  0.59925  0.14982  0.00809  1.0000
  H   H2769     1.0  0.62015  0.08212  0.21660  1.0000
  H   H2770     1.0  0.98558  0.05419  0.23791  1.0000
  H   H2771     1.0  0.59937  0.09779  0.22375  1.0000
  H   H2772     1.0  0.68958  0.00744  0.23775  1.0000
  H   H2773     1.0  0.54245  0.09690  0.29556  1.0000
  H   H2774     1.0  0.96020  0.23008  0.30932  1.0000
  C   C1571     1.0  0.85654  0.17237  0.06801  1.0000
  C   C1572     1.0  0.81977  0.19804  0.07697  1.0000
  C   C1573     1.0  0.84003  0.19383  0.10358  1.0000
  C   C1574     1.0  0.81622  0.20520  0.05652  1.0000
  C   C1575     1.0  0.83046  0.17548  0.11011  1.0000
  C   C1576     1.0  0.83395  0.16885  0.13035  1.0000
  H   H2775     1.0  0.52109  0.08151  0.31236  1.0000
  H   H2776     1.0  0.80788  0.20454  0.08641  1.0000
  H   H2777     1.0  0.81789  0.18277  0.07815  1.0000
  C   C1577     1.0  0.99044  0.03582  0.05312  1.0000
  H   H2778     1.0  0.84283  0.16769  0.06509  1.0000
  H   H2779     1.0  0.86140  0.16430  0.08080  1.0000
  H   H2780     1.0  0.81479  0.17806  0.10978  1.0000
  H   H2781     1.0  0.83575  0.16381  0.10116  1.0000
  C   C1578     1.0  0.94209  0.16357  0.31188  1.0000
  H   H2782     1.0  0.82691  0.15577  0.13453  1.0000
  H   H2783     1.0  0.84937  0.16560  0.13180  1.0000
  H   H2784     1.0  0.98363  0.05239  0.27213  1.0000
  H   H2785     1.0  0.52689  0.21625  0.04336  1.0000
  H   H2786     1.0  0.64991  0.14618  0.00694  1.0000
  N   N88       1.0  0.84768  0.09353  0.26031  1.0000
  C   C1579     1.0  0.85210  0.09402  0.28037  1.0000
  C   C1580     1.0  0.85787  0.07606  0.25192  1.0000
  C   C1581     1.0  0.85536  0.11055  0.24937  1.0000
  C   C1582     1.0  0.82655  0.09479  0.25855  1.0000
  C   C1583     1.0  0.81521  0.07992  0.27044  1.0000
  C   C1584     1.0  0.84337  0.11166  0.29057  1.0000
  C   C1585     1.0  0.85481  0.11150  0.22774  1.0000
  C   C1586     1.0  0.85943  0.05761  0.26492  1.0000
  C   C1587     1.0  0.86694  0.04061  0.25381  1.0000
  C   C1588     1.0  0.79379  0.08520  0.27032  1.0000
  H   H2787     1.0  0.98018  0.20930  0.99738  1.0000
  C   C1589     1.0  0.86228  0.12966  0.21851  1.0000
  H   H2788     1.0  0.86779  0.09298  0.28096  1.0000
  H   H2789     1.0  0.84752  0.08154  0.28919  1.0000
  H   H2790     1.0  0.85129  0.07316  0.23916  1.0000
  H   H2791     1.0  0.87293  0.07846  0.24702  1.0000
  H   H2792     1.0  0.87046  0.11134  0.25211  1.0000
  H   H2793     1.0  0.84735  0.12382  0.25402  1.0000
  H   H2794     1.0  0.81977  0.10907  0.26173  1.0000
  H   H2795     1.0  0.82383  0.09334  0.24381  1.0000
  H   H2796     1.0  0.81838  0.07843  0.28529  1.0000
  H   H2797     1.0  0.81833  0.06606  0.26431  1.0000
  H   H2798     1.0  0.84956  0.12455  0.28408  1.0000
  H   H2799     1.0  0.82770  0.11366  0.29024  1.0000
  H   H2800     1.0  0.84014  0.11133  0.22382  1.0000
  H   H2801     1.0  0.86376  0.09947  0.22158  1.0000
  H   H2802     1.0  0.86948  0.05880  0.27553  1.0000
  H   H2803     1.0  0.84574  0.05456  0.27263  1.0000
  H   H2804     1.0  0.85682  0.03824  0.24362  1.0000
  H   H2805     1.0  0.88100  0.04282  0.24613  1.0000
  H   H2806     1.0  0.86866  0.02778  0.26356  1.0000
  H   H2807     1.0  0.98293  0.03545  0.12118  1.0000
  H   H2808     1.0  0.78602  0.07403  0.27847  1.0000
  H   H2809     1.0  0.78952  0.09872  0.27690  1.0000
  Fe  Fe183     1.0  0.60793  0.23967  0.04243  1.0000
  H   H2810     1.0  0.99332  0.10106  0.30298  1.0000
  H   H2811     1.0  0.53625  0.23534  0.05213  1.0000
  H   H2812     1.0  0.86281  0.12953  0.20302  1.0000
  H   H2813     1.0  0.85284  0.14219  0.22298  1.0000
  H   H2814     1.0  0.87690  0.13084  0.22226  1.0000
  C   C1590     1.0  0.85456  0.08848  0.05232  1.0000
  C   C1591     1.0  0.52536  0.21017  0.00611  1.0000
  C   C1592     1.0  0.51427  0.12954  0.29448  1.0000
  H   H2815     1.0  0.90547  0.23697  0.28956  1.0000
  H   H2816     1.0  0.51692  0.14997  0.32436  1.0000
  H   H2817     1.0  0.55759  0.01524  0.21975  1.0000
  H   H2818     1.0  0.78533  0.20518  0.06087  1.0000
  C   C1593     1.0  0.54900  0.10682  0.30338  1.0000
  H   H2819     1.0  0.84745  0.11835  0.05578  1.0000
  C   C1594     1.0  0.87371  0.04538  0.02402  1.0000
  N   N89       1.0  0.94564  0.24282  0.28575  1.0000
  H   H2820     1.0  0.65415  0.01592  0.30603  1.0000
  C   C1595     1.0  0.50305  0.18938  0.24614  1.0000
  H   H2821     1.0  0.60672  0.17610  0.03769  1.0000
  C   C1596     1.0  0.83915  0.22278  0.08275  1.0000
  H   H2822     1.0  0.56082  0.20880  0.02548  1.0000
  H   H2823     1.0  0.55678  0.04251  0.18823  1.0000
  H   H2824     1.0  0.53683  0.16305  0.26386  1.0000
  C   C1597     1.0  0.85694  0.22967  0.09001  1.0000
  H   H2825     1.0  0.79508  0.20475  0.03676  1.0000
  C   C1598     1.0  0.90654  0.20983  0.27878  1.0000
  H   H2826     1.0  0.51097  0.08950  0.17863  1.0000
  H   H2827     1.0  0.87149  0.02053  0.09097  1.0000
  C   C1599     1.0  0.86735  0.03567  0.09316  1.0000
  H   H2828     1.0  0.97270  0.01940  0.31256  1.0000
  C   C1600     1.0  0.55765  0.21674  0.03820  1.0000
  H   H2829     1.0  0.75261  0.00189  0.10560  1.0000
  H   H2830     1.0  0.86200  0.03355  0.30124  1.0000
  H   H2831     1.0  0.87614  0.03041  0.05654  1.0000
  C   C1601     1.0  0.60900  0.15798  0.01444  1.0000
  C   C1602     1.0  0.59743  0.16825  0.03027  1.0000
  C   C1603     1.0  0.68740  0.09286  0.13137  1.0000
  H   H2832     1.0  0.59591  0.06520  0.13204  1.0000
  H   H2833     1.0  0.93446  0.14025  0.29760  1.0000
  H   H2834     1.0  0.64725  0.02217  0.00071  1.0000
  H   H2835     1.0  0.68990  0.10235  0.14216  1.0000
  H   H2836     1.0  0.82805  0.17980  0.14001  1.0000
  C   C1604     1.0  0.84751  0.10980  0.31113  1.0000
  C   C1605     1.0  0.85526  0.19371  0.07079  1.0000
  C   C1606     1.0  0.84206  0.05248  0.04001  1.0000
  H   H2837     1.0  0.95533  0.20759  0.00491  1.0000
  S   S366      1.0  0.95242  0.10574  0.31661  1.0000
  H   H2838     1.0  0.98098  0.01592  0.09340  1.0000
  S   S367      1.0  0.51642  0.11340  0.24428  1.0000
  H   H2839     1.0  0.67211  0.09041  0.13299  1.0000
  N   N90       1.0  0.83859  0.20162  0.08343  1.0000
  H   H2840     1.0  0.85520  0.19128  0.10662  1.0000
  C   C1607     1.0  0.99616  0.21887  0.29590  1.0000
  C   C1608     1.0  0.55926  0.04565  0.21754  1.0000
  H   H2841     1.0  0.74245  0.01825  0.13374  1.0000
  N   N91       1.0  0.53184  0.23950  0.02266  1.0000
  H   H2842     1.0  0.89174  0.21245  0.27474  1.0000
  H   H2843     1.0  0.78958  0.08651  0.25575  1.0000
  N   N92       1.0  0.86293  0.05463  0.04064  1.0000
  H   H2844     1.0  0.98307  0.07788  0.24524  1.0000
  H   H2845     1.0  0.53761  0.14763  0.29586  1.0000
  C   C1609     1.0  0.83706  0.03204  0.03863  1.0000
  C   C1610     1.0  0.97830  0.00929  0.28504  1.0000
  H   H2846     1.0  0.52319  0.10168  0.19401  1.0000
  C   C1611     1.0  0.52508  0.09361  0.18126  1.0000
  C   C1612     1.0  0.56057  0.20269  0.05512  1.0000
  H   H2847     1.0  0.59915  0.04071  0.14077  1.0000
  H   H2848     1.0  0.56823  0.22716  0.03789  1.0000
  H   H2849     1.0  0.50189  0.18482  0.26133  1.0000
  H   H2850     1.0  0.86310  0.10791  0.31229  1.0000
  H   H2851     1.0  0.55685  0.20969  0.06841  1.0000
  C   C1613     1.0  0.98965  0.24717  0.07097  1.0000
  H   H2852     1.0  0.98587  0.21047  0.03179  1.0000
  H   H2853     1.0  0.53567  0.02925  0.21447  1.0000
  C   C1614     1.0  0.94186  0.14428  0.30886  1.0000
  C   C1615     1.0  0.87082  0.04545  0.05834  1.0000
  H   H2854     1.0  0.97205  0.17629  0.00102  1.0000
  H   H2855     1.0  0.86886  0.19585  0.07636  1.0000
  H   H2856     1.0  0.83342  0.05812  0.05241  1.0000
  H   H2857     1.0  0.91508  0.20101  0.26833  1.0000
  H   H2858     1.0  0.79772  0.18367  0.05224  1.0000
  C   C1616     1.0  0.86591  0.07536  0.03813  1.0000
  H   H2859     1.0  0.58037  0.04868  0.12604  1.0000
  H   H2860     1.0  0.68028  0.00705  0.14472  1.0000
  C   C1617     1.0  0.89532  0.04778  0.02095  1.0000
  H   H2861     1.0  0.54968  0.05846  0.22084  1.0000
  S   S368      1.0  0.91997  0.23524  0.06750  1.0000
  H   H2862     1.0  0.57649  0.09063  0.29914  1.0000
  H   H2863     1.0  0.96391  0.17871  0.02534  1.0000
  H   H2864     1.0  0.90215  0.04420  0.03413  1.0000
  H   H2865     1.0  0.88111  0.07745  0.03905  1.0000
  H   H2866     1.0  0.53036  0.10281  0.16904  1.0000
  C   C1618     1.0  0.65329  0.11727  0.00015  1.0000
  H   H2867     1.0  0.84092  0.09757  0.31868  1.0000
  S   S369      1.0  0.64809  0.00511  0.23168  1.0000
  H   H2868     1.0  0.83649  0.06119  0.02778  1.0000
  C   C1619     1.0  0.96361  0.23727  0.29524  1.0000
  H   H2869     1.0  0.98268  0.02907  0.04326  1.0000
  H   H2870     1.0  0.98878  0.18010  0.01728  1.0000
  H   H2871     1.0  0.50175  0.17718  0.23789  1.0000
  C   C1620     1.0  0.97396  0.18374  0.01356  1.0000
  H   H2872     1.0  0.50227  0.23468  0.02919  1.0000
  H   H2873     1.0  0.99533  0.08422  0.27423  1.0000
  H   H2874     1.0  0.86734  0.05078  0.01082  1.0000
  H   H2875     1.0  0.99203  0.21103  0.30945  1.0000
  H   H2876     1.0  0.50969  0.21267  0.00898  1.0000
  H   H2877     1.0  0.93925  0.23614  0.02855  1.0000
  H   H2878     1.0  0.49919  0.13304  0.29134  1.0000
  C   C1621     1.0  0.51110  0.24670  0.02583  1.0000
  C   C1622     1.0  0.99624  0.05436  0.04320  1.0000
  C   C1623     1.0  0.50213  0.10676  0.31931  1.0000
  C   C1624     1.0  0.99698  0.05657  0.26439  1.0000
  C   C1625     1.0  0.50735  0.13845  0.32652  1.0000
  H   H2879     1.0  0.92073  0.03749  0.00396  1.0000
  C   C1626     1.0  0.67632  0.01541  0.32479  1.0000
  C   C1627     1.0  0.99679  0.01289  0.09204  1.0000
  C   C1628     1.0  0.98362  0.24454  0.00841  1.0000
  C   C1629     1.0  0.97167  0.24560  0.04220  1.0000
  C   C1630     1.0  0.69497  0.01946  0.32689  1.0000
  C   C1631     1.0  0.99019  0.06289  0.30660  1.0000
  H   H2880     1.0  0.97977  0.24106  0.99455  1.0000
  H   H2881     1.0  0.50768  0.09197  0.29334  1.0000
  C   C1632     1.0  0.55431  0.24288  0.08999  1.0000
  H   H2882     1.0  0.68527  0.99842  0.02682  1.0000
  C   C1633     1.0  0.99705  0.99835  0.31118  1.0000
  Fe  Fe184     1.0  0.96046  0.21053  0.35249  1.0000
  H   H2883     1.0  0.99499  0.17844  0.61745  1.0000
  C   C1634     1.0  0.98538  0.13468  0.65853  1.0000
  H   H2884     1.0  0.65120  0.13425  0.48453  1.0000
  Fe  Fe185     1.0  0.95003  0.22488  0.39220  1.0000
  S   S370      1.0  0.93528  0.21616  0.42081  1.0000
  H   H2885     1.0  0.96000  0.24770  0.42998  1.0000
  S   S371      1.0  0.97124  0.20200  0.38063  1.0000
  H   H2886     1.0  0.88122  0.02412  0.33330  1.0000
  Fe  Fe186     1.0  0.77541  0.02253  0.35678  1.0000
  S   S372      1.0  0.75104  0.04503  0.35265  1.0000
  H   H2887     1.0  0.96435  0.20435  0.46454  1.0000
  C   C1635     1.0  0.69704  0.00801  0.42653  1.0000
  S   S373      1.0  0.72963  0.02603  0.39062  1.0000
  Fe  Fe187     1.0  0.73194  0.02156  0.35978  1.0000
  S   S374      1.0  0.70392  0.01490  0.34932  1.0000
  Fe  Fe188     1.0  0.75068  0.04730  0.38395  1.0000
  S   S375      1.0  0.74758  0.07536  0.39753  1.0000
  C   C1636     1.0  0.73336  0.01002  0.51697  1.0000
  S   S376      1.0  0.77617  0.02628  0.38754  1.0000
  Fe  Fe189     1.0  0.73873  0.10529  0.50361  1.0000
  S   S377      1.0  0.71634  0.10301  0.52786  1.0000
  S   S378      1.0  0.74287  0.07967  0.48607  1.0000
  Fe  Fe190     1.0  0.75050  0.14265  0.51608  1.0000
  S   S379      1.0  0.72860  0.14269  0.54119  1.0000
  S   S380      1.0  0.76853  0.16690  0.50503  1.0000
  Fe  Fe191     1.0  0.73820  0.11137  0.54508  1.0000
  S   S381      1.0  0.74613  0.09499  0.57221  1.0000
  Fe  Fe192     1.0  0.70836  0.13411  0.52179  1.0000
  S   S382      1.0  0.67765  0.14425  0.51565  1.0000
  S   S383      1.0  0.76122  0.11203  0.52126  1.0000
  S   S384      1.0  0.72967  0.13579  0.49639  1.0000
  H   H2888     1.0  0.51705  0.12516  0.35323  1.0000
  S   S385      1.0  0.52879  0.22644  0.56273  1.0000
  Fe  Fe193     1.0  0.58048  0.20203  0.56073  1.0000
  S   S386      1.0  0.55489  0.18561  0.56114  1.0000
  S   S387      1.0  0.61160  0.19163  0.56451  1.0000
  Fe  Fe194     1.0  0.54361  0.20873  0.54031  1.0000
  S   S388      1.0  0.53115  0.20316  0.51290  1.0000
  Fe  Fe195     1.0  0.54142  0.20435  0.58356  1.0000
  S   S389      1.0  0.52086  0.19532  0.60859  1.0000
  S   S390      1.0  0.57037  0.22377  0.53854  1.0000
  S   S391      1.0  0.56752  0.21930  0.58463  1.0000
  S   S392      1.0  0.87986  0.22800  0.51912  1.0000
  H   H2889     1.0  0.96862  0.12533  0.34355  1.0000
  S   S393      1.0  0.83472  0.20341  0.53991  1.0000
  H   H2890     1.0  0.89826  0.06737  0.37913  1.0000
  H   H2891     1.0  0.59042  0.21626  0.61585  1.0000
  C   C1637     1.0  0.50061  0.15157  0.35859  1.0000
  H   H2892     1.0  0.52024  0.19377  0.47758  1.0000
  C   C1638     1.0  0.65603  0.14058  0.47048  1.0000
  H   H2893     1.0  0.87027  0.21543  0.45231  1.0000
  H   H2894     1.0  0.91084  0.07595  0.35756  1.0000
  C   C1639     1.0  0.89920  0.06739  0.36362  1.0000
  C   C1640     1.0  0.58592  0.20872  0.62939  1.0000
  H   H2895     1.0  0.68984  0.04567  0.62504  1.0000
  H   H2896     1.0  0.87745  0.18894  0.41808  1.0000
  H   H2897     1.0  0.91799  0.20837  0.45782  1.0000
  H   H2898     1.0  0.87425  0.04233  0.35856  1.0000
  C   C1641     1.0  0.96110  0.13595  0.33470  1.0000
  C   C1642     1.0  0.78635  0.17716  0.51556  1.0000
  C   C1643     1.0  0.79610  0.16764  0.53007  1.0000
  C   C1644     1.0  0.81079  0.17592  0.53729  1.0000
  C   C1645     1.0  0.81581  0.19392  0.53036  1.0000
  C   C1646     1.0  0.80584  0.20360  0.51609  1.0000
  C   C1647     1.0  0.79141  0.19516  0.50857  1.0000
  H   H2899     1.0  0.79245  0.15381  0.53561  1.0000
  H   H2900     1.0  0.81829  0.16832  0.54842  1.0000
  H   H2901     1.0  0.80912  0.21766  0.51106  1.0000
  H   H2902     1.0  0.78392  0.20273  0.49743  1.0000
  C   C1648     1.0  0.74515  0.07022  0.57564  1.0000
  C   C1649     1.0  0.75504  0.05983  0.58975  1.0000
  C   C1650     1.0  0.75427  0.04015  0.59298  1.0000
  C   C1651     1.0  0.74343  0.03077  0.58220  1.0000
  C   C1652     1.0  0.73339  0.04119  0.56828  1.0000
  C   C1653     1.0  0.73432  0.06077  0.56492  1.0000
  H   H2903     1.0  0.76338  0.06704  0.59817  1.0000
  H   H2904     1.0  0.76205  0.03229  0.60376  1.0000
  H   H2905     1.0  0.72473  0.03409  0.56010  1.0000
  H   H2906     1.0  0.72649  0.06860  0.55417  1.0000
  C   C1654     1.0  0.65953  0.15753  0.52945  1.0000
  C   C1655     1.0  0.66264  0.16392  0.54665  1.0000
  C   C1656     1.0  0.64782  0.17435  0.55710  1.0000
  C   C1657     1.0  0.62969  0.17851  0.55055  1.0000
  C   C1658     1.0  0.62658  0.17219  0.53331  1.0000
  C   C1659     1.0  0.64142  0.16178  0.52285  1.0000
  H   H2907     1.0  0.67646  0.16080  0.55193  1.0000
  H   H2908     1.0  0.65041  0.17914  0.57041  1.0000
  H   H2909     1.0  0.61275  0.17526  0.52806  1.0000
  H   H2910     1.0  0.63881  0.15694  0.50959  1.0000
  C   C1660     1.0  0.50974  0.18093  0.64434  1.0000
  C   C1661     1.0  0.52522  0.18354  0.63083  1.0000
  C   C1662     1.0  0.54356  0.17711  0.63551  1.0000
  H   H2911     1.0  0.99539  0.20557  0.57116  1.0000
  H   H2912     1.0  0.55557  0.17861  0.62518  1.0000
  H   H2913     1.0  0.51853  0.15712  0.57148  1.0000
  C   C1663     1.0  0.74581  0.07649  0.42221  1.0000
  C   C1664     1.0  0.74626  0.09397  0.42976  1.0000
  C   C1665     1.0  0.74505  0.09531  0.44931  1.0000
  C   C1666     1.0  0.74312  0.07918  0.46148  1.0000
  C   C1667     1.0  0.74231  0.06178  0.45394  1.0000
  C   C1668     1.0  0.74371  0.06041  0.43441  1.0000
  H   H2914     1.0  0.74785  0.10648  0.42040  1.0000
  H   H2915     1.0  0.74601  0.10871  0.45494  1.0000
  H   H2916     1.0  0.74087  0.04921  0.46324  1.0000
  H   H2917     1.0  0.74326  0.04689  0.42879  1.0000
  C   C1669     1.0  0.53920  0.14565  0.53930  1.0000
  H   H2918     1.0  0.66700  0.15015  0.47206  1.0000
  H   H2919     1.0  0.68922  0.01189  0.44005  1.0000
  C   C1670     1.0  0.82266  0.04741  0.34075  1.0000
  H   H2920     1.0  0.99759  0.18019  0.57479  1.0000
  S   S394      1.0  0.95831  0.24756  0.62333  1.0000
  H   H2921     1.0  0.81188  0.05117  0.35192  1.0000
  H   H2922     1.0  0.63361  0.16353  0.47322  1.0000
  C   C1671     1.0  0.62881  0.22483  0.59700  1.0000
  H   H2923     1.0  0.50769  0.13926  0.56173  1.0000
  C   C1672     1.0  0.69776  0.05310  0.63419  1.0000
  H   H2924     1.0  0.98388  0.12380  0.64874  1.0000
  C   C1673     1.0  0.70637  0.00586  0.62506  1.0000
  H   H2925     1.0  0.69762  0.06728  0.51107  1.0000
  C   C1674     1.0  0.98085  0.17840  0.61200  1.0000
  H   H2926     1.0  0.67997  0.24031  0.53433  1.0000
  H   H2927     1.0  0.90724  0.00899  0.38398  1.0000
  S   S395      1.0  0.80126  0.01817  0.33519  1.0000
  C   C1675     1.0  0.91366  0.22298  0.45373  1.0000
  H   H2928     1.0  0.88566  0.07418  0.35852  1.0000
  H   H2929     1.0  0.93701  0.21149  0.48723  1.0000
  H   H2930     1.0  0.64299  0.16013  0.44939  1.0000
  C   C1676     1.0  0.73971  0.02994  0.51467  1.0000
  H   H2931     1.0  0.94568  0.23319  0.49202  1.0000
  C   C1677     1.0  0.90334  0.04730  0.35742  1.0000
  H   H2932     1.0  0.67113  0.00091  0.38593  1.0000
  H   H2933     1.0  0.91058  0.18004  0.60774  1.0000
  C   C1678     1.0  0.96154  0.21908  0.46866  1.0000
  H   H2934     1.0  0.97606  0.18654  0.42729  1.0000
  H   H2935     1.0  0.55586  0.21356  0.62692  1.0000
  H   H2936     1.0  0.92732  0.17809  0.64581  1.0000
  C   C1679     1.0  0.69404  0.01129  0.64322  1.0000
  H   H2937     1.0  0.59636  0.21014  0.63959  1.0000
  H   H2938     1.0  0.99480  0.19377  0.45367  1.0000
  C   C1680     1.0  0.83741  0.00184  0.37345  1.0000
  H   H2939     1.0  0.97405  0.21942  0.43354  1.0000
  H   H2940     1.0  0.94711  0.17583  0.60594  1.0000
  N   N93       1.0  0.84743  0.20263  0.46926  1.0000
  C   C1681     1.0  0.83476  0.18689  0.46936  1.0000
  C   C1682     1.0  0.85779  0.20049  0.48686  1.0000
  C   C1683     1.0  0.83472  0.22099  0.46930  1.0000
  H   H2941     1.0  0.85357  0.20719  0.43918  1.0000
  C   C1684     1.0  0.87551  0.18606  0.44869  1.0000
  C   C1685     1.0  0.82200  0.18782  0.45295  1.0000
  C   C1686     1.0  0.90183  0.23401  0.46638  1.0000
  C   C1687     1.0  0.86361  0.18005  0.49496  1.0000
  C   C1688     1.0  0.87774  0.17973  0.50969  1.0000
  H   H2942     1.0  0.52533  0.17362  0.54081  1.0000
  C   C1689     1.0  0.81028  0.17090  0.45468  1.0000
  H   H2943     1.0  0.82334  0.00896  0.37007  1.0000
  H   H2944     1.0  0.82520  0.18644  0.48266  1.0000
  H   H2945     1.0  0.84313  0.17290  0.46939  1.0000
  H   H2946     1.0  0.87073  0.20824  0.48463  1.0000
  H   H2947     1.0  0.84876  0.20717  0.49861  1.0000
  H   H2948     1.0  0.82272  0.21994  0.48043  1.0000
  H   H2949     1.0  0.62010  0.23159  0.60878  1.0000
  H   H2950     1.0  0.89723  0.22792  0.48011  1.0000
  C   C1690     1.0  0.50726  0.19857  0.48578  1.0000
  H   H2951     1.0  0.86823  0.17305  0.44913  1.0000
  H   H2952     1.0  0.88590  0.18451  0.45941  1.0000
  H   H2953     1.0  0.81168  0.20061  0.45300  1.0000
  H   H2954     1.0  0.83074  0.18775  0.43927  1.0000
  H   H2955     1.0  0.71822  0.06036  0.61074  1.0000
  C   C1691     1.0  0.56594  0.21648  0.63687  1.0000
  H   H2956     1.0  0.85078  0.17371  0.50185  1.0000
  H   H2957     1.0  0.87019  0.17078  0.48404  1.0000
  H   H2958     1.0  0.87128  0.18770  0.52173  1.0000
  H   H2959     1.0  0.88164  0.16495  0.51503  1.0000
  H   H2960     1.0  0.89090  0.18593  0.50357  1.0000
  S   S396      1.0  0.97011  0.24750  0.38734  1.0000
  H   H2961     1.0  0.98936  0.21759  0.47805  1.0000
  C   C1692     1.0  0.88704  0.03512  0.36485  1.0000
  H   H2962     1.0  0.80078  0.17079  0.46797  1.0000
  H   H2963     1.0  0.80125  0.17182  0.44282  1.0000
  H   H2964     1.0  0.81972  0.15749  0.45434  1.0000
  H   H2965     1.0  0.96855  0.15926  0.34911  1.0000
  H   H2966     1.0  0.73245  0.00556  0.50272  1.0000
  S   S397      1.0  0.95182  0.19385  0.32915  1.0000
  H   H2967     1.0  0.84039  0.06896  0.34553  1.0000
  S   S398      1.0  0.74188  0.00611  0.58534  1.0000
  H   H2968     1.0  0.71687  0.07550  0.62991  1.0000
  H   H2969     1.0  0.95850  0.06638  0.33385  1.0000
  H   H2970     1.0  0.84949  0.02817  0.37114  1.0000
  H   H2971     1.0  0.97748  0.24058  0.47756  1.0000
  N   N94       1.0  0.88982  0.01455  0.36075  1.0000
  H   H2972     1.0  0.95820  0.23578  0.55665  1.0000
  C   C1693     1.0  0.91027  0.18334  0.62261  1.0000
  H   H2973     1.0  0.93961  0.20300  0.65298  1.0000
  H   H2974     1.0  0.53568  0.13097  0.53858  1.0000
  H   H2975     1.0  0.50232  0.23793  0.46679  1.0000
  H   H2976     1.0  0.75361  0.03014  0.50608  1.0000
  H   H2977     1.0  0.66168  0.24021  0.56577  1.0000
  Fe  Fe196     1.0  0.55607  0.24000  0.56248  1.0000
  C   C1694     1.0  0.86128  0.20365  0.45193  1.0000
  N   N95       1.0  0.96516  0.17889  0.62792  1.0000
  H   H2978     1.0  0.70967  0.01853  0.61582  1.0000
  H   H2979     1.0  0.50417  0.15344  0.59919  1.0000
  H   H2980     1.0  0.51334  0.15957  0.35690  1.0000
  H   H2981     1.0  0.88408  0.99939  0.33718  1.0000
  H   H2982     1.0  0.67375  0.11294  0.49192  1.0000
  N   N96       1.0  0.80065  0.07147  0.48808  1.0000
  C   C1695     1.0  0.79570  0.09104  0.47909  1.0000
  C   C1696     1.0  0.79367  0.05664  0.47725  1.0000
  C   C1697     1.0  0.79029  0.07059  0.50754  1.0000
  C   C1698     1.0  0.82165  0.06751  0.49010  1.0000
  C   C1699     1.0  0.83499  0.06876  0.47176  1.0000
  C   C1700     1.0  0.80354  0.10754  0.48772  1.0000
  C   C1701     1.0  0.79135  0.05104  0.51879  1.0000
  C   C1702     1.0  0.79424  0.06024  0.45558  1.0000
  C   C1703     1.0  0.79068  0.04253  0.44640  1.0000
  C   C1704     1.0  0.85576  0.06816  0.47590  1.0000
  C   C1705     1.0  0.79549  0.12662  0.47910  1.0000
  C   C1706     1.0  0.77900  0.05205  0.53745  1.0000
  H   H2983     1.0  0.77994  0.09399  0.47928  1.0000
  H   H2984     1.0  0.80095  0.09227  0.46405  1.0000
  H   H2985     1.0  0.80156  0.04262  0.48046  1.0000
  H   H2986     1.0  0.77844  0.05484  0.48185  1.0000
  H   H2987     1.0  0.77494  0.07537  0.50676  1.0000
  H   H2988     1.0  0.79565  0.08036  0.51656  1.0000
  H   H2989     1.0  0.82608  0.07703  0.50003  1.0000
  H   H2990     1.0  0.82489  0.05302  0.49663  1.0000
  H   H2991     1.0  0.83160  0.08195  0.46300  1.0000
  H   H2992     1.0  0.83385  0.05646  0.46361  1.0000
  H   H2993     1.0  0.79992  0.10753  0.50303  1.0000
  H   H2994     1.0  0.81927  0.10669  0.48501  1.0000
  H   H2995     1.0  0.80613  0.04634  0.52204  1.0000
  H   H2996     1.0  0.78619  0.04011  0.51102  1.0000
  H   H2997     1.0  0.78294  0.07152  0.45192  1.0000
  H   H2998     1.0  0.80796  0.06481  0.44913  1.0000
  H   H2999     1.0  0.78949  0.04599  0.43117  1.0000
  H   H3000     1.0  0.80262  0.03135  0.44810  1.0000
  H   H3001     1.0  0.97123  0.04311  0.33684  1.0000
  H   H3002     1.0  0.85793  0.08053  0.48356  1.0000
  H   H3003     1.0  0.86005  0.05498  0.48441  1.0000
  H   H3004     1.0  0.86507  0.06856  0.46253  1.0000
  H   H3005     1.0  0.79948  0.12793  0.46374  1.0000
  H   H3006     1.0  0.77973  0.12840  0.48177  1.0000
  H   H3007     1.0  0.80122  0.13815  0.48559  1.0000
  H   H3008     1.0  0.76400  0.05689  0.53501  1.0000
  H   H3009     1.0  0.77936  0.03791  0.54517  1.0000
  H   H3010     1.0  0.78419  0.06203  0.54640  1.0000
  H   H3011     1.0  0.95507  0.15890  0.65026  1.0000
  H   H3012     1.0  0.96665  0.19474  0.58876  1.0000
  Fe  Fe197     1.0  0.99069  0.22516  0.37453  1.0000
  H   H3013     1.0  0.96710  0.20833  0.63153  1.0000
  H   H3014     1.0  0.85164  0.23751  0.48503  1.0000
  C   C1707     1.0  0.63891  0.15273  0.46318  1.0000
  H   H3015     1.0  0.69825  0.07774  0.61432  1.0000
  H   H3016     1.0  0.98848  0.08113  0.33006  1.0000
  H   H3017     1.0  0.94304  0.19801  0.61594  1.0000
  H   H3018     1.0  0.73049  0.00617  0.65380  1.0000
  C   C1708     1.0  0.70849  0.06754  0.62159  1.0000
  H   H3019     1.0  0.54779  0.14986  0.52612  1.0000
  Fe  Fe198     1.0  0.98998  0.24360  0.62754  1.0000
  C   C1709     1.0  0.71165  0.03932  0.64537  1.0000
  H   H3020     1.0  0.71268  0.15953  0.46077  1.0000
  S   S399      1.0  0.93770  0.23184  0.36455  1.0000
  C   C1710     1.0  0.89042  0.01241  0.33992  1.0000
  H   H3021     1.0  0.89784  0.17730  0.63064  1.0000
  H   H3022     1.0  0.77722  0.03705  0.45266  1.0000
  H   H3023     1.0  0.85267  0.01582  0.34999  1.0000
  C   C1711     1.0  0.96802  0.19456  0.63987  1.0000
  H   H3024     1.0  0.89460  0.20104  0.42828  1.0000
  H   H3025     1.0  0.50587  0.24761  0.43481  1.0000
  H   H3026     1.0  0.98753  0.16430  0.65850  1.0000
  C   C1712     1.0  0.56500  0.23784  0.63924  1.0000
  C   C1713     1.0  0.85307  0.01414  0.36539  1.0000
  C   C1714     1.0  0.84436  0.23897  0.47199  1.0000
  C   C1715     1.0  0.98921  0.22002  0.43569  1.0000
  C   C1716     1.0  0.90744  0.00534  0.36918  1.0000
  H   H3027     1.0  0.51511  0.23733  0.60207  1.0000
  C   C1717     1.0  0.98917  0.06585  0.32791  1.0000
  C   C1718     1.0  0.94979  0.23730  0.56995  1.0000
  H   H3028     1.0  0.74100  0.03520  0.52852  1.0000
  H   H3029     1.0  0.92044  0.01096  0.36196  1.0000
  C   C1719     1.0  0.92859  0.17496  0.63092  1.0000
  C   C1720     1.0  0.95008  0.21862  0.48785  1.0000
  H   H3030     1.0  0.54794  0.14616  0.55119  1.0000
  S   S400      1.0  0.98189  0.23192  0.34518  1.0000
  H   H3031     1.0  0.53474  0.10493  0.33169  1.0000
  H   H3032     1.0  0.85494  0.24205  0.46000  1.0000
  H   H3033     1.0  0.83727  0.99960  0.38893  1.0000
  C   C1721     1.0  0.88694  0.18814  0.42955  1.0000
  H   H3034     1.0  0.56072  0.16437  0.65725  1.0000
  H   H3035     1.0  0.87297  0.00537  0.38611  1.0000
  H   H3036     1.0  0.89768  0.17578  0.42785  1.0000
  C   C1722     1.0  0.97154  0.05835  0.33869  1.0000
  H   H3037     1.0  0.71888  0.01083  0.52447  1.0000
  C   C1723     1.0  0.94629  0.18256  0.61948  1.0000
  H   H3038     1.0  0.92947  0.15937  0.63048  1.0000
  H   H3039     1.0  0.50312  0.18739  0.57553  1.0000
  S   S401      1.0  0.86077  0.24226  0.55925  1.0000
  H   H3040     1.0  0.62607  0.20975  0.59760  1.0000
  C   C1724     1.0  0.96668  0.15987  0.63882  1.0000
  Fe  Fe199     1.0  0.85049  0.23015  0.53444  1.0000
  N   N97       1.0  0.68154  0.11295  0.46190  1.0000
  C   C1725     1.0  0.66372  0.12507  0.45696  1.0000
  C   C1726     1.0  0.68724  0.09820  0.44783  1.0000
  C   C1727     1.0  0.67694  0.10278  0.48084  1.0000
  C   C1728     1.0  0.69777  0.12461  0.46341  1.0000
  C   C1729     1.0  0.70392  0.13710  0.44567  1.0000
  C   C1730     1.0  0.69286  0.08823  0.48802  1.0000
  C   C1731     1.0  0.68263  0.10346  0.42727  1.0000
  C   C1732     1.0  0.69195  0.08857  0.41427  1.0000
  C   C1733     1.0  0.71860  0.15008  0.44962  1.0000
  C   C1734     1.0  0.68565  0.07686  0.50577  1.0000
  H   H3041     1.0  0.65206  0.11593  0.45620  1.0000
  H   H3042     1.0  0.66574  0.13239  0.44281  1.0000
  H   H3043     1.0  0.70276  0.09356  0.44763  1.0000
  H   H3044     1.0  0.68001  0.08517  0.45210  1.0000
  H   H3045     1.0  0.66388  0.09539  0.48073  1.0000
  H   H3046     1.0  0.69458  0.13362  0.47547  1.0000
  H   H3047     1.0  0.71073  0.11531  0.46678  1.0000
  H   H3048     1.0  0.69174  0.14624  0.44037  1.0000
  H   H3049     1.0  0.71070  0.12806  0.43455  1.0000
  H   H3050     1.0  0.70469  0.09578  0.49160  1.0000
  H   H3051     1.0  0.69860  0.07808  0.47751  1.0000
  H   H3052     1.0  0.66701  0.10427  0.42643  1.0000
  H   H3053     1.0  0.68750  0.11722  0.42173  1.0000
  H   H3054     1.0  0.70768  0.08798  0.41379  1.0000
  H   H3055     1.0  0.68744  0.07441  0.41909  1.0000
  H   H3056     1.0  0.68785  0.09226  0.39982  1.0000
  H   H3057     1.0  0.72257  0.15897  0.43670  1.0000
  H   H3058     1.0  0.73168  0.14170  0.45404  1.0000
  H   H3059     1.0  0.67436  0.06821  0.50275  1.0000
  H   H3060     1.0  0.67993  0.08642  0.51687  1.0000
  H   H3061     1.0  0.64280  0.00319  0.36868  1.0000
  H   H3062     1.0  0.72908  0.03971  0.50744  1.0000
  H   H3063     1.0  0.57607  0.23934  0.64873  1.0000
  H   H3064     1.0  0.62721  0.14392  0.46177  1.0000
  H   H3065     1.0  0.88433  0.03641  0.38026  1.0000
  H   H3066     1.0  0.95856  0.21075  0.49868  1.0000
  N   N98       1.0  0.70315  0.02266  0.65602  1.0000
  H   H3067     1.0  0.98147  0.16505  0.60486  1.0000
  H   H3068     1.0  0.72412  0.03449  0.63563  1.0000
  H   H3069     1.0  0.96480  0.14864  0.62947  1.0000
  S   S402      1.0  0.91948  0.23208  0.55065  1.0000
  C   C1735     1.0  0.93003  0.23626  0.57105  1.0000
  C   C1736     1.0  0.62365  0.23462  0.57822  1.0000
  H   H3070     1.0  0.91716  0.04147  0.36245  1.0000
  H   H3071     1.0  0.66761  0.01006  0.33684  1.0000
  H   H3072     1.0  0.53268  0.21149  0.65876  1.0000
  H   H3073     1.0  0.90456  0.04847  0.34195  1.0000
  H   H3074     1.0  0.74730  0.00105  0.54229  1.0000
  C   C1737     1.0  0.98054  0.22793  0.46925  1.0000
  H   H3075     1.0  0.68730  0.06096  0.64396  1.0000
  H   H3076     1.0  0.90839  0.19891  0.62336  1.0000
  H   H3077     1.0  0.68032  0.01872  0.63915  1.0000
  C   C1738     1.0  0.83886  0.05747  0.33708  1.0000
  H   H3078     1.0  0.82816  0.22399  0.45582  1.0000
  C   C1739     1.0  0.97944  0.19487  0.59643  1.0000
  N   N99       1.0  0.99143  0.23307  0.45065  1.0000
  H   H3079     1.0  0.90431  0.23647  0.58951  1.0000
  H   H3080     1.0  0.64413  0.22546  0.59857  1.0000
  H   H3081     1.0  0.52853  0.23070  0.63264  1.0000
  H   H3082     1.0  0.58605  0.19351  0.62711  1.0000
  C   C1740     1.0  0.92014  0.23074  0.43593  1.0000
  C   C1741     1.0  0.50833  0.20426  0.50394  1.0000
  Fe  Fe200     1.0  0.75494  0.00459  0.39260  1.0000
  C   C1742     1.0  0.52105  0.15914  0.54149  1.0000
  C   C1743     1.0  0.54642  0.16889  0.65369  1.0000
  H   H3083     1.0  0.63292  0.22773  0.56686  1.0000
  C   C1744     1.0  0.50439  0.13365  0.34800  1.0000
  H   H3084     1.0  0.56283  0.20863  0.65059  1.0000
  C   C1745     1.0  0.82062  0.03227  0.33022  1.0000
  C   C1746     1.0  0.87295  0.00530  0.37060  1.0000
  C   C1747     1.0  0.98551  0.15420  0.64810  1.0000
  H   H3085     1.0  0.99571  0.22560  0.42183  1.0000
  H   H3086     1.0  0.50600  0.23283  0.40555  1.0000
  H   H3087     1.0  0.97867  0.20871  0.60241  1.0000
  H   H3088     1.0  0.98266  0.19282  0.64445  1.0000
  H   H3089     1.0  0.71752  0.04800  0.65513  1.0000
  C   C1748     1.0  0.95376  0.19727  0.65737  1.0000
  H   H3090     1.0  0.99657  0.19104  0.41098  1.0000
  C   C1749     1.0  0.91937  0.23794  0.58837  1.0000
  H   H3091     1.0  0.69435  0.01986  0.41583  1.0000
  H   H3092     1.0  0.50047  0.19198  0.55154  1.0000
  C   C1750     1.0  0.99181  0.18645  0.42569  1.0000
  H   H3093     1.0  0.95243  0.22686  0.45847  1.0000
  C   C1751     1.0  0.96107  0.15522  0.33791  1.0000
  H   H3094     1.0  0.71249  0.00588  0.42843  1.0000
  H   H3095     1.0  0.68257  0.00136  0.60951  1.0000
  S   S403      1.0  0.75624  0.99880  0.36223  1.0000
  H   H3096     1.0  0.97167  0.06022  0.35385  1.0000
  H   H3097     1.0  0.61226  0.24568  0.54547  1.0000
  H   H3098     1.0  0.91990  0.24259  0.61759  1.0000
  H   H3099     1.0  0.60872  0.23221  0.57652  1.0000
  H   H3100     1.0  0.50199  0.10172  0.33436  1.0000
  H   H3101     1.0  0.52446  0.24160  0.49004  1.0000
  H   H3102     1.0  0.69368  0.24640  0.55231  1.0000
  H   H3103     1.0  0.97389  0.24169  0.58471  1.0000
  H   H3104     1.0  0.64394  0.24765  0.53848  1.0000
  C   C1752     1.0  0.95873  0.24057  0.58585  1.0000
  Fe  Fe201     1.0  0.88942  0.24220  0.54284  1.0000
  H   H3105     1.0  0.51304  0.15799  0.52924  1.0000
  C   C1753     1.0  0.94799  0.24259  0.60309  1.0000
  C   C1754     1.0  0.92830  0.24119  0.60428  1.0000
  H   H3106     1.0  0.91879  0.02269  0.33140  1.0000
  C   C1755     1.0  0.50928  0.15469  0.56047  1.0000
  S   S404      1.0  0.99680  0.24429  0.65740  1.0000
  C   C1756     1.0  0.91021  0.01145  0.32843  1.0000
  H   H3107     1.0  0.56998  0.24494  0.62555  1.0000
  C   C1757     1.0  0.53057  0.24568  0.63416  1.0000
  N   N100      1.0  0.54607  0.24729  0.64675  1.0000
  H   H3108     1.0  0.59983  0.24831  0.51489  1.0000
  H   H3109     1.0  0.99802  0.15364  0.63753  1.0000
  C   C1758     1.0  0.99671  0.19351  0.58190  1.0000
  Fe  Fe202     1.0  0.51683  0.14449  0.71518  1.0000
  S   S405      1.0  0.53439  0.13135  0.73832  1.0000
  S   S406      1.0  0.53568  0.15712  0.69031  1.0000
  H   H3110     1.0  0.59078  0.12193  0.76621  1.0000
  C   C1759     1.0  0.53097  0.16646  0.66728  1.0000
  H   H3111     1.0  0.61682  0.03021  0.70422  1.0000
  H   H3112     1.0  0.62326  0.12222  0.66923  1.0000
  Fe  Fe203     1.0  0.51865  0.10576  0.73769  1.0000
  S   S407      1.0  0.53041  0.07535  0.73303  1.0000
  H   H3113     1.0  0.54112  0.20619  0.69151  1.0000
  H   H3114     1.0  0.63656  0.04110  0.90318  1.0000
  H   H3115     1.0  0.65476  0.22125  0.95956  1.0000
  H   H3116     1.0  0.63087  0.19978  0.95704  1.0000
  H   H3117     1.0  0.66754  0.20424  0.97474  1.0000
  H   H3118     1.0  0.55189  0.09879  0.66595  1.0000
  S   S408      1.0  0.59725  0.02469  0.77093  1.0000
  H   H3119     1.0  0.60940  0.06319  0.69138  1.0000
  C   C1760     1.0  0.66465  0.02283  0.69910  1.0000
  H   H3120     1.0  0.53155  0.11137  0.67795  1.0000
  C   C1761     1.0  0.92602  0.01178  0.72837  1.0000
  C   C1762     1.0  0.63961  0.01289  0.93289  1.0000
  H   H3121     1.0  0.69363  0.03997  0.67920  1.0000
  C   C1763     1.0  0.70204  0.00169  0.91539  1.0000
  H   H3122     1.0  0.66700  0.01152  0.97346  1.0000
  H   H3123     1.0  0.50043  0.18174  0.85529  1.0000
  H   H3124     1.0  0.65089  0.16900  0.96069  1.0000
  H   H3125     1.0  0.97358  0.13454  0.66991  1.0000
  H   H3126     1.0  0.54592  0.10563  0.70788  1.0000
  C   C1764     1.0  0.52769  0.22249  0.66853  1.0000
  H   H3127     1.0  0.67202  0.00476  0.67674  1.0000
  H   H3128     1.0  0.96938  0.01309  0.68599  1.0000
  C   C1765     1.0  0.51753  0.17565  0.79517  1.0000
  C   C1766     1.0  0.60149  0.05821  0.70461  1.0000
  C   C1767     1.0  0.55538  0.10444  0.69471  1.0000
  C   C1768     1.0  0.52083  0.21099  0.80975  1.0000
  C   C1769     1.0  0.52430  0.19411  0.82073  1.0000
  C   C1770     1.0  0.52250  0.17662  0.81354  1.0000
  H   H3129     1.0  0.52872  0.19450  0.83463  1.0000
  H   H3130     1.0  0.52366  0.21024  0.97592  1.0000
  C   C1771     1.0  0.54845  0.06129  0.74436  1.0000
  C   C1772     1.0  0.55618  0.06707  0.75982  1.0000
  C   C1773     1.0  0.57100  0.05558  0.76795  1.0000
  C   C1774     1.0  0.57809  0.03823  0.76080  1.0000
  C   C1775     1.0  0.57024  0.03243  0.74541  1.0000
  C   C1776     1.0  0.55551  0.04394  0.73722  1.0000
  H   H3131     1.0  0.55083  0.08039  0.76544  1.0000
  H   H3132     1.0  0.57706  0.06019  0.77982  1.0000
  H   H3133     1.0  0.57585  0.01929  0.73958  1.0000
  H   H3134     1.0  0.54979  0.03955  0.72508  1.0000
  H   H3135     1.0  0.51324  0.22296  0.78268  1.0000
  C   C1777     1.0  0.50718  0.02210  0.74184  1.0000
  C   C1778     1.0  0.50536  0.18596  0.88340  1.0000
  H   H3136     1.0  0.50053  0.17062  0.67268  1.0000
  H   H3137     1.0  0.60918  0.07642  0.72461  1.0000
  H   H3138     1.0  0.54661  0.24786  0.92590  1.0000
  H   H3139     1.0  0.56866  0.11313  0.76261  1.0000
  H   H3140     1.0  0.90427  0.02966  0.71519  1.0000
  H   H3141     1.0  0.52169  0.22336  0.69889  1.0000
  H   H3142     1.0  0.65298  0.03137  0.69218  1.0000
  C   C1779     1.0  0.64384  0.17519  0.97366  1.0000
  H   H3143     1.0  0.58630  0.06849  0.72974  1.0000
  H   H3144     1.0  0.56463  0.07636  0.70416  1.0000
  H   H3145     1.0  0.84863  0.00808  0.69370  1.0000
  H   H3146     1.0  0.60723  0.18364  0.96576  1.0000
  S   S409      1.0  0.52285  0.23358  0.81798  1.0000
  H   H3147     1.0  0.57200  0.11830  0.72036  1.0000
  H   H3148     1.0  0.59682  0.09412  0.74799  1.0000
  C   C1780     1.0  0.54322  0.09988  0.67963  1.0000
  H   H3149     1.0  0.66587  0.19952  0.95066  1.0000
  C   C1781     1.0  0.58119  0.16217  0.95550  1.0000
  H   H3150     1.0  0.57849  0.08460  0.68368  1.0000
  H   H3151     1.0  0.89843  0.01170  0.66610  1.0000
  H   H3152     1.0  0.65460  0.10878  0.98774  1.0000
  H   H3153     1.0  0.52097  0.18248  0.88069  1.0000
  C   C1782     1.0  0.51422  0.19253  0.78412  1.0000
  H   H3154     1.0  0.63778  0.13889  0.96845  1.0000
  H   H3155     1.0  0.56676  0.00014  0.79520  1.0000
  H   H3156     1.0  0.62351  0.13415  0.69050  1.0000
  H   H3157     1.0  0.60724  0.24668  0.91472  1.0000
  S   S410      1.0  0.51525  0.15307  0.78705  1.0000
  C   C1783     1.0  0.65143  0.01169  0.97296  1.0000
  C   C1784     1.0  0.51750  0.01213  0.75857  1.0000
  H   H3158     1.0  0.62168  0.02918  0.89012  1.0000
  C   C1785     1.0  0.62586  0.03068  0.90437  1.0000
  H   H3159     1.0  0.71779  0.02265  0.69197  1.0000
  C   C1786     1.0  0.57832  0.10425  0.72559  1.0000
  C   C1787     1.0  0.58073  0.24394  0.95696  1.0000
  C   C1788     1.0  0.68809  0.02970  0.67082  1.0000
  H   H3160     1.0  0.61006  0.14496  0.67180  1.0000
  H   H3161     1.0  0.64646  0.00655  0.90294  1.0000
  H   H3162     1.0  0.60950  0.09348  0.68686  1.0000
  H   H3163     1.0  0.65482  0.17358  0.98387  1.0000
  H   H3164     1.0  0.56616  0.09718  0.73306  1.0000
  N   N101      1.0  0.58717  0.09280  0.70965  1.0000
  C   C1789     1.0  0.52951  0.20088  0.98753  1.0000
  Fe  Fe204     1.0  0.51030  0.14251  0.75862  1.0000
  H   H3165     1.0  0.95268  0.00480  0.87656  1.0000
  H   H3166     1.0  0.52742  0.02240  0.76161  1.0000
  C   C1790     1.0  0.60280  0.10246  0.69807  1.0000
  H   H3167     1.0  0.85195  0.05059  0.68509  1.0000
  C   C1791     1.0  0.89366  0.99845  0.67354  1.0000
  C   C1792     1.0  0.61462  0.13130  0.67938  1.0000
  C   C1793     1.0  0.61394  0.04189  0.71370  1.0000
  C   C1794     1.0  0.90700  0.01444  0.71974  1.0000
  C   C1795     1.0  0.61228  0.16836  0.96724  1.0000
  C   C1796     1.0  0.52685  0.21298  0.68840  1.0000
  H   H3168     1.0  0.94949  0.21315  0.68217  1.0000
  H   H3169     1.0  0.49844  0.01272  0.73571  1.0000
  H   H3170     1.0  0.87289  0.02239  0.71081  1.0000
  H   H3171     1.0  0.96037  0.22557  0.66176  1.0000
  H   H3172     1.0  0.61078  0.24368  0.94897  1.0000
  H   H3173     1.0  0.58887  0.13176  0.69756  1.0000
  H   H3174     1.0  0.62772  0.04661  0.71654  1.0000
  C   C1797     1.0  0.59162  0.10764  0.74058  1.0000
  C   C1798     1.0  0.57194  0.08871  0.69767  1.0000
  H   H3175     1.0  0.51037  0.19210  0.76999  1.0000
  C   C1799     1.0  0.65813  0.20593  0.96315  1.0000
  C   C1800     1.0  0.51256  0.17232  0.66240  1.0000
  C   C1801     1.0  0.85682  0.01984  0.68752  1.0000
  H   H3176     1.0  0.56791  0.15519  0.95911  1.0000
  C   C1802     1.0  0.58109  0.11995  0.75548  1.0000
  C   C1803     1.0  0.68058  0.00026  0.91691  1.0000
  C   C1804     1.0  0.84456  0.03827  0.69132  1.0000
  H   H3177     1.0  0.92538  0.02070  0.74039  1.0000
  H   H3178     1.0  0.57609  0.13406  0.74909  1.0000
  H   H3179     1.0  0.53678  0.08646  0.68377  1.0000
  H   H3180     1.0  0.58545  0.16419  0.98419  1.0000
  H   H3181     1.0  0.65843  0.01136  0.70837  1.0000
  C   C1805     1.0  0.51583  0.21004  0.79139  1.0000
  C   C1806     1.0  0.54034  0.23923  0.66645  1.0000
  H   H3182     1.0  0.67596  0.01123  0.94370  1.0000
  H   H3183     1.0  0.67416  0.01342  0.90980  1.0000
  C   C1807     1.0  0.90761  0.00239  0.70263  1.0000
  H   H3184     1.0  0.67137  0.03182  0.70791  1.0000
  C   C1808     1.0  0.59473  0.24638  0.92461  1.0000
  H   H3185     1.0  0.58862  0.15641  0.94254  1.0000
  H   H3186     1.0  0.51784  0.02702  0.73060  1.0000
  S   S411      1.0  0.58228  0.24113  0.98157  1.0000
  H   H3187     1.0  0.93771  0.01595  0.71788  1.0000
  C   C1809     1.0  0.59708  0.12189  0.68796  1.0000
  H   H3188     1.0  0.69036  0.00544  0.69214  1.0000
  H   H3189     1.0  0.64694  0.02591  0.93308  1.0000
  H   H3190     1.0  0.64603  0.02539  0.96604  1.0000
  H   H3191     1.0  0.56025  0.11851  0.69076  1.0000
  H   H3192     1.0  0.61885  0.16455  0.95312  1.0000
  H   H3193     1.0  0.85888  0.01908  0.67209  1.0000
  H   H3194     1.0  0.63229  0.20370  0.98134  1.0000
  H   H3195     1.0  0.50280  0.19695  0.89366  1.0000
  H   H3196     1.0  0.83092  0.03852  0.68493  1.0000
  S   S412      1.0  0.52886  0.22961  0.87484  1.0000
  H   H3197     1.0  0.88372  0.03121  0.68914  1.0000
  H   H3198     1.0  0.58857  0.12001  0.67622  1.0000
  H   H3199     1.0  0.57727  0.17756  0.95277  1.0000
  H   H3200     1.0  0.53227  0.00879  0.79121  1.0000
  C   C1810     1.0  0.71886  0.01008  0.66468  1.0000
  H   H3201     1.0  0.71582  0.01723  0.97533  1.0000
  H   H3202     1.0  0.62585  0.01573  0.94157  1.0000
  H   H3203     1.0  0.70779  0.00210  0.90043  1.0000
  H   H3204     1.0  0.58848  0.05243  0.70103  1.0000
  H   H3205     1.0  0.70515  0.01476  0.92137  1.0000
  H   H3206     1.0  0.54717  0.00320  0.73278  1.0000
  C   C1811     1.0  0.63971  0.19677  0.96901  1.0000
  H   H3207     1.0  0.60673  0.03633  0.72712  1.0000
  H   H3208     1.0  0.84130  0.03949  0.70664  1.0000
  H   H3209     1.0  0.61455  0.10406  0.70677  1.0000
  N   N102      1.0  0.88908  0.00102  0.69423  1.0000
  H   H3210     1.0  0.60398  0.11492  0.73416  1.0000
  H   H3211     1.0  0.62221  0.13531  0.98877  1.0000
  H   H3212     1.0  0.55540  0.99994  0.76347  1.0000
  C   C1812     1.0  0.59606  0.07425  0.71810  1.0000
  C   C1813     1.0  0.63373  0.14391  0.98271  1.0000
  C   C1814     1.0  0.87620  0.01913  0.69596  1.0000
  C   C1815     1.0  0.70766  0.00689  0.98342  1.0000
  C   C1816     1.0  0.63421  0.01156  0.91261  1.0000
  H   H3213     1.0  0.61303  0.03602  0.91327  1.0000
  C   C1817     1.0  0.95988  0.21157  0.66966  1.0000
  S   S413      1.0  0.50235  0.11825  0.71361  1.0000
  C   C1818     1.0  0.59679  0.24464  0.94403  1.0000
  H   H3214     1.0  0.52523  0.16368  0.82220  1.0000
  Fe  Fe205     1.0  0.52451  0.24500  0.84675  1.0000
  C   C1819     1.0  0.67937  0.01419  0.68448  1.0000
  H   H3215     1.0  0.91812  0.00880  0.69203  1.0000
  H   H3216     1.0  0.59684  0.14294  0.97410  1.0000
  H   H3217     1.0  0.51694  0.20180  0.68969  1.0000
  H   H3218     1.0  0.66443  0.14178  0.98562  1.0000
  C   C1820     1.0  0.97780  0.00673  0.69701  1.0000
  H   H3219     1.0  0.89576  0.01091  0.73086  1.0000
  H   H3220     1.0  0.52907  0.23789  0.99317  1.0000
  N   N103      1.0  0.62694  0.16470  0.98130  1.0000
  C   C1821     1.0  0.59384  0.15844  0.97170  1.0000
  C   C1822     1.0  0.99259  0.01644  0.70240  1.0000
  H   H3221     1.0  0.50443  0.20547  0.85918  1.0000
  C   C1823     1.0  0.57664  0.24759  0.91790  1.0000
  H   H3222     1.0  0.50691  0.01133  0.77107  1.0000
  H   H3223     1.0  0.97411  0.20681  0.67449  1.0000
  H   H3224     1.0  0.55321  0.23488  0.67407  1.0000
  H   H3225     1.0  0.50241  0.04941  0.75401  1.0000
  H   H3226     1.0  0.52280  0.18743  0.98852  1.0000
  H   H3227     1.0  0.62329  0.00153  0.91260  1.0000
  S   S414      1.0  0.96859  0.00367  0.98158  1.0000
  H   H3228     1.0  0.54510  0.19772  0.98417  1.0000
  H   H3229     1.0  0.51290  0.22776  0.66560  1.0000
  H   H3230     1.0  0.75005  0.01002  0.69946  1.0000
  H   H3231     1.0  0.51039  0.24401  0.96434  1.0000
  C   C1824     1.0  0.56265  0.24510  0.95024  1.0000
  C   C1825     1.0  0.56059  0.24701  0.93085  1.0000
  H   H3232     1.0  0.55014  0.24449  0.96008  1.0000
  H   H3233     1.0  0.89908  0.03781  0.99277  1.0000
  C   C1826     1.0  0.74305  0.00372  0.68868  1.0000
  H   H3234     1.0  0.49894  0.17305  0.88953  1.0000
  H   H3235     1.0  0.99535  0.03005  0.69555  1.0000
  C   C1827     1.0  0.64267  0.01063  0.99328  1.0000
  H   H3236     1.0  0.62690  0.01216  0.99390  1.0000
  H   H3237     1.0  0.73582  0.03074  0.67459  1.0000
  H   H3238     1.0  0.95252  0.18392  0.66620  1.0000
  C   C1828     1.0  0.72834  0.01834  0.68030  1.0000
  H   H3239     1.0  0.67597  0.03778  0.66412  1.0000
  H   H3240     1.0  0.51021  0.24817  0.93930  1.0000
  H   H3241     1.0  0.75416  0.99881  0.67766  1.0000
  C   C1829     1.0  0.67241  0.99836  0.93767  1.0000
  Fe  Fe206     1.0  0.97337  0.34962  0.25111  1.0000
  H   H3242     1.0  0.57066  0.27138  0.05304  1.0000
  S   S415      1.0  0.98284  0.32183  0.26761  1.0000
  Fe  Fe207     1.0  0.94607  0.38459  0.24317  1.0000
  S   S416      1.0  0.96402  0.39355  0.21733  1.0000
  S   S417      1.0  0.91794  0.40267  0.24870  1.0000
  Fe  Fe208     1.0  0.96696  0.36325  0.21012  1.0000
  S   S418      1.0  0.96603  0.35948  0.17864  1.0000
  H   H3243     1.0  0.85056  0.47700  0.25824  1.0000
  S   S419      1.0  0.94720  0.35449  0.23510  1.0000
  S   S420      1.0  0.97066  0.37914  0.26112  1.0000
  Fe  Fe209     1.0  0.77169  0.37022  0.03007  1.0000
  S   S421      1.0  0.75175  0.36251  0.05519  1.0000
  S   S422      1.0  0.80418  0.36370  0.02664  1.0000
  Fe  Fe210     1.0  0.73932  0.39045  0.00840  1.0000
  S   S423      1.0  0.71727  0.38375  0.03219  1.0000
  H   H3244     1.0  0.71087  0.45510  0.02799  1.0000
  Fe  Fe211     1.0  0.73791  0.39230  0.05093  1.0000
  S   S424      1.0  0.72452  0.41068  0.07427  1.0000
  Fe  Fe212     1.0  0.73243  0.35464  0.03446  1.0000
  S   S425      1.0  0.71880  0.32663  0.04080  1.0000
  S   S426      1.0  0.75901  0.40073  0.02713  1.0000
  S   S427      1.0  0.75337  0.36060  0.00937  1.0000
  Fe  Fe213     1.0  0.91873  0.26598  0.07505  1.0000
  S   S428      1.0  0.90933  0.28759  0.05239  1.0000
  Fe  Fe214     1.0  0.92863  0.29717  0.09910  1.0000
  S   S429      1.0  0.92061  0.32038  0.07725  1.0000
  S   S430      1.0  0.93439  0.30032  0.12965  1.0000
  Fe  Fe215     1.0  0.89466  0.30516  0.07508  1.0000
  S   S431      1.0  0.86342  0.31784  0.07968  1.0000
  Fe  Fe216     1.0  0.93614  0.30086  0.05603  1.0000
  S   S432      1.0  0.95373  0.30978  0.02856  1.0000
  S   S433      1.0  0.90220  0.28245  0.09760  1.0000
  S   S434      1.0  0.94591  0.27876  0.07805  1.0000
  S   S435      1.0  0.75970  0.47536  0.11133  1.0000
  C   C1830     1.0  0.99151  0.29360  0.02878  1.0000
  H   H3245     1.0  0.99376  0.41306  0.18828  1.0000
  H   H3246     1.0  0.68535  0.34422  0.02252  1.0000
  N   N104      1.0  0.86261  0.45347  0.31241  1.0000
  Fe  Fe217     1.0  0.63559  0.26331  0.01732  1.0000
  S   S436      1.0  0.64606  0.29299  0.01457  1.0000
  S   S437      1.0  0.60357  0.26344  0.02068  1.0000
  C   C1831     1.0  0.53064  0.26923  0.08372  1.0000
  H   H3247     1.0  0.89504  0.32050  0.11536  1.0000
  H   H3248     1.0  0.98837  0.29035  0.04365  1.0000
  C   C1832     1.0  0.50562  0.48946  0.20944  1.0000
  H   H3249     1.0  0.98527  0.46901  0.24792  1.0000
  C   C1833     1.0  0.97436  0.43890  0.18755  1.0000
  C   C1834     1.0  0.97727  0.30296  0.01832  1.0000
  H   H3250     1.0  0.53692  0.41912  0.18106  1.0000
  H   H3251     1.0  0.98030  0.42861  0.26489  1.0000
  C   C1835     1.0  0.69835  0.31766  0.03349  1.0000
  C   C1836     1.0  0.69616  0.29826  0.03688  1.0000
  C   C1837     1.0  0.68032  0.29045  0.03125  1.0000
  C   C1838     1.0  0.66639  0.30196  0.02210  1.0000
  C   C1839     1.0  0.66845  0.32141  0.01889  1.0000
  C   C1840     1.0  0.68423  0.32922  0.02464  1.0000
  H   H3252     1.0  0.70690  0.28915  0.04380  1.0000
  H   H3253     1.0  0.67900  0.27550  0.03388  1.0000
  H   H3254     1.0  0.98195  0.27070  0.31774  1.0000
  H   H3255     1.0  0.55127  0.29340  0.01721  1.0000
  C   C1841     1.0  0.73397  0.42980  0.08311  1.0000
  C   C1842     1.0  0.75252  0.43421  0.07766  1.0000
  C   C1843     1.0  0.75999  0.44856  0.08611  1.0000
  C   C1844     1.0  0.74884  0.45898  0.09973  1.0000
  C   C1845     1.0  0.72997  0.45520  0.10452  1.0000
  C   C1846     1.0  0.72266  0.44053  0.09637  1.0000
  H   H3256     1.0  0.76119  0.42633  0.06719  1.0000
  H   H3257     1.0  0.77459  0.45146  0.08228  1.0000
  H   H3258     1.0  0.72127  0.46305  0.11503  1.0000
  H   H3259     1.0  0.70823  0.43728  0.10060  1.0000
  C   C1847     1.0  0.82033  0.35023  0.04128  1.0000
  C   C1848     1.0  0.84002  0.34939  0.03581  1.0000
  C   C1849     1.0  0.85339  0.33912  0.04704  1.0000
  C   C1850     1.0  0.84725  0.32957  0.06399  1.0000
  C   C1851     1.0  0.82755  0.33023  0.06932  1.0000
  C   C1852     1.0  0.81417  0.34048  0.05810  1.0000
  H   H3260     1.0  0.84498  0.35678  0.02279  1.0000
  H   H3261     1.0  0.86845  0.33882  0.04269  1.0000
  H   H3262     1.0  0.82259  0.32252  0.08213  1.0000
  H   H3263     1.0  0.79911  0.34072  0.06237  1.0000
  C   C1853     1.0  0.91603  0.42562  0.25668  1.0000
  C   C1854     1.0  0.92896  0.43093  0.26824  1.0000
  C   C1855     1.0  0.92603  0.44876  0.27565  1.0000
  C   C1856     1.0  0.91054  0.46165  0.27108  1.0000
  C   C1857     1.0  0.89792  0.45655  0.25909  1.0000
  C   C1858     1.0  0.90046  0.43847  0.25225  1.0000
  H   H3264     1.0  0.94082  0.42103  0.27200  1.0000
  H   H3265     1.0  0.93567  0.45249  0.28516  1.0000
  H   H3266     1.0  0.88596  0.46635  0.25541  1.0000
  H   H3267     1.0  0.89031  0.43440  0.24343  1.0000
  C   C1859     1.0  0.95756  0.34246  0.16542  1.0000
  C   C1860     1.0  0.96011  0.34460  0.14568  1.0000
  C   C1861     1.0  0.95341  0.33176  0.13453  1.0000
  C   C1862     1.0  0.94380  0.31666  0.14294  1.0000
  C   C1863     1.0  0.94134  0.31446  0.16268  1.0000
  C   C1864     1.0  0.94818  0.32721  0.17385  1.0000
  H   H3268     1.0  0.96747  0.35621  0.13895  1.0000
  H   H3269     1.0  0.95590  0.33338  0.11946  1.0000
  H   H3270     1.0  0.93405  0.30279  0.16940  1.0000
  H   H3271     1.0  0.94610  0.32529  0.18897  1.0000
  H   H3272     1.0  0.63332  0.35271  0.06401  1.0000
  H   H3273     1.0  0.58252  0.29793  0.02974  1.0000
  C   C1865     1.0  0.95818  0.31971  0.30031  1.0000
  C   C1866     1.0  0.97344  0.31105  0.28926  1.0000
  C   C1867     1.0  0.98187  0.29325  0.29566  1.0000
  C   C1868     1.0  0.97517  0.28423  0.31288  1.0000
  H   H3274     1.0  0.73413  0.47827  0.01787  1.0000
  H   H3275     1.0  0.95159  0.33340  0.29561  1.0000
  H   H3276     1.0  0.58031  0.32312  0.08627  1.0000
  H   H3277     1.0  0.96157  0.43098  0.18862  1.0000
  H   H3278     1.0  0.73447  0.44370  0.02285  1.0000
  C   C1869     1.0  0.96240  0.26788  0.26362  1.0000
  C   C1870     1.0  0.53956  0.27108  0.00442  1.0000
  C   C1871     1.0  0.58476  0.31392  0.09848  1.0000
  H   H3279     1.0  0.61928  0.25917  0.07068  1.0000
  C   C1872     1.0  0.98231  0.44372  0.26582  1.0000
  H   H3280     1.0  0.84986  0.37290  0.12603  1.0000
  C   C1873     1.0  0.63863  0.32207  0.06380  1.0000
  C   C1874     1.0  0.72160  0.48509  0.04610  1.0000
  C   C1875     1.0  0.51728  0.41974  0.15909  1.0000
  H   H3281     1.0  0.97451  0.26064  0.03949  1.0000
  H   H3282     1.0  0.50685  0.48756  0.25125  1.0000
  H   H3283     1.0  0.92036  0.37644  0.16434  1.0000
  H   H3284     1.0  0.68873  0.39236  0.00341  1.0000
  H   H3285     1.0  0.91701  0.35615  0.18036  1.0000
  H   H3286     1.0  0.86571  0.31311  0.14895  1.0000
  H   H3287     1.0  0.93220  0.48731  0.21417  1.0000
  H   H3288     1.0  0.56830  0.49210  0.31285  1.0000
  H   H3289     1.0  0.57962  0.32318  0.02632  1.0000
  H   H3290     1.0  0.89209  0.40013  0.30224  1.0000
  H   H3291     1.0  0.65016  0.34192  0.08008  1.0000
  H   H3292     1.0  0.86891  0.47120  0.28729  1.0000
  C   C1876     1.0  0.90764  0.35552  0.11110  1.0000
  C   C1877     1.0  0.63004  0.28355  0.08106  1.0000
  C   C1878     1.0  0.85633  0.46555  0.29546  1.0000
  H   H3293     1.0  0.65123  0.31162  0.06509  1.0000
  H   H3294     1.0  0.64133  0.28366  0.06912  1.0000
  H   H3295     1.0  0.83354  0.40242  0.11248  1.0000
  H   H3296     1.0  0.99487  0.44762  0.23765  1.0000
  C   C1879     1.0  0.53625  0.25260  0.09424  1.0000
  H   H3297     1.0  0.97202  0.45151  0.17773  1.0000
  H   H3298     1.0  0.52042  0.40412  0.15914  1.0000
  C   C1880     1.0  0.90406  0.35569  0.15431  1.0000
  H   H3299     1.0  0.53209  0.44205  0.16984  1.0000
  H   H3300     1.0  0.55775  0.32124  0.11453  1.0000
  H   H3301     1.0  0.86041  0.39338  0.13132  1.0000
  H   H3302     1.0  0.92997  0.36999  0.12121  1.0000
  H   H3303     1.0  0.52767  0.48046  0.31332  1.0000
  N   N105      1.0  0.77757  0.37865  0.10951  1.0000
  C   C1881     1.0  0.79502  0.36976  0.11851  1.0000
  C   C1882     1.0  0.76925  0.39569  0.11975  1.0000
  C   C1883     1.0  0.76299  0.36442  0.11218  1.0000
  C   C1884     1.0  0.78154  0.38393  0.08877  1.0000
  C   C1885     1.0  0.80157  0.39014  0.08194  1.0000
  C   C1886     1.0  0.80303  0.35007  0.11200  1.0000
  C   C1887     1.0  0.74297  0.37151  0.10608  1.0000
  C   C1888     1.0  0.78207  0.41192  0.11979  1.0000
  C   C1889     1.0  0.77297  0.42674  0.13297  1.0000
  C   C1890     1.0  0.80190  0.40009  0.06229  1.0000
  C   C1891     1.0  0.82372  0.34506  0.11622  1.0000
  C   C1892     1.0  0.73072  0.35522  0.10568  1.0000
  H   H3304     1.0  0.79185  0.36804  0.13403  1.0000
  H   H3305     1.0  0.80671  0.37903  0.11633  1.0000
  H   H3306     1.0  0.75626  0.40243  0.11348  1.0000
  H   H3307     1.0  0.76461  0.39124  0.13460  1.0000
  H   H3308     1.0  0.76105  0.35897  0.12717  1.0000
  H   H3309     1.0  0.76804  0.35193  0.10409  1.0000
  H   H3310     1.0  0.77993  0.37187  0.08037  1.0000
  H   H3311     1.0  0.77065  0.39525  0.08408  1.0000
  H   H3312     1.0  0.81217  0.37755  0.08139  1.0000
  H   H3313     1.0  0.80642  0.39988  0.09120  1.0000
  H   H3314     1.0  0.79450  0.33907  0.11943  1.0000
  H   H3315     1.0  0.80225  0.34946  0.09676  1.0000
  H   H3316     1.0  0.74411  0.37880  0.09191  1.0000
  H   H3317     1.0  0.73529  0.38144  0.11600  1.0000
  H   H3318     1.0  0.79623  0.40693  0.12451  1.0000
  H   H3319     1.0  0.78387  0.41908  0.10552  1.0000
  H   H3320     1.0  0.78154  0.43902  0.13159  1.0000
  H   H3321     1.0  0.75834  0.43188  0.12946  1.0000
  H   H3322     1.0  0.77231  0.42079  0.14776  1.0000
  H   H3323     1.0  0.81683  0.40165  0.05658  1.0000
  H   H3324     1.0  0.79534  0.39184  0.05271  1.0000
  H   H3325     1.0  0.79404  0.41434  0.06271  1.0000
  H   H3326     1.0  0.82542  0.34679  0.13115  1.0000
  H   H3327     1.0  0.82828  0.33013  0.11338  1.0000
  H   H3328     1.0  0.83313  0.35408  0.10699  1.0000
  H   H3329     1.0  0.73734  0.34507  0.09544  1.0000
  H   H3330     1.0  0.72875  0.34772  0.11979  1.0000
  H   H3331     1.0  0.71652  0.36085  0.10128  1.0000
  C   C1893     1.0  0.93352  0.25752  0.29671  1.0000
  H   H3332     1.0  0.63703  0.28610  0.09372  1.0000
  C   C1894     1.0  0.86856  0.48609  0.32397  1.0000
  H   H3333     1.0  0.97401  0.26332  0.23488  1.0000
  H   H3334     1.0  0.86749  0.42767  0.29783  1.0000
  H   H3335     1.0  0.98780  0.42197  0.16522  1.0000
  H   H3336     1.0  0.74860  0.46896  0.03650  1.0000
  N   N106      1.0  0.88922  0.36118  0.12261  1.0000
  H   H3337     1.0  0.54431  0.26230  0.03332  1.0000
  H   H3338     1.0  0.59230  0.32248  0.10704  1.0000
  Fe  Fe218     1.0  0.98891  0.38652  0.23457  1.0000
  H   H3339     1.0  0.71968  0.47645  0.05967  1.0000
  C   C1895     1.0  0.87349  0.30999  0.13520  1.0000
  H   H3340     1.0  0.86824  0.34394  0.11454  1.0000
  H   H3341     1.0  0.84272  0.25604  0.10008  1.0000
  C   C1896     1.0  0.93753  0.36558  0.09204  1.0000
  H   H3342     1.0  0.88637  0.38884  0.10735  1.0000
  C   C1897     1.0  0.88751  0.32461  0.12893  1.0000
  H   H3343     1.0  0.65709  0.34420  0.05529  1.0000
  S   S438      1.0  0.99339  0.35685  0.22548  1.0000
  H   H3344     1.0  0.94329  0.27019  0.03097  1.0000
  H   H3345     1.0  0.61092  0.32956  0.07755  1.0000
  C   C1898     1.0  0.54436  0.25549  0.02003  1.0000
  C   C1899     1.0  0.91179  0.26582  0.32569  1.0000
  C   C1900     1.0  0.72547  0.45298  0.03257  1.0000
  H   H3346     1.0  0.53907  0.28892  0.06081  1.0000
  C   C1901     1.0  0.97806  0.44416  0.20729  1.0000
  C   C1902     1.0  0.89265  0.36913  0.14062  1.0000
  C   C1903     1.0  0.56121  0.26614  0.06456  1.0000
  H   H3347     1.0  0.95668  0.48562  0.18652  1.0000
  H   H3348     1.0  0.56472  0.42854  0.16089  1.0000
  H   H3349     1.0  0.98530  0.47829  0.21650  1.0000
  C   C1904     1.0  0.54328  0.27602  0.06897  1.0000
  H   H3350     1.0  0.72505  0.33586  0.00138  1.0000
  H   H3351     1.0  0.50593  0.25403  0.01276  1.0000
  H   H3352     1.0  0.67200  0.37468  0.00507  1.0000
  C   C1905     1.0  0.59247  0.31246  0.05171  1.0000
  H   H3353     1.0  0.61997  0.29598  0.04786  1.0000
  C   C1906     1.0  0.96616  0.27472  0.24301  1.0000
  H   H3354     1.0  0.57039  0.29949  0.12302  1.0000
  C   C1907     1.0  0.50902  0.41043  0.22015  1.0000
  C   C1908     1.0  0.55978  0.48448  0.23866  1.0000
  H   H3355     1.0  0.92099  0.26332  0.28916  1.0000
  C   C1909     1.0  0.92665  0.25111  0.31717  1.0000
  C   C1910     1.0  0.97048  0.48645  0.19222  1.0000
  H   H3356     1.0  0.60135  0.28330  0.05845  1.0000
  H   H3357     1.0  0.88689  0.44176  0.29508  1.0000
  H   H3358     1.0  0.51551  0.39859  0.19334  1.0000
  H   H3359     1.0  0.73677  0.30254  0.00682  1.0000
  C   C1911     1.0  0.55477  0.48741  0.31996  1.0000
  S   S439      1.0  0.50796  0.28184  0.08814  1.0000
  H   H3360     1.0  0.62710  0.31817  0.09285  1.0000
  C   C1912     1.0  0.84578  0.45588  0.28158  1.0000
  H   H3361     1.0  0.51824  0.47627  0.28315  1.0000
  C   C1913     1.0  0.62203  0.31754  0.07875  1.0000
  H   H3362     1.0  0.84425  0.38773  0.09424  1.0000
  H   H3363     1.0  0.93097  0.36742  0.07853  1.0000
  C   C1914     1.0  0.56677  0.24945  0.07500  1.0000
  C   C1915     1.0  0.56674  0.30837  0.11021  1.0000
  H   H3364     1.0  0.94408  0.35083  0.09390  1.0000
  H   H3365     1.0  0.56069  0.48364  0.26830  1.0000
  H   H3366     1.0  0.63420  0.32224  0.04941  1.0000
  H   H3367     1.0  0.65768  0.33053  0.01203  1.0000
  C   C1916     1.0  0.87829  0.37638  0.11092  1.0000
  C   C1917     1.0  0.64511  0.34143  0.06601  1.0000
  H   H3368     1.0  0.91630  0.38480  0.10521  1.0000
  H   H3369     1.0  0.55596  0.40857  0.15197  1.0000
  C   C1918     1.0  0.94366  0.26443  0.01708  1.0000
  C   C1919     1.0  0.50579  0.26000  0.04199  1.0000
  H   H3370     1.0  0.74602  0.48630  0.06918  1.0000
  H   H3371     1.0  0.86687  0.34686  0.13897  1.0000
  H   H3372     1.0  0.87894  0.37339  0.14875  1.0000
  H   H3373     1.0  0.83140  0.46292  0.25623  1.0000
  H   H3374     1.0  0.85548  0.44492  0.27445  1.0000
  H   H3375     1.0  0.59672  0.32678  0.05274  1.0000
  C   C1920     1.0  0.87711  0.34474  0.12637  1.0000
  H   H3376     1.0  0.54095  0.47304  0.26068  1.0000
  C   C1921     1.0  0.84727  0.39639  0.10555  1.0000
  H   H3377     1.0  0.91103  0.41508  0.30279  1.0000
  H   H3378     1.0  0.91539  0.34260  0.11736  1.0000
  H   H3379     1.0  0.91743  0.27983  0.32476  1.0000
  H   H3380     1.0  0.57858  0.31090  0.05995  1.0000
  H   H3381     1.0  0.89984  0.38231  0.13757  1.0000
  H   H3382     1.0  0.92639  0.47155  0.23419  1.0000
  C   C1922     1.0  0.58930  0.31093  0.03122  1.0000
  H   H3383     1.0  0.60382  0.29027  0.10627  1.0000
  H   H3384     1.0  0.60296  0.31085  0.02216  1.0000
  H   H3385     1.0  0.51773  0.42481  0.14398  1.0000
  S   S440      1.0  0.90662  0.48326  0.28188  1.0000
  H   H3386     1.0  0.94894  0.37520  0.09134  1.0000
  N   N107      1.0  0.61410  0.29888  0.07768  1.0000
  H   H3387     1.0  0.83332  0.44933  0.28885  1.0000
  C   C1923     1.0  0.95991  0.29289  0.32391  1.0000
  C   C1924     1.0  0.59804  0.29618  0.09291  1.0000
  H   H3388     1.0  0.50080  0.49235  0.29399  1.0000
  C   C1925     1.0  0.98191  0.30752  0.99906  1.0000
  H   H3389     1.0  0.58902  0.28542  0.08913  1.0000
  C   C1926     1.0  0.91000  0.36631  0.17005  1.0000
  H   H3390     1.0  0.51272  0.46053  0.15193  1.0000
  H   H3391     1.0  0.89744  0.37399  0.17751  1.0000
  H   H3392     1.0  0.95523  0.28008  0.27101  1.0000
  H   H3393     1.0  0.89513  0.34465  0.16094  1.0000
  H   H3394     1.0  0.97033  0.24996  0.29804  1.0000
  C   C1927     1.0  0.90948  0.47070  0.21133  1.0000
  C   C1928     1.0  0.85856  0.38428  0.11996  1.0000
  C   C1929     1.0  0.51053  0.49047  0.28097  1.0000
  H   H3395     1.0  0.61304  0.26111  0.09526  1.0000
  H   H3396     1.0  0.96180  0.48822  0.22201  1.0000
  H   H3397     1.0  0.89806  0.32366  0.13937  1.0000
  H   H3398     1.0  0.87619  0.37102  0.09718  1.0000
  H   H3399     1.0  0.91712  0.34881  0.14712  1.0000
  H   H3400     1.0  0.88144  0.29578  0.13672  1.0000
  C   C1930     1.0  0.73382  0.47188  0.03249  1.0000
  H   H3401     1.0  0.72496  0.44563  0.04679  1.0000
  C   C1931     1.0  0.92257  0.37019  0.10827  1.0000
  H   H3402     1.0  0.90440  0.35175  0.09712  1.0000
  H   H3403     1.0  0.90521  0.45624  0.21498  1.0000
  H   H3404     1.0  0.85532  0.40823  0.09924  1.0000
  H   H3405     1.0  0.86319  0.30974  0.12458  1.0000
  C   C1932     1.0  0.83857  0.47016  0.26622  1.0000
  C   C1933     1.0  0.53439  0.42689  0.16740  1.0000
  C   C1934     1.0  0.60759  0.29690  0.05864  1.0000
  N   N108      1.0  0.96401  0.45871  0.21678  1.0000
  C   C1935     1.0  0.94417  0.45770  0.21122  1.0000
  H   H3406     1.0  0.82816  0.48126  0.27231  1.0000
  C   C1936     1.0  0.96350  0.45379  0.23768  1.0000
  C   C1937     1.0  0.97047  0.47818  0.21279  1.0000
  H   H3407     1.0  0.97071  0.45020  0.27546  1.0000
  C   C1938     1.0  0.92854  0.47282  0.21872  1.0000
  C   C1939     1.0  0.98263  0.45418  0.24640  1.0000
  C   C1940     1.0  0.95150  0.31068  0.31756  1.0000
  H   H3408     1.0  0.91956  0.28391  0.00977  1.0000
  H   H3409     1.0  0.50877  0.25254  0.05570  1.0000
  H   H3410     1.0  0.69764  0.49367  0.07588  1.0000
  H   H3411     1.0  0.91036  0.47358  0.19586  1.0000
  H   H3412     1.0  0.93941  0.44348  0.21578  1.0000
  H   H3413     1.0  0.94387  0.45910  0.19579  1.0000
  H   H3414     1.0  0.93887  0.24940  0.32585  1.0000
  H   H3415     1.0  0.98197  0.47874  0.18340  1.0000
  H   H3416     1.0  0.95850  0.43950  0.24106  1.0000
  H   H3417     1.0  0.95311  0.46361  0.24558  1.0000
  C   C1941     1.0  0.92379  0.26847  0.01033  1.0000
  H   H3418     1.0  0.51435  0.47790  0.20316  1.0000
  C   C1942     1.0  0.54955  0.48522  0.25837  1.0000
  H   H3419     1.0  0.86817  0.25559  0.09534  1.0000
  H   H3420     1.0  0.89828  0.48091  0.21770  1.0000
  C   C1943     1.0  0.55266  0.42378  0.15440  1.0000
  C   C1944     1.0  0.55279  0.28671  0.00366  1.0000
  H   H3421     1.0  0.56901  0.47099  0.23759  1.0000
  C   C1945     1.0  0.62441  0.26303  0.08371  1.0000
  C   C1946     1.0  0.89930  0.40839  0.31137  1.0000
  H   H3422     1.0  0.95337  0.27228  0.00702  1.0000
  H   H3423     1.0  0.55125  0.43204  0.14073  1.0000
  H   H3424     1.0  0.95258  0.27954  0.23685  1.0000
  H   H3425     1.0  0.97861  0.43048  0.21591  1.0000
  H   H3426     1.0  0.94152  0.26989  0.29784  1.0000
  H   H3427     1.0  0.74886  0.49276  0.20358  1.0000
  H   H3428     1.0  0.88936  0.46317  0.31808  1.0000
  H   H3429     1.0  0.56783  0.28093  0.00050  1.0000
  H   H3430     1.0  0.51377  0.27266  0.03991  1.0000
  C   C1947     1.0  0.94993  0.25107  0.26595  1.0000
  H   H3431     1.0  0.52478  0.27770  0.00689  1.0000
  H   H3432     1.0  0.52203  0.41801  0.21879  1.0000
  H   H3433     1.0  0.97642  0.26387  0.26911  1.0000
  H   H3434     1.0  0.64624  0.25157  0.10198  1.0000
  H   H3435     1.0  0.97492  0.28686  0.24185  1.0000
  C   C1948     1.0  0.67831  0.38610  0.99585  1.0000
  C   C1949     1.0  0.87545  0.43677  0.30541  1.0000
  H   H3436     1.0  0.84695  0.47818  0.29960  1.0000
  C   C1950     1.0  0.50349  0.40697  0.20081  1.0000
  H   H3437     1.0  0.51192  0.39673  0.22834  1.0000
  H   H3438     1.0  0.91323  0.26127  0.02010  1.0000
  H   H3439     1.0  0.55829  0.30042  0.10191  1.0000
  H   H3440     1.0  0.75995  0.45916  0.99961  1.0000
  H   H3441     1.0  0.99382  0.26131  0.06557  1.0000
  C   C1951     1.0  0.99109  0.42612  0.17900  1.0000
  C   C1952     1.0  0.54061  0.48587  0.30561  1.0000
  H   H3442     1.0  0.75944  0.49415  0.04864  1.0000
  H   H3443     1.0  0.99279  0.44842  0.20638  1.0000
  H   H3444     1.0  0.93974  0.31755  0.32603  1.0000
  H   H3445     1.0  0.85349  0.25803  0.07612  1.0000
  C   C1953     1.0  0.49964  0.46112  0.16181  1.0000
  H   H3446     1.0  0.93648  0.25630  0.25969  1.0000
  H   H3447     1.0  0.99379  0.28651  0.28728  1.0000
  H   H3448     1.0  0.50353  0.46240  0.17611  1.0000
  H   H3449     1.0  0.70721  0.48798  0.04092  1.0000
  H   H3450     1.0  0.50686  0.43646  0.19294  1.0000
  H   H3451     1.0  0.55946  0.25000  0.01661  1.0000
  H   H3452     1.0  0.89865  0.26702  0.31832  1.0000
  H   H3453     1.0  0.54698  0.47523  0.29590  1.0000
  H   H3454     1.0  0.98248  0.26023  0.00761  1.0000
  H   H3455     1.0  0.54933  0.48528  0.22805  1.0000
  H   H3456     1.0  0.97646  0.24878  0.08061  1.0000
  H   H3457     1.0  0.99611  0.44438  0.27168  1.0000
  C   C1954     1.0  0.85510  0.25115  0.09039  1.0000
  H   H3458     1.0  0.80263  0.49762  0.21590  1.0000
  H   H3459     1.0  0.56887  0.49629  0.23549  1.0000
  H   H3460     1.0  0.92366  0.26365  0.99605  1.0000
  H   H3461     1.0  0.90560  0.39852  0.32236  1.0000
  H   H3462     1.0  0.77929  0.49796  0.07918  1.0000
  C   C1955     1.0  0.87405  0.46445  0.32368  1.0000
  C   C1956     1.0  0.88521  0.42338  0.32052  1.0000
  H   H3463     1.0  0.99738  0.34311  0.30566  1.0000
  H   H3464     1.0  0.87310  0.49312  0.31015  1.0000
  H   H3465     1.0  0.83933  0.43585  0.31692  1.0000
  H   H3466     1.0  0.82461  0.47053  0.32067  1.0000
  C   C1957     1.0  0.64144  0.24904  0.08825  1.0000
  H   H3467     1.0  0.65346  0.25029  0.07721  1.0000
  C   C1958     1.0  0.84604  0.44599  0.32449  1.0000
  H   H3468     1.0  0.85309  0.48980  0.32688  1.0000
  H   H3469     1.0  0.55797  0.47340  0.32750  1.0000
  Fe  Fe219     1.0  0.63103  0.38067  0.60065  1.0000
  S   S441      1.0  0.61104  0.40712  0.60370  1.0000
  S   S442      1.0  0.66212  0.37888  0.58794  1.0000
  Fe  Fe220     1.0  0.59822  0.35497  0.60810  1.0000
  S   S443      1.0  0.57598  0.37972  0.61135  1.0000
  S   S444      1.0  0.59288  0.32374  0.61348  1.0000
  Fe  Fe221     1.0  0.59195  0.39395  0.58643  1.0000
  S   S445      1.0  0.58212  0.41192  0.56071  1.0000
  Fe  Fe222     1.0  0.59639  0.39134  0.62865  1.0000
  S   S446      1.0  0.61271  0.36829  0.58189  1.0000
  S   S447      1.0  0.61779  0.36565  0.62695  1.0000
  H   H3470     1.0  0.86218  0.48650  0.56507  1.0000
  H   H3471     1.0  0.58320  0.45890  0.63476  1.0000
  H   H3472     1.0  0.98802  0.29428  0.35014  1.0000
  C   C1959     1.0  0.91451  0.24965  0.43079  1.0000
  S   S448      1.0  0.95127  0.28235  0.34594  1.0000
  S   S449      1.0  0.55598  0.27210  0.56124  1.0000
  C   C1960     1.0  0.68133  0.25119  0.54417  1.0000
  S   S450      1.0  0.88032  0.26696  0.47641  1.0000
  Fe  Fe223     1.0  0.85368  0.27092  0.54427  1.0000
  H   H3473     1.0  0.79804  0.29698  0.55967  1.0000
  S   S451      1.0  0.84031  0.29414  0.56317  1.0000
  C   C1961     1.0  0.96860  0.30934  0.37974  1.0000
  H   H3474     1.0  0.88765  0.42816  0.57998  1.0000
  S   S452      1.0  0.88306  0.27144  0.52944  1.0000
  S   S453      1.0  0.84156  0.25877  0.52053  1.0000
  Fe  Fe224     1.0  0.76355  0.42005  0.58982  1.0000
  S   S454      1.0  0.76941  0.41940  0.55875  1.0000
  S   S455      1.0  0.73491  0.41678  0.60668  1.0000
  Fe  Fe225     1.0  0.80342  0.43089  0.59425  1.0000
  S   S456      1.0  0.81186  0.43144  0.56293  1.0000
  S   S457      1.0  0.82652  0.43343  0.61381  1.0000
  Fe  Fe226     1.0  0.78278  0.44661  0.55934  1.0000
  S   S458      1.0  0.77129  0.46968  0.53779  1.0000
  Fe  Fe227     1.0  0.79797  0.40429  0.56440  1.0000
  S   S459      1.0  0.80983  0.38067  0.54558  1.0000
  S   S460      1.0  0.77536  0.44806  0.59053  1.0000
  S   S461      1.0  0.79115  0.40289  0.59565  1.0000
  H   H3475     1.0  0.50367  0.41864  0.52877  1.0000
  H   H3476     1.0  0.76581  0.37730  0.51066  1.0000
  C   C1962     1.0  0.60114  0.45484  0.58284  1.0000
  S   S462      1.0  0.58099  0.40638  0.65375  1.0000
  H   H3477     1.0  0.96406  0.28818  0.43933  1.0000
  H   H3478     1.0  0.54127  0.40072  0.63767  1.0000
  C   C1963     1.0  0.53051  0.40676  0.62804  1.0000
  C   C1964     1.0  0.76245  0.37927  0.52584  1.0000
  C   C1965     1.0  0.91357  0.30136  0.55452  1.0000
  H   H3479     1.0  0.55541  0.43135  0.63411  1.0000
  C   C1966     1.0  0.83223  0.31825  0.55791  1.0000
  C   C1967     1.0  0.82604  0.32973  0.57278  1.0000
  C   C1968     1.0  0.81941  0.34892  0.56933  1.0000
  C   C1969     1.0  0.81864  0.35678  0.55091  1.0000
  C   C1970     1.0  0.82473  0.34526  0.53607  1.0000
  C   C1971     1.0  0.83155  0.32614  0.53951  1.0000
  H   H3480     1.0  0.82652  0.32377  0.58708  1.0000
  H   H3481     1.0  0.81495  0.35763  0.58090  1.0000
  H   H3482     1.0  0.82421  0.35119  0.52176  1.0000
  H   H3483     1.0  0.83621  0.31750  0.52793  1.0000
  C   C1972     1.0  0.81217  0.45624  0.64276  1.0000
  C   C1973     1.0  0.82670  0.44314  0.63586  1.0000
  C   C1974     1.0  0.98985  0.31038  0.37424  1.0000
  C   C1975     1.0  0.84272  0.43856  0.64604  1.0000
  H   H3484     1.0  0.79981  0.46001  0.63508  1.0000
  H   H3485     1.0  0.89788  0.27517  0.43921  1.0000
  H   H3486     1.0  0.94658  0.30684  0.56801  1.0000
  C   C1976     1.0  0.86968  0.26728  0.60101  1.0000
  H   H3487     1.0  0.60208  0.28669  0.53054  1.0000
  H   H3488     1.0  0.98751  0.26318  0.45398  1.0000
  C   C1977     1.0  0.55998  0.42484  0.55686  1.0000
  C   C1978     1.0  0.55950  0.44006  0.54315  1.0000
  C   C1979     1.0  0.54218  0.45042  0.53922  1.0000
  C   C1980     1.0  0.52510  0.44554  0.54889  1.0000
  C   C1981     1.0  0.52553  0.43019  0.56246  1.0000
  C   C1982     1.0  0.54287  0.41984  0.56638  1.0000
  H   H3489     1.0  0.57264  0.44390  0.53554  1.0000
  H   H3490     1.0  0.54205  0.46222  0.52874  1.0000
  H   H3491     1.0  0.51236  0.42620  0.56987  1.0000
  H   H3492     1.0  0.54297  0.40770  0.57641  1.0000
  C   C1983     1.0  0.58284  0.30961  0.59857  1.0000
  C   C1984     1.0  0.58299  0.29006  0.60323  1.0000
  C   C1985     1.0  0.57502  0.27835  0.59188  1.0000
  C   C1986     1.0  0.56656  0.28611  0.57587  1.0000
  C   C1987     1.0  0.56653  0.30562  0.57116  1.0000
  C   C1988     1.0  0.57470  0.31730  0.58236  1.0000
  H   H3493     1.0  0.58940  0.28396  0.61565  1.0000
  H   H3494     1.0  0.86867  0.45579  0.56553  1.0000
  H   H3495     1.0  0.56009  0.31176  0.55876  1.0000
  H   H3496     1.0  0.57451  0.33229  0.57858  1.0000
  C   C1989     1.0  0.68193  0.39014  0.59312  1.0000
  C   C1990     1.0  0.69883  0.38843  0.58105  1.0000
  C   C1991     1.0  0.71507  0.39679  0.58478  1.0000
  C   C1992     1.0  0.71469  0.40663  0.60085  1.0000
  C   C1993     1.0  0.69774  0.40853  0.61278  1.0000
  C   C1994     1.0  0.68140  0.40045  0.60889  1.0000
  H   H3497     1.0  0.69932  0.38063  0.56872  1.0000
  H   H3498     1.0  0.72788  0.39558  0.57535  1.0000
  H   H3499     1.0  0.69729  0.41616  0.62523  1.0000
  H   H3500     1.0  0.66853  0.40187  0.61830  1.0000
  H   H3501     1.0  0.88430  0.35486  0.57537  1.0000
  C   C1995     1.0  0.63406  0.31660  0.57183  1.0000
  C   C1996     1.0  0.57068  0.44777  0.60264  1.0000
  Fe  Fe228     1.0  0.87183  0.25715  0.50676  1.0000
  H   H3502     1.0  0.54846  0.39637  0.50899  1.0000
  C   C1997     1.0  0.86312  0.44931  0.57925  1.0000
  H   H3503     1.0  0.92073  0.29072  0.60131  1.0000
  H   H3504     1.0  0.51506  0.38426  0.49462  1.0000
  H   H3505     1.0  0.57330  0.46738  0.57773  1.0000
  H   H3506     1.0  0.99156  0.32473  0.36762  1.0000
  C   C1998     1.0  0.77249  0.30932  0.57544  1.0000
  H   H3507     1.0  0.59701  0.26339  0.55675  1.0000
  H   H3508     1.0  0.63479  0.32406  0.55763  1.0000
  H   H3509     1.0  0.86496  0.26404  0.61602  1.0000
  H   H3510     1.0  0.99453  0.25703  0.43067  1.0000
  H   H3511     1.0  0.96351  0.31928  0.39066  1.0000
  H   H3512     1.0  0.65250  0.43679  0.55167  1.0000
  H   H3513     1.0  0.85109  0.43764  0.33709  1.0000
  H   H3514     1.0  0.76336  0.33537  0.60015  1.0000
  H   H3515     1.0  0.96416  0.28109  0.58652  1.0000
  C   C1999     1.0  0.82966  0.25619  0.47312  1.0000
  H   H3516     1.0  0.51879  0.43703  0.48541  1.0000
  H   H3517     1.0  0.93022  0.27705  0.58266  1.0000
  H   H3518     1.0  0.90067  0.30389  0.54670  1.0000
  C   C2000     1.0  0.90236  0.26061  0.44335  1.0000
  C   C2001     1.0  0.53638  0.48355  0.59317  1.0000
  H   H3519     1.0  0.55935  0.42254  0.49524  1.0000
  C   C2002     1.0  0.54870  0.42820  0.48541  1.0000
  C   C2003     1.0  0.51655  0.25254  0.60295  1.0000
  H   H3520     1.0  0.55051  0.48844  0.58867  1.0000
  N   N109      1.0  0.55210  0.45473  0.61312  1.0000
  H   H3521     1.0  0.53205  0.44321  0.63466  1.0000
  C   C2004     1.0  0.89363  0.28424  0.57862  1.0000
  H   H3522     1.0  0.63754  0.25843  0.58521  1.0000
  N   N110      1.0  0.86129  0.48089  0.59529  1.0000
  H   H3523     1.0  0.53400  0.27054  0.61394  1.0000
  H   H3524     1.0  0.64433  0.32225  0.58008  1.0000
  H   H3525     1.0  0.97051  0.30390  0.59107  1.0000
  H   H3526     1.0  0.55364  0.45726  0.48907  1.0000
  C   C2005     1.0  0.83028  0.46082  0.33206  1.0000
  H   H3527     1.0  0.58290  0.47523  0.59784  1.0000
  H   H3528     1.0  0.75798  0.49048  0.50486  1.0000
  H   H3529     1.0  0.69991  0.34286  0.57009  1.0000
  H   H3530     1.0  0.53893  0.41234  0.52596  1.0000
  C   C2006     1.0  0.53755  0.46218  0.59957  1.0000
  C   C2007     1.0  0.76139  0.36244  0.55852  1.0000
  C   C2008     1.0  0.89951  0.31744  0.58215  1.0000
  C   C2009     1.0  0.87378  0.34501  0.58133  1.0000
  H   H3531     1.0  0.74752  0.38562  0.52816  1.0000
  H   H3532     1.0  0.55573  0.36838  0.53055  1.0000
  H   H3533     1.0  0.88150  0.28821  0.56993  1.0000
  H   H3534     1.0  0.87966  0.29349  0.60578  1.0000
  C   C2010     1.0  0.60816  0.27194  0.52855  1.0000
  C   C2011     1.0  0.87860  0.49461  0.33861  1.0000
  C   C2012     1.0  0.74080  0.43122  0.51657  1.0000
  C   C2013     1.0  0.96090  0.27748  0.43002  1.0000
  H   H3535     1.0  0.53979  0.45412  0.58678  1.0000
  H   H3536     1.0  0.55095  0.38491  0.54853  1.0000
  H   H3537     1.0  0.87224  0.34504  0.59685  1.0000
  C   C2014     1.0  0.92488  0.29171  0.58596  1.0000
  H   H3538     1.0  0.50308  0.25934  0.60970  1.0000
  H   H3539     1.0  0.96996  0.27886  0.41657  1.0000
  H   H3540     1.0  0.83689  0.26886  0.47504  1.0000
  H   H3541     1.0  0.89429  0.49186  0.33578  1.0000
  H   H3542     1.0  0.88025  0.32563  0.55983  1.0000
  H   H3543     1.0  0.89690  0.27326  0.60778  1.0000
  C   C2015     1.0  0.92615  0.28470  0.54561  1.0000
  H   H3544     1.0  0.51751  0.41255  0.63640  1.0000
  C   C2016     1.0  0.94176  0.30413  0.58304  1.0000
  H   H3545     1.0  0.90001  0.27046  0.57370  1.0000
  H   H3546     1.0  0.93972  0.30136  0.52220  1.0000
  H   H3547     1.0  0.86868  0.31602  0.58136  1.0000
  C   C2017     1.0  0.75666  0.36539  0.59967  1.0000
  H   H3548     1.0  0.77220  0.38908  0.52993  1.0000
  H   H3549     1.0  0.54066  0.47416  0.63378  1.0000
  H   H3550     1.0  0.52478  0.39107  0.45004  1.0000
  C   C2018     1.0  0.49946  0.25035  0.47526  1.0000
  C   C2019     1.0  0.62458  0.28702  0.55953  1.0000
  C   C2020     1.0  0.88558  0.28031  0.59934  1.0000
  C   C2021     1.0  0.89025  0.48962  0.57232  1.0000
  H   H3551     1.0  0.91860  0.27185  0.54732  1.0000
  C   C2022     1.0  0.59443  0.26309  0.51762  1.0000
  H   H3552     1.0  0.69052  0.46877  0.53410  1.0000
  H   H3553     1.0  0.89810  0.31693  0.59774  1.0000
  H   H3554     1.0  0.50711  0.37674  0.46226  1.0000
  C   C2023     1.0  0.69062  0.44080  0.55780  1.0000
  H   H3555     1.0  0.85984  0.35018  0.57608  1.0000
  C   C2024     1.0  0.83978  0.48421  0.59846  1.0000
  H   H3556     1.0  0.88935  0.49175  0.54194  1.0000
  H   H3557     1.0  0.89324  0.43114  0.32933  1.0000
  C   C2025     1.0  0.70865  0.33101  0.56330  1.0000
  H   H3558     1.0  0.56878  0.44638  0.47054  1.0000
  C   C2026     1.0  0.50705  0.40459  0.47270  1.0000
  H   H3559     1.0  0.60810  0.46575  0.57348  1.0000
  C   C2027     1.0  0.55410  0.44766  0.47759  1.0000
  C   C2028     1.0  0.50181  0.41482  0.51437  1.0000
  N   N111      1.0  0.62704  0.26592  0.55795  1.0000
  H   H3560     1.0  0.69208  0.48192  0.55350  1.0000
  H   H3561     1.0  0.74107  0.36509  0.60265  1.0000
  H   H3562     1.0  0.63885  0.28887  0.58520  1.0000
  H   H3563     1.0  0.72242  0.47366  0.52048  1.0000
  H   H3564     1.0  0.73861  0.42524  0.50327  1.0000
  H   H3565     1.0  0.62575  0.29468  0.54542  1.0000
  H   H3566     1.0  0.60998  0.29135  0.56603  1.0000
  H   H3567     1.0  0.83410  0.47264  0.60799  1.0000
  H   H3568     1.0  0.91936  0.25578  0.41711  1.0000
  H   H3569     1.0  0.76745  0.32521  0.54938  1.0000
  H   H3570     1.0  0.53404  0.27601  0.65053  1.0000
  H   H3571     1.0  0.64926  0.27137  0.53579  1.0000
  H   H3572     1.0  0.73679  0.32400  0.55047  1.0000
  H   H3573     1.0  0.84714  0.48198  0.63379  1.0000
  H   H3574     1.0  0.52796  0.43912  0.50698  1.0000
  H   H3575     1.0  0.75069  0.42110  0.52427  1.0000
  H   H3576     1.0  0.50970  0.41885  0.46636  1.0000
  H   H3577     1.0  0.71526  0.47940  0.60504  1.0000
  H   H3578     1.0  0.52235  0.37449  0.52253  1.0000
  H   H3579     1.0  0.52676  0.39522  0.62008  1.0000
  H   H3580     1.0  0.94575  0.28028  0.42705  1.0000
  C   C2029     1.0  0.99797  0.29478  0.36102  1.0000
  H   H3581     1.0  0.89628  0.47466  0.57242  1.0000
  H   H3582     1.0  0.74878  0.37284  0.56096  1.0000
  C   C2030     1.0  0.98537  0.25309  0.44360  1.0000
  C   C2031     1.0  0.76595  0.34760  0.58993  1.0000
  H   H3583     1.0  0.62193  0.27219  0.51980  1.0000
  H   H3584     1.0  0.73977  0.46464  0.57056  1.0000
  H   H3585     1.0  0.74744  0.44465  0.51311  1.0000
  H   H3586     1.0  0.88527  0.48636  0.60993  1.0000
  H   H3587     1.0  0.50973  0.48322  0.58037  1.0000
  H   H3588     1.0  0.74017  0.48179  0.59860  1.0000
  H   H3589     1.0  0.70183  0.32809  0.55074  1.0000
  H   H3590     1.0  0.91797  0.29237  0.51725  1.0000
  C   C2032     1.0  0.87988  0.32508  0.57532  1.0000
  H   H3591     1.0  0.53916  0.36361  0.55064  1.0000
  H   H3592     1.0  0.75805  0.30512  0.57994  1.0000
  C   C2033     1.0  0.54452  0.37493  0.54058  1.0000
  C   C2034     1.0  0.72890  0.33611  0.55745  1.0000
  H   H3593     1.0  0.87409  0.48863  0.35292  1.0000
  N   N112      1.0  0.90792  0.29867  0.57533  1.0000
  C   C2035     1.0  0.87011  0.49182  0.64615  1.0000
  H   H3594     1.0  0.55951  0.48246  0.61853  1.0000
  H   H3595     1.0  0.96045  0.31337  0.36736  1.0000
  C   C2036     1.0  0.67174  0.44799  0.56892  1.0000
  C   C2037     1.0  0.81351  0.45129  0.34234  1.0000
  H   H3596     1.0  0.78658  0.33201  0.56023  1.0000
  C   C2038     1.0  0.54825  0.26805  0.64746  1.0000
  H   H3597     1.0  0.84756  0.44886  0.57950  1.0000
  H   H3598     1.0  0.92113  0.31427  0.55111  1.0000
  H   H3599     1.0  0.90937  0.32843  0.57766  1.0000
  H   H3600     1.0  0.93757  0.31791  0.58910  1.0000
  H   H3601     1.0  0.75935  0.37852  0.59089  1.0000
  H   H3602     1.0  0.88334  0.45755  0.59701  1.0000
  H   H3603     1.0  0.73239  0.45879  0.60511  1.0000
  C   C2039     1.0  0.95881  0.29456  0.59278  1.0000
  H   H3604     1.0  0.86788  0.42129  0.56907  1.0000
  C   C2040     1.0  0.86776  0.46005  0.59579  1.0000
  C   C2041     1.0  0.93108  0.28915  0.52463  1.0000
  C   C2042     1.0  0.52016  0.39777  0.48838  1.0000
  C   C2043     1.0  0.82834  0.48671  0.58094  1.0000
  H   H3605     1.0  0.93979  0.28144  0.55203  1.0000
  C   C2044     1.0  0.87190  0.42883  0.58077  1.0000
  H   H3606     1.0  0.65344  0.29334  0.56339  1.0000
  H   H3607     1.0  0.85727  0.27414  0.59401  1.0000
  C   C2045     1.0  0.72173  0.43467  0.52827  1.0000
  H   H3608     1.0  0.54986  0.41911  0.47350  1.0000
  H   H3609     1.0  0.72866  0.43062  0.55703  1.0000
  H   H3610     1.0  0.69543  0.42683  0.56473  1.0000
  H   H3611     1.0  0.68695  0.43783  0.54372  1.0000
  H   H3612     1.0  0.71544  0.42098  0.53100  1.0000
  H   H3613     1.0  0.71211  0.44425  0.51972  1.0000
  H   H3614     1.0  0.60999  0.45057  0.59466  1.0000
  H   H3615     1.0  0.51894  0.25923  0.58850  1.0000
  H   H3616     1.0  0.77369  0.36954  0.56202  1.0000
  H   H3617     1.0  0.65995  0.42078  0.57100  1.0000
  H   H3618     1.0  0.64275  0.44063  0.57532  1.0000
  H   H3619     1.0  0.53467  0.39372  0.48169  1.0000
  C   C2046     1.0  0.72401  0.44278  0.54724  1.0000
  H   H3620     1.0  0.73624  0.45139  0.54523  1.0000
  C   C2047     1.0  0.65582  0.43579  0.56651  1.0000
  H   H3621     1.0  0.72771  0.34865  0.54731  1.0000
  C   C2048     1.0  0.72593  0.47060  0.57721  1.0000
  H   H3622     1.0  0.72224  0.48500  0.57081  1.0000
  C   C2049     1.0  0.73855  0.34081  0.57459  1.0000
  H   H3623     1.0  0.95484  0.29157  0.60801  1.0000
  H   H3624     1.0  0.56839  0.43699  0.59303  1.0000
  N   N113      1.0  0.70644  0.45368  0.55597  1.0000
  C   C2050     1.0  0.53494  0.40179  0.51685  1.0000
  C   C2051     1.0  0.77167  0.32824  0.56316  1.0000
  H   H3625     1.0  0.86123  0.45264  0.60866  1.0000
  H   H3626     1.0  0.66710  0.46280  0.56423  1.0000
  C   C2052     1.0  0.76462  0.36656  0.61847  1.0000
  H   H3627     1.0  0.75844  0.37982  0.62472  1.0000
  C   C2053     1.0  0.70047  0.47158  0.54436  1.0000
  H   H3628     1.0  0.93944  0.27671  0.51856  1.0000
  C   C2054     1.0  0.71660  0.48175  0.53265  1.0000
  C   C2055     1.0  0.51000  0.39128  0.45685  1.0000
  C   C2056     1.0  0.58121  0.46281  0.59015  1.0000
  H   H3629     1.0  0.87465  0.25381  0.59465  1.0000
  H   H3630     1.0  0.69690  0.46543  0.58255  1.0000
  H   H3631     1.0  0.78164  0.34840  0.58838  1.0000
  H   H3632     1.0  0.78034  0.36659  0.61661  1.0000
  H   H3633     1.0  0.52744  0.42738  0.60490  1.0000
  H   H3634     1.0  0.67354  0.44714  0.58416  1.0000
  H   H3635     1.0  0.72973  0.35334  0.58000  1.0000
  H   H3636     1.0  0.80404  0.47343  0.59499  1.0000
  N   N114      1.0  0.52102  0.41109  0.50345  1.0000
  H   H3637     1.0  0.78467  0.28021  0.57398  1.0000
  H   H3638     1.0  0.51672  0.25201  0.64072  1.0000
  C   C2057     1.0  0.55467  0.46952  0.62627  1.0000
  Fe  Fe229     1.0  0.95972  0.25263  0.35846  1.0000
  C   C2058     1.0  0.78344  0.29340  0.56467  1.0000
  H   H3639     1.0  0.88590  0.49086  0.64470  1.0000
  C   C2059     1.0  0.72852  0.47275  0.59776  1.0000
  C   C2060     1.0  0.53854  0.42214  0.61438  1.0000
  S   S463      1.0  0.51210  0.47739  0.49119  1.0000
  H   H3640     1.0  0.78005  0.31045  0.58804  1.0000
  C   C2061     1.0  0.54455  0.43822  0.62503  1.0000
  N   N115      1.0  0.75918  0.34464  0.57121  1.0000
  H   H3641     1.0  0.50005  0.39626  0.44609  1.0000
  H   H3642     1.0  0.54641  0.24878  0.60634  1.0000
  H   H3643     1.0  0.61957  0.31968  0.57891  1.0000
  H   H3644     1.0  0.86860  0.46608  0.63347  1.0000
  H   H3645     1.0  0.71281  0.44457  0.58423  1.0000
  H   H3646     1.0  0.70881  0.31820  0.57319  1.0000
  H   H3647     1.0  0.52288  0.45985  0.60582  1.0000
  H   H3648     1.0  0.75565  0.35083  0.53202  1.0000
  H   H3649     1.0  0.55099  0.41539  0.60604  1.0000
  C   C2062     1.0  0.96432  0.25760  0.43944  1.0000
  C   C2063     1.0  0.63893  0.29533  0.57064  1.0000
  H   H3650     1.0  0.60042  0.44245  0.57466  1.0000
  H   H3651     1.0  0.57668  0.49188  0.64405  1.0000
  H   H3652     1.0  0.86650  0.42147  0.59418  1.0000
  H   H3653     1.0  0.73665  0.32934  0.58585  1.0000
  H   H3654     1.0  0.76086  0.35445  0.62835  1.0000
  H   H3655     1.0  0.54427  0.45397  0.46716  1.0000
  H   H3656     1.0  0.77598  0.29074  0.55243  1.0000
  C   C2064     1.0  0.52814  0.38508  0.53020  1.0000
  C   C2065     1.0  0.76512  0.36024  0.53708  1.0000
  H   H3657     1.0  0.68416  0.26468  0.53604  1.0000
  H   H3658     1.0  0.57548  0.26333  0.59545  1.0000
  H   H3659     1.0  0.78003  0.35416  0.53371  1.0000
  H   H3660     1.0  0.58053  0.44018  0.61246  1.0000
  C   C2066     1.0  0.70985  0.45798  0.57551  1.0000
  C   C2067     1.0  0.80700  0.48673  0.58660  1.0000
  H   H3661     1.0  0.66553  0.26429  0.56746  1.0000
  C   C2068     1.0  0.64554  0.25994  0.54661  1.0000
  C   C2069     1.0  0.86837  0.49128  0.57722  1.0000
  C   C2070     1.0  0.62541  0.25614  0.57737  1.0000
  H   H3662     1.0  0.52981  0.49191  0.60494  1.0000
  H   H3663     1.0  0.61269  0.26250  0.58581  1.0000
  H   H3664     1.0  0.80257  0.46221  0.34793  1.0000
  C   C2071     1.0  0.61070  0.26100  0.54787  1.0000
  H   H3665     1.0  0.83542  0.49726  0.60594  1.0000
  C   C2072     1.0  0.52827  0.42949  0.49550  1.0000
  H   H3666     1.0  0.85408  0.42850  0.64083  1.0000
  H   H3667     1.0  0.83250  0.47542  0.57128  1.0000
  H   H3668     1.0  0.80700  0.48775  0.53576  1.0000
  H   H3669     1.0  0.82246  0.25878  0.46000  1.0000
  S   S464      1.0  0.50295  0.45818  0.54461  1.0000
  H   H3670     1.0  0.80690  0.44316  0.33263  1.0000
  C   C2073     1.0  0.56885  0.46356  0.64133  1.0000
  C   C2074     1.0  0.89598  0.25286  0.46121  1.0000
  C   C2075     1.0  0.86950  0.48901  0.61114  1.0000
  C   C2076     1.0  0.77140  0.49550  0.50698  1.0000
  H   H3671     1.0  0.96569  0.29486  0.38533  1.0000
  H   H3672     1.0  0.72869  0.48327  0.54078  1.0000
  C   C2077     1.0  0.86286  0.48106  0.63123  1.0000
  H   H3673     1.0  0.99707  0.28118  0.36962  1.0000
  H   H3674     1.0  0.89733  0.49686  0.58237  1.0000
  C   C2078     1.0  0.52406  0.48819  0.57682  1.0000
  H   H3675     1.0  0.51689  0.39026  0.54095  1.0000
  H   H3676     1.0  0.81823  0.44166  0.35429  1.0000
  H   H3677     1.0  0.99011  0.32208  0.33358  1.0000
  C   C2079     1.0  0.78164  0.48718  0.52188  1.0000
  H   H3678     1.0  0.57636  0.26706  0.65850  1.0000
  H   H3679     1.0  0.90813  0.26154  0.34071  1.0000
  H   H3680     1.0  0.53093  0.48144  0.56415  1.0000
  H   H3681     1.0  0.87452  0.41588  0.32976  1.0000
  H   H3682     1.0  0.55420  0.27409  0.63360  1.0000
  H   H3683     1.0  0.59292  0.27129  0.50395  1.0000
  H   H3684     1.0  0.87382  0.45832  0.33845  1.0000
  H   H3685     1.0  0.86538  0.48556  0.66031  1.0000
  C   C2080     1.0  0.66327  0.25389  0.55755  1.0000
  H   H3686     1.0  0.50110  0.27281  0.45278  1.0000
  H   H3687     1.0  0.95488  0.25714  0.45271  1.0000
  H   H3688     1.0  0.79917  0.48777  0.57387  1.0000
  H   H3689     1.0  0.83588  0.46904  0.34235  1.0000
  C   C2081     1.0  0.79897  0.49389  0.52438  1.0000
  H   H3690     1.0  0.51619  0.26622  0.49113  1.0000
  H   H3691     1.0  0.99713  0.30856  0.38733  1.0000
  H   H3692     1.0  0.58016  0.26331  0.52555  1.0000
  C   C2082     1.0  0.51834  0.25430  0.48190  1.0000
  H   H3693     1.0  0.56754  0.30027  0.64702  1.0000
  C   C2083     1.0  0.53328  0.25512  0.61397  1.0000
  C   C2084     1.0  0.57093  0.48000  0.65304  1.0000
  H   H3694     1.0  0.56387  0.45197  0.65124  1.0000
  H   H3695     1.0  0.81887  0.25414  0.48523  1.0000
  H   H3696     1.0  0.52869  0.25765  0.46975  1.0000
  C   C2085     1.0  0.81382  0.46480  0.65948  1.0000
  Fe  Fe230     1.0  0.49816  0.48025  0.52025  1.0000
  H   H3697     1.0  0.91112  0.49781  0.54973  1.0000
  H   H3698     1.0  0.54876  0.49759  0.33039  1.0000
  H   H3699     1.0  0.55698  0.48498  0.66033  1.0000
  H   H3700     1.0  0.96908  0.31246  0.66058  1.0000
  H   H3701     1.0  0.50712  0.26792  0.95370  1.0000
  S   S465      1.0  0.97923  0.39983  0.77466  1.0000
  Fe  Fe231     1.0  0.85838  0.46457  0.75324  1.0000
  S   S466      1.0  0.84465  0.45457  0.78187  1.0000
  Fe  Fe232     1.0  0.89252  0.45353  0.72575  1.0000
  S   S467      1.0  0.88470  0.47758  0.70462  1.0000
  S   S468      1.0  0.91718  0.43124  0.71883  1.0000
  Fe  Fe233     1.0  0.85459  0.47002  0.71071  1.0000
  S   S469      1.0  0.83150  0.47223  0.69015  1.0000
  S   S470      1.0  0.88888  0.47157  0.75034  1.0000
  S   S471      1.0  0.86268  0.44474  0.73013  1.0000
  H   H3702     1.0  0.62590  0.47906  0.83866  1.0000
  H   H3703     1.0  0.68003  0.33665  0.97717  1.0000
  Fe  Fe234     1.0  0.51910  0.28395  0.86336  1.0000
  S   S472      1.0  0.54465  0.26653  0.85100  1.0000
  S   S473      1.0  0.51461  0.31629  0.85876  1.0000
  H   H3704     1.0  0.66284  0.31694  0.95974  1.0000
  H   H3705     1.0  0.62884  0.42936  0.75913  1.0000
  H   H3706     1.0  0.68834  0.42607  0.78455  1.0000
  H   H3707     1.0  0.54766  0.30175  0.66490  1.0000
  S   S474      1.0  0.52160  0.27101  0.89292  1.0000
  Fe  Fe235     1.0  0.74212  0.45841  0.88259  1.0000
  S   S475      1.0  0.71113  0.46886  0.88617  1.0000
  S   S476      1.0  0.75863  0.43796  0.90258  1.0000
  Fe  Fe236     1.0  0.74962  0.48426  0.84655  1.0000
  C   C2086     1.0  0.54232  0.38844  0.72630  1.0000
  H   H3708     1.0  0.55933  0.42312  0.68497  1.0000
  Fe  Fe237     1.0  0.71109  0.46733  0.85476  1.0000
  S   S477      1.0  0.69333  0.45169  0.83689  1.0000
  S   S478      1.0  0.75261  0.48713  0.87689  1.0000
  S   S479      1.0  0.74170  0.45462  0.85185  1.0000
  Fe  Fe238     1.0  0.58313  0.42632  0.76306  1.0000
  S   S480      1.0  0.55345  0.41890  0.77138  1.0000
  S   S481      1.0  0.60178  0.41956  0.73600  1.0000
  Fe  Fe239     1.0  0.58718  0.43934  0.80241  1.0000
  S   S482      1.0  0.55739  0.43225  0.81335  1.0000
  S   S483      1.0  0.60567  0.45434  0.82009  1.0000
  Fe  Fe240     1.0  0.56427  0.40536  0.79819  1.0000
  S   S484      1.0  0.56267  0.37332  0.80413  1.0000
  Fe  Fe241     1.0  0.54859  0.44637  0.78571  1.0000
  S   S485      1.0  0.52171  0.46579  0.77861  1.0000
  S   S486      1.0  0.59441  0.41182  0.78928  1.0000
  S   S487      1.0  0.57791  0.45455  0.77548  1.0000
  H   H3709     1.0  0.61605  0.46298  0.77965  1.0000
  C   C2087     1.0  0.66873  0.45254  0.83294  1.0000
  C   C2088     1.0  0.66266  0.43800  0.82357  1.0000
  C   C2089     1.0  0.64344  0.43807  0.81989  1.0000
  C   C2090     1.0  0.63002  0.45292  0.82514  1.0000
  C   C2091     1.0  0.63611  0.46751  0.83443  1.0000
  C   C2092     1.0  0.65528  0.46731  0.83837  1.0000
  H   H3710     1.0  0.67282  0.42636  0.81950  1.0000
  H   H3711     1.0  0.63894  0.42643  0.81336  1.0000
  H   H3712     1.0  0.53408  0.37678  0.72378  1.0000
  N   N116      1.0  0.97351  0.34511  0.70590  1.0000
  C   C2093     1.0  0.52832  0.33192  0.84363  1.0000
  C   C2094     1.0  0.54241  0.32538  0.83002  1.0000
  C   C2095     1.0  0.55275  0.33826  0.81818  1.0000
  C   C2096     1.0  0.54908  0.35788  0.81963  1.0000
  C   C2097     1.0  0.53508  0.36444  0.83333  1.0000
  C   C2098     1.0  0.52478  0.35153  0.84522  1.0000
  H   H3713     1.0  0.54507  0.31041  0.82840  1.0000
  H   H3714     1.0  0.56352  0.33297  0.80767  1.0000
  H   H3715     1.0  0.53210  0.37945  0.83471  1.0000
  C   C2099     1.0  0.74782  0.37683  0.92508  1.0000
  H   H3716     1.0  0.74345  0.45956  0.95914  1.0000
  H   H3717     1.0  0.74280  0.34385  0.97203  1.0000
  H   H3718     1.0  0.59006  0.27086  0.83676  1.0000
  C   C2100     1.0  0.56208  0.29464  0.66120  1.0000
  C   C2101     1.0  0.72422  0.36814  0.95258  1.0000
  C   C2102     1.0  0.77747  0.49421  0.91651  1.0000
  C   C2103     1.0  0.73638  0.36124  0.93480  1.0000
  C   C2104     1.0  0.82329  0.46580  0.79250  1.0000
  C   C2105     1.0  0.81351  0.48155  0.78371  1.0000
  H   H3719     1.0  0.79699  0.49641  0.89137  1.0000
  C   C2106     1.0  0.78986  0.48363  0.81091  1.0000
  C   C2107     1.0  0.79958  0.46780  0.81963  1.0000
  C   C2108     1.0  0.81614  0.45888  0.81040  1.0000
  H   H3720     1.0  0.79448  0.46259  0.83360  1.0000
  H   H3721     1.0  0.82355  0.44666  0.81725  1.0000
  H   H3722     1.0  0.59731  0.28605  0.81660  1.0000
  C   C2109     1.0  0.63740  0.43042  0.77092  1.0000
  H   H3723     1.0  0.58704  0.35746  0.76872  1.0000
  C   C2110     1.0  0.73550  0.41625  0.96173  1.0000
  C   C2111     1.0  0.75497  0.41381  0.95605  1.0000
  C   C2112     1.0  0.76187  0.42066  0.93794  1.0000
  C   C2113     1.0  0.74940  0.42995  0.92536  1.0000
  C   C2114     1.0  0.72996  0.43242  0.93109  1.0000
  C   C2115     1.0  0.72307  0.42565  0.94919  1.0000
  H   H3724     1.0  0.76470  0.40660  0.96556  1.0000
  H   H3725     1.0  0.77694  0.41860  0.93360  1.0000
  H   H3726     1.0  0.72019  0.43935  0.92148  1.0000
  H   H3727     1.0  0.70798  0.42759  0.95344  1.0000
  C   C2116     1.0  0.96359  0.40956  0.75786  1.0000
  C   C2117     1.0  0.96266  0.40125  0.74108  1.0000
  C   C2118     1.0  0.94867  0.40834  0.72902  1.0000
  C   C2119     1.0  0.93552  0.42378  0.73361  1.0000
  C   C2120     1.0  0.93700  0.43258  0.74997  1.0000
  C   C2121     1.0  0.95093  0.42542  0.76204  1.0000
  H   H3728     1.0  0.97248  0.38918  0.73766  1.0000
  H   H3729     1.0  0.94790  0.40178  0.71616  1.0000
  H   H3730     1.0  0.92734  0.44480  0.75336  1.0000
  H   H3731     1.0  0.95189  0.43205  0.77482  1.0000
  C   C2122     1.0  0.58726  0.40993  0.67647  1.0000
  C   C2123     1.0  0.60540  0.40434  0.68217  1.0000
  C   C2124     1.0  0.60959  0.40755  0.70037  1.0000
  C   C2125     1.0  0.59566  0.41611  0.71319  1.0000
  C   C2126     1.0  0.57751  0.42167  0.70750  1.0000
  C   C2127     1.0  0.57340  0.41868  0.68923  1.0000
  H   H3732     1.0  0.61623  0.39764  0.67253  1.0000
  H   H3733     1.0  0.62371  0.40326  0.70457  1.0000
  H   H3734     1.0  0.56670  0.42841  0.71711  1.0000
  H   H3735     1.0  0.65731  0.41130  0.78648  1.0000
  H   H3736     1.0  0.60166  0.35392  0.73571  1.0000
  C   C2128     1.0  0.96850  0.30400  0.67427  1.0000
  C   C2129     1.0  0.97759  0.33120  0.69094  1.0000
  N   N117      1.0  0.64156  0.46554  0.76095  1.0000
  H   H3737     1.0  0.73246  0.32751  0.95984  1.0000
  H   H3738     1.0  0.97913  0.33847  0.67673  1.0000
  H   H3739     1.0  0.59835  0.37874  0.73050  1.0000
  H   H3740     1.0  0.60193  0.36922  0.84489  1.0000
  H   H3741     1.0  0.74664  0.34893  0.93821  1.0000
  H   H3742     1.0  0.65802  0.40740  0.76181  1.0000
  H   H3743     1.0  0.61275  0.37257  0.77952  1.0000
  C   C2130     1.0  0.53760  0.31033  0.91127  1.0000
  H   H3744     1.0  0.76984  0.46598  0.92636  1.0000
  H   H3745     1.0  0.99028  0.36877  0.67564  1.0000
  H   H3746     1.0  0.65962  0.47863  0.84556  1.0000
  H   H3747     1.0  0.57956  0.37890  0.70510  1.0000
  C   C2131     1.0  0.96966  0.33241  0.76033  1.0000
  H   H3748     1.0  0.62751  0.43314  0.78354  1.0000
  H   H3749     1.0  0.52330  0.48716  0.81185  1.0000
  C   C2132     1.0  0.58881  0.34940  0.70245  1.0000
  N   N118      1.0  0.57243  0.36492  0.73223  1.0000
  C   C2133     1.0  0.56571  0.34671  0.74135  1.0000
  C   C2134     1.0  0.54680  0.34105  0.73562  1.0000
  C   C2135     1.0  0.54325  0.32114  0.74379  1.0000
  H   H3750     1.0  0.57690  0.33479  0.73902  1.0000
  H   H3751     1.0  0.54672  0.34121  0.72021  1.0000
  H   H3752     1.0  0.53476  0.35068  0.74141  1.0000
  H   H3753     1.0  0.58488  0.33521  0.70790  1.0000
  Fe  Fe242     1.0  0.50371  0.24894  0.88578  1.0000
  H   H3754     1.0  0.54277  0.32025  0.75934  1.0000
  H   H3755     1.0  0.52937  0.31756  0.73991  1.0000
  H   H3756     1.0  0.52214  0.31318  0.90961  1.0000
  H   H3757     1.0  0.59296  0.36458  0.67491  1.0000
  H   H3758     1.0  0.55667  0.26830  0.67633  1.0000
  H   H3759     1.0  0.59917  0.33947  0.67514  1.0000
  S   S488      1.0  0.49855  0.26344  0.85753  1.0000
  C   C2136     1.0  0.58880  0.35066  0.68110  1.0000
  H   H3760     1.0  0.77709  0.45088  0.95985  1.0000
  C   C2137     1.0  0.68268  0.49674  0.76627  1.0000
  H   H3761     1.0  0.56351  0.34735  0.75683  1.0000
  H   H3762     1.0  0.75567  0.37195  0.91193  1.0000
  H   H3763     1.0  0.53185  0.25025  0.67473  1.0000
  C   C2138     1.0  0.64861  0.41121  0.77450  1.0000
  H   H3764     1.0  0.69348  0.39069  0.96899  1.0000
  H   H3765     1.0  0.55320  0.37912  0.75322  1.0000
  H   H3766     1.0  0.54781  0.39471  0.71241  1.0000
  H   H3767     1.0  0.57172  0.29808  0.67142  1.0000
  H   H3768     1.0  0.94278  0.34821  0.70649  1.0000
  C   C2139     1.0  0.57473  0.36514  0.71109  1.0000
  H   H3769     1.0  0.75835  0.38043  0.93430  1.0000
  C   C2140     1.0  0.95287  0.36956  0.68568  1.0000
  C   C2141     1.0  0.93239  0.37839  0.68455  1.0000
  C   C2142     1.0  0.56153  0.27325  0.66178  1.0000
  C   C2143     1.0  0.97153  0.34530  0.74233  1.0000
  H   H3770     1.0  0.98401  0.32263  0.72543  1.0000
  H   H3771     1.0  0.61743  0.45808  0.74772  1.0000
  H   H3772     1.0  0.73779  0.49466  0.92145  1.0000
  H   H3773     1.0  0.63856  0.40025  0.77794  1.0000
  H   H3774     1.0  0.74321  0.47813  0.97408  1.0000
  H   H3775     1.0  0.75485  0.43960  0.98708  1.0000
  N   N119      1.0  0.89185  0.41729  0.80096  1.0000
  C   C2144     1.0  0.90165  0.43458  0.79383  1.0000
  C   C2145     1.0  0.88269  0.40995  0.78523  1.0000
  C   C2146     1.0  0.87633  0.42322  0.81592  1.0000
  C   C2147     1.0  0.90525  0.40207  0.80985  1.0000
  C   C2148     1.0  0.92286  0.39432  0.79729  1.0000
  C   C2149     1.0  0.90979  0.44515  0.80876  1.0000
  C   C2150     1.0  0.86128  0.40903  0.82194  1.0000
  C   C2151     1.0  0.89332  0.41156  0.76525  1.0000
  C   C2152     1.0  0.88480  0.39993  0.75190  1.0000
  C   C2153     1.0  0.93657  0.38124  0.80871  1.0000
  C   C2154     1.0  0.92160  0.46073  0.79959  1.0000
  C   C2155     1.0  0.84949  0.41419  0.84011  1.0000
  H   H3776     1.0  0.89151  0.44496  0.78650  1.0000
  H   H3777     1.0  0.91347  0.43117  0.78308  1.0000
  H   H3778     1.0  0.87984  0.39498  0.78879  1.0000
  H   H3779     1.0  0.86853  0.41794  0.78352  1.0000
  H   H3780     1.0  0.86825  0.43674  0.81120  1.0000
  H   H3781     1.0  0.88266  0.42618  0.82881  1.0000
  H   H3782     1.0  0.91030  0.40691  0.82263  1.0000
  H   H3783     1.0  0.89767  0.38957  0.81502  1.0000
  H   H3784     1.0  0.93099  0.40574  0.79042  1.0000
  H   H3785     1.0  0.91839  0.38586  0.78654  1.0000
  H   H3786     1.0  0.89803  0.45194  0.81803  1.0000
  H   H3787     1.0  0.91914  0.43549  0.81751  1.0000
  H   H3788     1.0  0.86785  0.39438  0.82425  1.0000
  H   H3789     1.0  0.85131  0.40923  0.81094  1.0000
  H   H3790     1.0  0.89200  0.42652  0.75947  1.0000
  H   H3791     1.0  0.90865  0.40687  0.76503  1.0000
  H   H3792     1.0  0.86940  0.40444  0.75128  1.0000
  H   H3793     1.0  0.89208  0.40204  0.73757  1.0000
  H   H3794     1.0  0.88675  0.38468  0.75647  1.0000
  H   H3795     1.0  0.94224  0.38910  0.81928  1.0000
  H   H3796     1.0  0.92941  0.36917  0.81586  1.0000
  H   H3797     1.0  0.94881  0.37560  0.79920  1.0000
  H   H3798     1.0  0.93528  0.45452  0.79279  1.0000
  H   H3799     1.0  0.91389  0.46960  0.78883  1.0000
  H   H3800     1.0  0.92482  0.46986  0.81040  1.0000
  H   H3801     1.0  0.85857  0.41253  0.85197  1.0000
  H   H3802     1.0  0.84292  0.42898  0.83879  1.0000
  H   H3803     1.0  0.83796  0.40472  0.84335  1.0000
  N   N120      1.0  0.74966  0.44494  0.78971  1.0000
  C   C2156     1.0  0.73513  0.43834  0.77838  1.0000
  H   H3804     1.0  0.66679  0.39730  0.99263  1.0000
  C   C2157     1.0  0.75403  0.42944  0.80479  1.0000
  C   C2158     1.0  0.74204  0.46255  0.79929  1.0000
  H   H3805     1.0  0.70816  0.33810  0.94158  1.0000
  C   C2159     1.0  0.71548  0.43523  0.78915  1.0000
  C   C2160     1.0  0.77159  0.43127  0.81558  1.0000
  H   H3806     1.0  0.56712  0.39438  0.73824  1.0000
  H   H3807     1.0  0.64471  0.43954  0.73085  1.0000
  C   C2161     1.0  0.70035  0.34564  0.95338  1.0000
  C   C2162     1.0  0.70210  0.42842  0.77635  1.0000
  C   C2163     1.0  0.77390  0.41538  0.83102  1.0000
  H   H3808     1.0  0.73371  0.37483  0.96100  1.0000
  H   H3809     1.0  0.94854  0.32401  0.68838  1.0000
  C   C2164     1.0  0.67169  0.32750  0.95196  1.0000
  H   H3810     1.0  0.70823  0.41488  0.77066  1.0000
  H   H3811     1.0  0.75643  0.41544  0.79869  1.0000
  H   H3812     1.0  0.74169  0.42853  0.81559  1.0000
  H   H3813     1.0  0.73007  0.45961  0.81003  1.0000
  H   H3814     1.0  0.75294  0.46709  0.80746  1.0000
  H   H3815     1.0  0.62607  0.47951  0.73846  1.0000
  Fe  Fe243     1.0  0.87904  0.49511  0.72967  1.0000
  H   H3816     1.0  0.71686  0.42447  0.80110  1.0000
  H   H3817     1.0  0.70847  0.44857  0.79459  1.0000
  H   H3818     1.0  0.77014  0.44478  0.82224  1.0000
  H   H3819     1.0  0.78499  0.43057  0.80618  1.0000
  H   H3820     1.0  0.65771  0.44682  0.78003  1.0000
  H   H3821     1.0  0.71091  0.32089  0.99119  1.0000
  C   C2165     1.0  0.59236  0.36950  0.75974  1.0000
  H   H3822     1.0  0.77703  0.43426  0.77636  1.0000
  C   C2166     1.0  0.76550  0.44960  0.98852  1.0000
  H   H3823     1.0  0.74841  0.48618  0.77918  1.0000
  H   H3824     1.0  0.58095  0.47527  0.66380  1.0000
  H   H3825     1.0  0.71470  0.36882  0.98923  1.0000
  H   H3826     1.0  0.67680  0.37315  0.97037  1.0000
  H   H3827     1.0  0.57277  0.28763  0.82588  1.0000
  C   C2167     1.0  0.72913  0.33785  0.97076  1.0000
  H   H3828     1.0  0.76107  0.41557  0.84124  1.0000
  H   H3829     1.0  0.77635  0.40144  0.82493  1.0000
  H   H3830     1.0  0.78632  0.41728  0.83868  1.0000
  S   S489      1.0  0.71910  0.49708  0.84831  1.0000
  H   H3831     1.0  0.73698  0.47064  0.92896  1.0000
  H   H3832     1.0  0.96204  0.30740  0.70353  1.0000
  H   H3833     1.0  0.95224  0.36705  0.71541  1.0000
  C   C2168     1.0  0.75173  0.47121  0.96224  1.0000
  Fe  Fe244     1.0  0.54636  0.25277  0.88031  1.0000
  C   C2169     1.0  0.76796  0.44791  0.77753  1.0000
  H   H3834     1.0  0.81878  0.48695  0.76989  1.0000
  H   H3835     1.0  0.58366  0.38260  0.76379  1.0000
  H   H3836     1.0  0.95884  0.32646  0.72655  1.0000
  C   C2170     1.0  0.51283  0.49462  0.80329  1.0000
  H   H3837     1.0  0.80628  0.48098  0.91017  1.0000
  C   C2171     1.0  0.97197  0.33392  0.72471  1.0000
  H   H3838     1.0  0.60882  0.49369  0.76202  1.0000
  C   C2172     1.0  0.77004  0.46099  0.96995  1.0000
  H   H3839     1.0  0.53580  0.41652  0.73640  1.0000
  H   H3840     1.0  0.73216  0.44839  0.76622  1.0000
  C   C2173     1.0  0.84430  0.44702  0.66282  1.0000
  H   H3841     1.0  0.96944  0.34089  0.77264  1.0000
  C   C2174     1.0  0.62771  0.47231  0.77684  1.0000
  H   H3842     1.0  0.63355  0.29258  0.90217  1.0000
  C   C2175     1.0  0.71727  0.49024  0.94497  1.0000
  H   H3843     1.0  0.62203  0.35806  0.76074  1.0000
  H   H3844     1.0  0.77651  0.45725  0.78427  1.0000
  C   C2176     1.0  0.82992  0.46034  0.66958  1.0000
  H   H3845     1.0  0.77864  0.44129  0.99293  1.0000
  H   H3846     1.0  0.56095  0.36434  0.70534  1.0000
  H   H3847     1.0  0.66231  0.34060  0.94885  1.0000
  H   H3848     1.0  0.95628  0.32547  0.76143  1.0000
  H   H3849     1.0  0.78979  0.47351  0.75460  1.0000
  H   H3850     1.0  0.62873  0.47250  0.70483  1.0000
  C   C2177     1.0  0.65084  0.44630  0.76688  1.0000
  C   C2178     1.0  0.52856  0.40362  0.73549  1.0000
  C   C2179     1.0  0.55912  0.38174  0.73837  1.0000
  H   H3851     1.0  0.69137  0.35743  0.94654  1.0000
  C   C2180     1.0  0.64193  0.45492  0.72722  1.0000
  H   H3852     1.0  0.72647  0.47655  0.77590  1.0000
  H   H3853     1.0  0.76218  0.44453  0.74867  1.0000
  C   C2181     1.0  0.68724  0.33145  0.96394  1.0000
  H   H3854     1.0  0.98197  0.32145  0.76071  1.0000
  C   C2182     1.0  0.96286  0.31674  0.69042  1.0000
  N   N121      1.0  0.71413  0.35329  0.96478  1.0000
  C   C2183     1.0  0.59179  0.36671  0.73860  1.0000
  H   H3855     1.0  0.57449  0.34870  0.67700  1.0000
  H   H3856     1.0  0.60359  0.35081  0.70550  1.0000
  H   H3857     1.0  0.98263  0.29605  0.67587  1.0000
  C   C2184     1.0  0.63084  0.46494  0.74393  1.0000
  H   H3858     1.0  0.66252  0.44169  0.75623  1.0000
  H   H3859     1.0  0.67805  0.32172  0.93862  1.0000
  C   C2185     1.0  0.61270  0.37098  0.76429  1.0000
  C   C2186     1.0  0.72492  0.32654  0.98984  1.0000
  H   H3860     1.0  0.61849  0.38348  0.75640  1.0000
  H   H3861     1.0  0.69937  0.43915  0.76460  1.0000
  N   N122      1.0  0.58336  0.31135  0.87600  1.0000
  C   C2187     1.0  0.60358  0.30692  0.88108  1.0000
  C   C2188     1.0  0.57948  0.33210  0.86979  1.0000
  C   C2189     1.0  0.57042  0.30723  0.89356  1.0000
  C   C2190     1.0  0.57885  0.29915  0.86120  1.0000
  C   C2191     1.0  0.59161  0.30019  0.84245  1.0000
  C   C2192     1.0  0.60939  0.28617  0.88812  1.0000
  C   C2193     1.0  0.54884  0.31254  0.89207  1.0000
  C   C2194     1.0  0.59631  0.34223  0.85950  1.0000
  C   C2195     1.0  0.58959  0.36211  0.85174  1.0000
  C   C2196     1.0  0.58764  0.28524  0.82972  1.0000
  C   C2197     1.0  0.63044  0.28323  0.89150  1.0000
  C   C2198     1.0  0.73702  0.48486  0.93425  1.0000
  H   H3862     1.0  0.60620  0.31608  0.89219  1.0000
  H   H3863     1.0  0.61399  0.31037  0.86907  1.0000
  H   H3864     1.0  0.56746  0.33428  0.86069  1.0000
  H   H3865     1.0  0.57463  0.34049  0.88209  1.0000
  H   H3866     1.0  0.57461  0.31458  0.90538  1.0000
  H   H3867     1.0  0.57179  0.29190  0.89802  1.0000
  H   H3868     1.0  0.57900  0.28414  0.86677  1.0000
  H   H3869     1.0  0.56403  0.30302  0.85748  1.0000
  H   H3870     1.0  0.60691  0.29781  0.84463  1.0000
  H   H3871     1.0  0.58860  0.31414  0.83478  1.0000
  H   H3872     1.0  0.60125  0.28233  0.90163  1.0000
  H   H3873     1.0  0.60702  0.27620  0.87775  1.0000
  H   H3874     1.0  0.54357  0.30300  0.88285  1.0000
  H   H3875     1.0  0.54557  0.32727  0.88630  1.0000
  H   H3876     1.0  0.60700  0.34366  0.86946  1.0000
  H   H3877     1.0  0.60354  0.33446  0.84770  1.0000
  H   H3878     1.0  0.58257  0.37070  0.86314  1.0000
  C   C2199     1.0  0.95487  0.35711  0.70414  1.0000
  H   H3879     1.0  0.57944  0.36148  0.84111  1.0000
  H   H3880     1.0  0.65575  0.46069  0.72309  1.0000
  H   H3881     1.0  0.63828  0.44919  0.69865  1.0000
  H   H3882     1.0  0.51639  0.40749  0.72689  1.0000
  C   C2200     1.0  0.76641  0.45569  0.75686  1.0000
  H   H3883     1.0  0.63949  0.28612  0.87826  1.0000
  H   H3884     1.0  0.98479  0.35223  0.74240  1.0000
  S   S490      1.0  0.84825  0.48934  0.73440  1.0000
  C   C2201     1.0  0.66730  0.48363  0.77291  1.0000
  H   H3885     1.0  0.54154  0.32050  0.92074  1.0000
  H   H3886     1.0  0.78022  0.47108  0.97233  1.0000
  H   H3887     1.0  0.52294  0.39844  0.74976  1.0000
  H   H3888     1.0  0.99161  0.32295  0.69265  1.0000
  H   H3889     1.0  0.95932  0.35631  0.74308  1.0000
  C   C2202     1.0  0.73567  0.48002  0.78641  1.0000
  C   C2203     1.0  0.50969  0.48748  0.78641  1.0000
  H   H3890     1.0  0.85676  0.44342  0.67039  1.0000
  C   C2204     1.0  0.79334  0.48567  0.90287  1.0000
  H   H3891     1.0  0.98514  0.37039  0.71248  1.0000
  H   H3892     1.0  0.80259  0.47506  0.66458  1.0000
  H   H3893     1.0  0.69565  0.31776  0.96705  1.0000
  C   C2205     1.0  0.78553  0.46147  0.74770  1.0000
  H   H3894     1.0  0.79682  0.44949  0.74867  1.0000
  H   H3895     1.0  0.71131  0.49007  0.80524  1.0000
  C   C2206     1.0  0.63059  0.45741  0.71003  1.0000
  H   H3896     1.0  0.67432  0.47081  0.78008  1.0000
  H   H3897     1.0  0.87280  0.47467  0.79948  1.0000
  H   H3898     1.0  0.70108  0.48908  0.92095  1.0000
  H   H3899     1.0  0.72708  0.35725  0.92456  1.0000
  C   C2207     1.0  0.65693  0.47869  0.75618  1.0000
  H   H3900     1.0  0.63466  0.47115  0.79011  1.0000
  H   H3901     1.0  0.70252  0.46765  0.93621  1.0000
  C   C2208     1.0  0.70414  0.36274  0.98160  1.0000
  C   C2209     1.0  0.74004  0.31000  0.99286  1.0000
  H   H3902     1.0  0.71395  0.37976  0.94744  1.0000
  H   H3903     1.0  0.74021  0.29981  0.98198  1.0000
  H   H3904     1.0  0.73829  0.38970  0.92149  1.0000
  C   C2210     1.0  0.70110  0.48330  0.93573  1.0000
  H   H3905     1.0  0.55460  0.31061  0.73821  1.0000
  S   S491      1.0  0.57474  0.24978  0.89332  1.0000
  S   S492      1.0  0.72579  0.40784  0.98416  1.0000
  C   C2211     1.0  0.61790  0.49265  0.77383  1.0000
  C   C2212     1.0  0.77160  0.47944  0.93252  1.0000
  H   H3906     1.0  0.78869  0.47340  0.89661  1.0000
  C   C2213     1.0  0.98988  0.35720  0.70540  1.0000
  H   H3907     1.0  0.74098  0.42491  0.77216  1.0000
  H   H3908     1.0  0.95681  0.36141  0.67319  1.0000
  H   H3909     1.0  0.78441  0.47631  0.94024  1.0000
  H   H3910     1.0  0.51388  0.35680  0.85564  1.0000
  C   C2214     1.0  0.79685  0.49038  0.79287  1.0000
  H   H3911     1.0  0.54034  0.29574  0.91772  1.0000
  H   H3912     1.0  0.92766  0.38699  0.69667  1.0000
  H   H3913     1.0  0.96191  0.38139  0.68518  1.0000
  H   H3914     1.0  0.75579  0.46807  0.75551  1.0000
  C   C2215     1.0  0.68796  0.37853  0.97763  1.0000
  H   H3915     1.0  0.63409  0.26835  0.89674  1.0000
  N   N123      1.0  0.75404  0.48522  0.94527  1.0000
  H   H3916     1.0  0.95788  0.29365  0.67422  1.0000
  H   H3917     1.0  0.78438  0.46592  0.73265  1.0000
  H   H3918     1.0  0.65730  0.49099  0.78342  1.0000
  H   H3919     1.0  0.92260  0.36727  0.68432  1.0000
  H   H3920     1.0  0.59353  0.48873  0.79432  1.0000
  H   H3921     1.0  0.88799  0.49262  0.79024  1.0000
  H   H3922     1.0  0.71628  0.48424  0.95970  1.0000
  H   H3923     1.0  0.66814  0.47251  0.74589  1.0000
  H   H3924     1.0  0.68724  0.48808  0.94329  1.0000
  C   C2216     1.0  0.72435  0.49536  0.79766  1.0000
  C   C2217     1.0  0.87482  0.48988  0.79931  1.0000
  H   H3925     1.0  0.97112  0.31487  0.99080  1.0000
  S   S493      1.0  0.76937  0.49581  0.82212  1.0000
  H   H3926     1.0  0.69765  0.35239  0.99190  1.0000
  H   H3927     1.0  0.61636  0.45221  0.71346  1.0000
  H   H3928     1.0  0.93147  0.38779  0.67151  1.0000
  H   H3929     1.0  0.69397  0.48959  0.75674  1.0000
  H   H3930     1.0  0.87638  0.49327  0.81384  1.0000
  H   H3931     1.0  0.65115  0.49216  0.74898  1.0000
  H   H3932     1.0  0.61342  0.49742  0.80364  1.0000
  H   H3933     1.0  0.54138  0.26523  0.99046  1.0000
  H   H3934     1.0  0.54915  0.29770  0.99240  1.0000
  H   H3935     1.0  0.75433  0.31511  0.99254  1.0000
  Fe  Fe245     1.0  0.72176  0.49771  0.87931  1.0000
  H   H3936     1.0  0.85632  0.49699  0.77757  1.0000
  C   C2218     1.0  0.50383  0.25315  0.95300  1.0000
  C   C2219     1.0  0.60507  0.49822  0.79127  1.0000
  H   H3937     1.0  0.52179  0.57870  0.32517  1.0000
  H   H3938     1.0  0.97543  0.71807  0.13676  1.0000
  Fe  Fe246     1.0  0.76215  0.53096  0.14861  1.0000
  S   S494      1.0  0.73497  0.55027  0.14663  1.0000
  S   S495      1.0  0.78766  0.54116  0.16088  1.0000
  Fe  Fe247     1.0  0.71989  0.52431  0.15503  1.0000
  S   S496      1.0  0.69720  0.52726  0.18006  1.0000
  Fe  Fe248     1.0  0.73534  0.54223  0.11694  1.0000
  S   S497      1.0  0.72475  0.56163  0.09251  1.0000
  H   H3939     1.0  0.56822  0.74522  0.21887  1.0000
  S   S498      1.0  0.76371  0.52551  0.11807  1.0000
  Fe  Fe249     1.0  0.51493  0.71516  0.14799  1.0000
  H   H3940     1.0  0.59085  0.58162  0.14597  1.0000
  C   C2220     1.0  0.53522  0.50536  0.29528  1.0000
  H   H3941     1.0  0.74526  0.50511  0.02158  1.0000
  H   H3942     1.0  0.67888  0.52423  0.08013  1.0000
  H   H3943     1.0  0.96599  0.54122  0.22794  1.0000
  Fe  Fe250     1.0  0.57151  0.56431  0.24899  1.0000
  S   S499      1.0  0.58874  0.57888  0.22520  1.0000
  S   S500      1.0  0.57945  0.55743  0.27923  1.0000
  Fe  Fe251     1.0  0.54209  0.55461  0.22356  1.0000
  S   S501      1.0  0.55700  0.56894  0.19790  1.0000
  S   S502      1.0  0.51309  0.54190  0.22600  1.0000
  Fe  Fe252     1.0  0.58452  0.55509  0.20816  1.0000
  S   S503      1.0  0.60654  0.54478  0.18471  1.0000
  Fe  Fe253     1.0  0.56081  0.59250  0.21567  1.0000
  S   S504      1.0  0.56438  0.62301  0.20381  1.0000
  S   S505      1.0  0.56932  0.53903  0.23256  1.0000
  S   S506      1.0  0.54379  0.57953  0.24090  1.0000
  H   H3944     1.0  0.53512  0.69510  0.05279  1.0000
  S   S507      1.0  0.88469  0.51614  0.24093  1.0000
  Fe  Fe254     1.0  0.86217  0.54402  0.28380  1.0000
  S   S508      1.0  0.85890  0.55481  0.25368  1.0000
  H   H3945     1.0  0.51901  0.71734  0.18736  1.0000
  Fe  Fe255     1.0  0.85365  0.52510  0.24884  1.0000
  S   S509      1.0  0.82936  0.51437  0.23511  1.0000
  Fe  Fe256     1.0  0.89020  0.54502  0.24823  1.0000
  S   S510      1.0  0.91239  0.56057  0.22959  1.0000
  H   H3946     1.0  0.90493  0.59054  0.32496  1.0000
  S   S511      1.0  0.89374  0.53638  0.27837  1.0000
  H   H3947     1.0  0.99417  0.68860  0.12718  1.0000
  S   S512      1.0  0.96763  0.61085  0.26295  1.0000
  C   C2221     1.0  0.55293  0.74830  0.21643  1.0000
  S   S513      1.0  0.77292  0.58942  0.01737  1.0000
  H   H3948     1.0  0.61610  0.58438  0.18348  1.0000
  C   C2222     1.0  0.53721  0.50422  0.26064  1.0000
  H   H3949     1.0  0.99802  0.50081  0.26024  1.0000
  H   H3950     1.0  0.69206  0.57555  0.18436  1.0000
  H   H3951     1.0  0.77753  0.68659  0.01359  1.0000
  H   H3952     1.0  0.55689  0.58199  0.15580  1.0000
  H   H3953     1.0  0.51394  0.70765  0.21128  1.0000
  H   H3954     1.0  0.56159  0.71623  0.23223  1.0000
  C   C2223     1.0  0.92955  0.57273  0.23865  1.0000
  C   C2224     1.0  0.93205  0.57116  0.25776  1.0000
  C   C2225     1.0  0.94444  0.58235  0.26487  1.0000
  C   C2226     1.0  0.95475  0.59496  0.25291  1.0000
  C   C2227     1.0  0.95321  0.59568  0.23361  1.0000
  C   C2228     1.0  0.94059  0.58464  0.22654  1.0000
  H   H3955     1.0  0.92408  0.56160  0.26708  1.0000
  H   H3956     1.0  0.94579  0.58149  0.27977  1.0000
  H   H3957     1.0  0.96103  0.60538  0.22425  1.0000
  H   H3958     1.0  0.93890  0.58582  0.21168  1.0000
  H   H3959     1.0  0.60322  0.60568  0.18993  1.0000
  S   S514      1.0  0.51233  0.71798  0.11688  1.0000
  H   H3960     1.0  0.78650  0.50721  0.18696  1.0000
  H   H3961     1.0  0.58686  0.58239  0.17108  1.0000
  H   H3962     1.0  0.53682  0.71499  0.23637  1.0000
  N   N124      1.0  0.81556  0.63731  0.01728  1.0000
  H   H3963     1.0  0.52899  0.50698  0.20833  1.0000
  H   H3964     1.0  0.53271  0.54350  0.26328  1.0000
  C   C2229     1.0  0.52438  0.66990  0.17558  1.0000
  C   C2230     1.0  0.51715  0.65346  0.18440  1.0000
  C   C2231     1.0  0.52918  0.63881  0.19274  1.0000
  C   C2232     1.0  0.54863  0.64055  0.19265  1.0000
  C   C2233     1.0  0.55589  0.65701  0.18386  1.0000
  C   C2234     1.0  0.54390  0.67152  0.17522  1.0000
  C   C2235     1.0  0.74738  0.49874  0.05890  1.0000
  H   H3965     1.0  0.52334  0.62630  0.19945  1.0000
  H   H3966     1.0  0.57088  0.65858  0.18376  1.0000
  H   H3967     1.0  0.54971  0.68401  0.16844  1.0000
  C   C2236     1.0  0.79934  0.53326  0.18138  1.0000
  C   C2237     1.0  0.81230  0.54453  0.18751  1.0000
  C   C2238     1.0  0.82175  0.53898  0.20378  1.0000
  C   C2239     1.0  0.81829  0.52205  0.21420  1.0000
  C   C2240     1.0  0.80531  0.51082  0.20807  1.0000
  C   C2241     1.0  0.79600  0.51629  0.19173  1.0000
  H   H3968     1.0  0.81513  0.55763  0.17957  1.0000
  H   H3969     1.0  0.83169  0.54779  0.20825  1.0000
  H   H3970     1.0  0.52903  0.67102  0.07823  1.0000
  H   H3971     1.0  0.51794  0.74213  0.00805  1.0000
  C   C2242     1.0  0.73842  0.56909  0.07168  1.0000
  C   C2243     1.0  0.72906  0.57902  0.05698  1.0000
  C   C2244     1.0  0.73935  0.58526  0.04021  1.0000
  C   C2245     1.0  0.75916  0.58166  0.03801  1.0000
  C   C2246     1.0  0.76852  0.57164  0.05266  1.0000
  C   C2247     1.0  0.75823  0.56542  0.06943  1.0000
  H   H3972     1.0  0.71374  0.58201  0.05862  1.0000
  H   H3973     1.0  0.73197  0.59298  0.02907  1.0000
  H   H3974     1.0  0.78384  0.56877  0.05110  1.0000
  H   H3975     1.0  0.76562  0.55791  0.08067  1.0000
  C   C2248     1.0  0.67207  0.53281  0.18083  1.0000
  C   C2249     1.0  0.66170  0.53628  0.19817  1.0000
  C   C2250     1.0  0.64173  0.54038  0.19959  1.0000
  C   C2251     1.0  0.63180  0.54067  0.18371  1.0000
  C   C2252     1.0  0.64215  0.53717  0.16639  1.0000
  C   C2253     1.0  0.66216  0.53345  0.16489  1.0000
  N   N125      1.0  0.72950  0.50341  0.04901  1.0000
  H   H3976     1.0  0.63398  0.54282  0.21305  1.0000
  H   H3977     1.0  0.63460  0.53716  0.15405  1.0000
  H   H3978     1.0  0.66987  0.53067  0.15149  1.0000
  H   H3979     1.0  0.80124  0.61563  0.00675  1.0000
  C   C2254     1.0  0.96934  0.52914  0.23821  1.0000
  C   C2255     1.0  0.58037  0.60509  0.30698  1.0000
  C   C2256     1.0  0.57837  0.59296  0.29292  1.0000
  C   C2257     1.0  0.58246  0.57345  0.29616  1.0000
  C   C2258     1.0  0.58876  0.56630  0.31358  1.0000
  H   H3980     1.0  0.50522  0.72049  0.07637  1.0000
  H   H3981     1.0  0.57348  0.59869  0.27964  1.0000
  H   H3982     1.0  0.59192  0.55124  0.31626  1.0000
  H   H3983     1.0  0.59420  0.61568  0.14191  1.0000
  N   N126      1.0  0.51257  0.73126  0.04774  1.0000
  H   H3984     1.0  0.97480  0.51267  0.17558  1.0000
  N   N127      1.0  0.74222  0.55899  0.20945  1.0000
  C   C2259     1.0  0.74426  0.57161  0.22482  1.0000
  C   C2260     1.0  0.72161  0.55976  0.20530  1.0000
  H   H3985     1.0  0.74624  0.51353  0.08455  1.0000
  C   C2261     1.0  0.75473  0.56383  0.19188  1.0000
  C   C2262     1.0  0.75158  0.58423  0.18293  1.0000
  C   C2263     1.0  0.76470  0.57186  0.23073  1.0000
  H   H3986     1.0  0.55691  0.60349  0.16725  1.0000
  C   C2264     1.0  0.70902  0.57874  0.20745  1.0000
  C   C2265     1.0  0.68991  0.57835  0.19945  1.0000
  C   C2266     1.0  0.76663  0.58790  0.16665  1.0000
  C   C2267     1.0  0.76506  0.58592  0.24556  1.0000
  C   C2268     1.0  0.74062  0.53339  0.02935  1.0000
  H   H3987     1.0  0.73495  0.56743  0.23759  1.0000
  H   H3988     1.0  0.73916  0.58648  0.22092  1.0000
  H   H3989     1.0  0.56191  0.68073  0.24388  1.0000
  H   H3990     1.0  0.71665  0.50040  0.08791  1.0000
  H   H3991     1.0  0.65523  0.56303  0.29325  1.0000
  H   H3992     1.0  0.72750  0.54473  0.00405  1.0000
  H   H3993     1.0  0.77000  0.56073  0.19431  1.0000
  H   H3994     1.0  0.75265  0.55454  0.18079  1.0000
  H   H3995     1.0  0.75237  0.59482  0.19316  1.0000
  H   H3996     1.0  0.73760  0.58644  0.17704  1.0000
  H   H3997     1.0  0.77016  0.55783  0.23690  1.0000
  H   H3998     1.0  0.77470  0.57607  0.21861  1.0000
  C   C2269     1.0  0.91210  0.63740  0.28589  1.0000
  H   H3999     1.0  0.62012  0.59214  0.29523  1.0000
  H   H4000     1.0  0.70604  0.58131  0.22255  1.0000
  H   H4001     1.0  0.71591  0.59089  0.20032  1.0000
  C   C2270     1.0  0.56989  0.73702  0.07216  1.0000
  H   H4002     1.0  0.68183  0.56720  0.20719  1.0000
  H   H4003     1.0  0.68134  0.59216  0.20083  1.0000
  H   H4004     1.0  0.76439  0.60275  0.16082  1.0000
  H   H4005     1.0  0.78117  0.58536  0.17141  1.0000
  H   H4006     1.0  0.76558  0.57854  0.15528  1.0000
  H   H4007     1.0  0.76052  0.60047  0.23995  1.0000
  H   H4008     1.0  0.75559  0.58213  0.25827  1.0000
  H   H4009     1.0  0.77978  0.58562  0.24966  1.0000
  C   C2271     1.0  0.58579  0.71511  0.17273  1.0000
  H   H4010     1.0  0.98272  0.74444  0.15376  1.0000
  C   C2272     1.0  0.98465  0.71855  0.12331  1.0000
  H   H4011     1.0  0.83165  0.61991  0.03775  1.0000
  H   H4012     1.0  0.57701  0.62014  0.30432  1.0000
  C   C2273     1.0  0.59527  0.60884  0.15634  1.0000
  C   C2274     1.0  0.71415  0.51531  0.06006  1.0000
  C   C2275     1.0  0.83161  0.64949  0.01098  1.0000
  H   H4013     1.0  0.82805  0.66398  0.01585  1.0000
  C   C2276     1.0  0.81765  0.62821  0.03682  1.0000
  C   C2277     1.0  0.79710  0.65003  0.01815  1.0000
  C   C2278     1.0  0.80270  0.61444  0.04458  1.0000
  C   C2279     1.0  0.54873  0.71469  0.22502  1.0000
  C   C2280     1.0  0.80575  0.60693  0.06470  1.0000
  C   C2281     1.0  0.55178  0.69443  0.21797  1.0000
  H   H4014     1.0  0.81732  0.63935  0.04686  1.0000
  H   H4015     1.0  0.79651  0.65950  0.02981  1.0000
  H   H4016     1.0  0.78467  0.64162  0.02124  1.0000
  C   C2282     1.0  0.87440  0.61660  0.29702  1.0000
  H   H4017     1.0  0.78795  0.62131  0.04474  1.0000
  H   H4018     1.0  0.80395  0.60207  0.03603  1.0000
  C   C2283     1.0  0.55501  0.72709  0.19138  1.0000
  C   C2284     1.0  0.86674  0.65463  0.00764  1.0000
  H   H4019     1.0  0.79488  0.59712  0.06983  1.0000
  H   H4020     1.0  0.82006  0.59907  0.06535  1.0000
  H   H4021     1.0  0.80426  0.61868  0.07409  1.0000
  H   H4022     1.0  0.89819  0.64610  0.28634  1.0000
  H   H4023     1.0  0.52915  0.50757  0.24811  1.0000
  N   N128      1.0  0.61574  0.60654  0.16102  1.0000
  C   C2285     1.0  0.62349  0.62540  0.15614  1.0000
  C   C2286     1.0  0.62651  0.59210  0.14868  1.0000
  C   C2287     1.0  0.61632  0.59999  0.18155  1.0000
  C   C2288     1.0  0.63331  0.60537  0.19143  1.0000
  C   C2289     1.0  0.61154  0.64243  0.16511  1.0000
  C   C2290     1.0  0.64812  0.58776  0.15051  1.0000
  C   C2291     1.0  0.65780  0.57631  0.13453  1.0000
  C   C2292     1.0  0.63382  0.59572  0.21115  1.0000
  C   C2293     1.0  0.62276  0.65966  0.16396  1.0000
  H   H4024     1.0  0.62452  0.62871  0.14066  1.0000
  H   H4025     1.0  0.63827  0.62513  0.15990  1.0000
  H   H4026     1.0  0.62077  0.57815  0.15177  1.0000
  H   H4027     1.0  0.62444  0.59639  0.13370  1.0000
  H   H4028     1.0  0.85110  0.64504  0.03311  1.0000
  H   H4029     1.0  0.63210  0.62080  0.19286  1.0000
  H   H4030     1.0  0.64717  0.60152  0.18360  1.0000
  H   H4031     1.0  0.59867  0.64657  0.15752  1.0000
  H   H4032     1.0  0.60671  0.63887  0.18004  1.0000
  H   H4033     1.0  0.65551  0.60069  0.15014  1.0000
  H   H4034     1.0  0.65036  0.57910  0.16382  1.0000
  H   H4035     1.0  0.65740  0.58485  0.12092  1.0000
  H   H4036     1.0  0.67293  0.57208  0.13698  1.0000
  H   H4037     1.0  0.65072  0.56332  0.13371  1.0000
  H   H4038     1.0  0.63431  0.58016  0.21079  1.0000
  H   H4039     1.0  0.64667  0.59901  0.21738  1.0000
  H   H4040     1.0  0.62111  0.60096  0.22024  1.0000
  H   H4041     1.0  0.61355  0.67169  0.16990  1.0000
  H   H4042     1.0  0.63535  0.65662  0.17212  1.0000
  H   H4043     1.0  0.62751  0.66383  0.14913  1.0000
  H   H4044     1.0  0.90975  0.60446  0.26272  1.0000
  H   H4045     1.0  0.97323  0.69390  0.11480  1.0000
  C   C2294     1.0  0.90063  0.56159  0.32323  1.0000
  H   H4046     1.0  0.71398  0.54924  0.21472  1.0000
  H   H4047     1.0  0.81504  0.58513  0.99591  1.0000
  C   C2295     1.0  0.69081  0.51950  0.08883  1.0000
  H   H4048     1.0  0.75520  0.53242  0.03390  1.0000
  H   H4049     1.0  0.54114  0.69187  0.20852  1.0000
  H   H4050     1.0  0.51667  0.73896  0.22276  1.0000
  C   C2296     1.0  0.55093  0.67930  0.23425  1.0000
  H   H4051     1.0  0.89480  0.60185  0.23139  1.0000
  C   C2297     1.0  0.58596  0.73987  0.04046  1.0000
  H   H4052     1.0  0.50198  0.71092  0.03162  1.0000
  C   C2298     1.0  0.79311  0.66265  0.00004  1.0000
  C   C2299     1.0  0.98118  0.70034  0.01110  1.0000
  C   C2300     1.0  0.77510  0.51175  0.07166  1.0000
  H   H4053     1.0  0.73095  0.54296  0.03817  1.0000
  H   H4054     1.0  0.72081  0.55549  0.19085  1.0000
  H   H4055     1.0  0.92386  0.60878  0.29155  1.0000
  H   H4056     1.0  0.73070  0.52408  0.20001  1.0000
  H   H4057     1.0  0.86703  0.59807  0.26709  1.0000
  H   H4058     1.0  0.70081  0.52402  0.31769  1.0000
  H   H4059     1.0  0.52954  0.72333  0.07099  1.0000
  H   H4060     1.0  0.56593  0.69205  0.21002  1.0000
  H   H4061     1.0  0.89177  0.62354  0.26299  1.0000
  C   C2301     1.0  0.57710  0.72520  0.18996  1.0000
  H   H4062     1.0  0.91776  0.63653  0.27095  1.0000
  H   H4063     1.0  0.50449  0.52603  0.26393  1.0000
  H   H4064     1.0  0.66236  0.54276  0.31912  1.0000
  C   C2302     1.0  0.74177  0.54269  0.00941  1.0000
  H   H4065     1.0  0.88063  0.65025  0.01335  1.0000
  N   N129      1.0  0.54525  0.73095  0.21049  1.0000
  C   C2303     1.0  0.53707  0.57324  0.32424  1.0000
  C   C2304     1.0  0.89520  0.58257  0.31829  1.0000
  H   H4066     1.0  0.55363  0.66509  0.22869  1.0000
  H   H4067     1.0  0.78297  0.51255  0.05751  1.0000
  H   H4068     1.0  0.69749  0.53207  0.09208  1.0000
  C   C2305     1.0  0.97429  0.50722  0.19053  1.0000
  H   H4069     1.0  0.54855  0.51237  0.29140  1.0000
  H   H4070     1.0  0.68492  0.51246  0.10219  1.0000
  C   C2306     1.0  0.51404  0.50595  0.21243  1.0000
  H   H4071     1.0  0.76468  0.50198  0.21786  1.0000
  C   C2307     1.0  0.89632  0.58704  0.29679  1.0000
  H   H4072     1.0  0.98813  0.50893  0.19584  1.0000
  H   H4073     1.0  0.74106  0.53561  0.23058  1.0000
  C   C2308     1.0  0.75362  0.51428  0.07018  1.0000
  C   C2309     1.0  0.58507  0.59060  0.15751  1.0000
  H   H4074     1.0  0.75172  0.53394  0.99999  1.0000
  H   H4075     1.0  0.97691  0.72772  0.11286  1.0000
  H   H4076     1.0  0.94096  0.53147  0.25335  1.0000
  H   H4077     1.0  0.97847  0.51789  0.23106  1.0000
  C   C2310     1.0  0.91010  0.61727  0.29529  1.0000
  H   H4078     1.0  0.60155  0.71390  0.17227  1.0000
  H   H4079     1.0  0.96955  0.54883  0.25874  1.0000
  H   H4080     1.0  0.49890  0.55989  0.28922  1.0000
  H   H4081     1.0  0.62669  0.57604  0.27720  1.0000
  H   H4082     1.0  0.91017  0.58045  0.29070  1.0000
  H   H4083     1.0  0.70220  0.51998  0.05127  1.0000
  S   S515      1.0  0.50832  0.68816  0.16589  1.0000
  C   C2311     1.0  0.85228  0.63177  0.32276  1.0000
  C   C2312     1.0  0.67137  0.55217  0.32502  1.0000
  H   H4084     1.0  0.83340  0.65147  0.99537  1.0000
  S   S516      1.0  0.85514  0.51485  0.27939  1.0000
  C   C2313     1.0  0.51704  0.71880  0.06504  1.0000
  H   H4085     1.0  0.77929  0.52318  0.07946  1.0000
  H   H4086     1.0  0.92765  0.66161  0.28795  1.0000
  Fe  Fe257     1.0  0.53937  0.73214  0.11453  1.0000
  H   H4087     1.0  0.53388  0.71674  0.02895  1.0000
  H   H4088     1.0  0.97159  0.69122  0.01908  1.0000
  H   H4089     1.0  0.65939  0.59070  0.30977  1.0000
  C   C2314     1.0  0.70540  0.50570  0.07859  1.0000
  H   H4090     1.0  0.91545  0.55733  0.31754  1.0000
  H   H4091     1.0  0.71923  0.52857  0.06372  1.0000
  C   C2315     1.0  0.57968  0.72869  0.05648  1.0000
  H   H4092     1.0  0.97729  0.52567  0.26682  1.0000
  H   H4093     1.0  0.53662  0.68033  0.24213  1.0000
  H   H4094     1.0  0.55067  0.73875  0.18096  1.0000
  H   H4095     1.0  0.54739  0.51512  0.25956  1.0000
  N   N130      1.0  0.89374  0.60761  0.28984  1.0000
  H   H4096     1.0  0.88736  0.58166  0.26089  1.0000
  H   H4097     1.0  0.50073  0.52529  0.28878  1.0000
  C   C2316     1.0  0.51330  0.72064  0.20176  1.0000
  H   H4098     1.0  0.83550  0.60109  0.01485  1.0000
  H   H4099     1.0  0.86303  0.66992  0.00941  1.0000
  H   H4100     1.0  0.75503  0.52439  0.19060  1.0000
  H   H4101     1.0  0.75007  0.52871  0.06408  1.0000
  H   H4102     1.0  0.55030  0.71431  0.18619  1.0000
  H   H4103     1.0  0.58641  0.61844  0.16594  1.0000
  C   C2317     1.0  0.73379  0.51342  0.02993  1.0000
  H   H4104     1.0  0.58238  0.71348  0.05671  1.0000
  H   H4105     1.0  0.99145  0.74663  0.09227  1.0000
  C   C2318     1.0  0.92612  0.64748  0.29531  1.0000
  H   H4106     1.0  0.54092  0.74566  0.24598  1.0000
  C   C2319     1.0  0.50913  0.56026  0.27648  1.0000
  Fe  Fe258     1.0  0.88654  0.50798  0.27146  1.0000
  H   H4107     1.0  0.98819  0.56785  0.23839  1.0000
  S   S517      1.0  0.74724  0.50516  0.15812  1.0000
  H   H4108     1.0  0.59345  0.73329  0.02847  1.0000
  C   C2320     1.0  0.52499  0.68610  0.08076  1.0000
  C   C2321     1.0  0.98729  0.69862  0.11667  1.0000
  C   C2322     1.0  0.89498  0.60869  0.26865  1.0000
  C   C2323     1.0  0.52295  0.54234  0.27628  1.0000
  H   H4109     1.0  0.58154  0.72324  0.15972  1.0000
  C   C2324     1.0  0.52936  0.74503  0.01654  1.0000
  H   H4110     1.0  0.66915  0.53555  0.21065  1.0000
  C   C2325     1.0  0.51206  0.52449  0.27687  1.0000
  H   H4111     1.0  0.98070  0.56396  0.27948  1.0000
  H   H4112     1.0  0.95307  0.50792  0.25433  1.0000
  H   H4113     1.0  0.90948  0.61800  0.31067  1.0000
  H   H4114     1.0  0.52703  0.51382  0.30631  1.0000
  H   H4115     1.0  0.74717  0.55676  0.00929  1.0000
  C   C2326     1.0  0.53029  0.73101  0.03420  1.0000
  H   H4116     1.0  0.53963  0.56257  0.31365  1.0000
  H   H4117     1.0  0.76403  0.53729  0.21828  1.0000
  C   C2327     1.0  0.56380  0.59526  0.15551  1.0000
  H   H4118     1.0  0.72094  0.51457  0.02199  1.0000
  C   C2328     1.0  0.88038  0.60271  0.23908  1.0000
  H   H4119     1.0  0.96271  0.51579  0.19850  1.0000
  C   C2329     1.0  0.52184  0.69746  0.06219  1.0000
  C   C2330     1.0  0.83167  0.60785  0.00115  1.0000
  C   C2331     1.0  0.58659  0.59796  0.32440  1.0000
  C   C2332     1.0  0.52422  0.73580  0.20891  1.0000
  H   H4120     1.0  0.58267  0.71743  0.20257  1.0000
  C   C2333     1.0  0.88163  0.59675  0.25987  1.0000
  H   H4121     1.0  0.53664  0.69133  0.08752  1.0000
  C   C2334     1.0  0.74552  0.52327  0.20374  1.0000
  S   S518      1.0  0.85078  0.56363  0.30705  1.0000
  H   H4122     1.0  0.87349  0.61734  0.23721  1.0000
  H   H4123     1.0  0.58114  0.70069  0.17322  1.0000
  C   C2335     1.0  0.77533  0.67643  0.00331  1.0000
  C   C2336     1.0  0.87299  0.62603  0.31588  1.0000
  C   C2337     1.0  0.74852  0.53899  0.21649  1.0000
  H   H4124     1.0  0.86890  0.62782  0.28668  1.0000
  H   H4125     1.0  0.50209  0.65203  0.18477  1.0000
  H   H4126     1.0  0.54577  0.58506  0.31941  1.0000
  H   H4127     1.0  0.88528  0.57911  0.29201  1.0000
  H   H4128     1.0  0.88051  0.63900  0.31415  1.0000
  H   H4129     1.0  0.64200  0.59395  0.28032  1.0000
  S   S519      1.0  0.71840  0.51740  0.12521  1.0000
  C   C2338     1.0  0.81441  0.62289  0.00336  1.0000
  H   H4130     1.0  0.53145  0.54217  0.28841  1.0000
  C   C2339     1.0  0.85146  0.64301  0.01791  1.0000
  H   H4131     1.0  0.58220  0.73949  0.18873  1.0000
  S   S520      1.0  0.54304  0.72717  0.14532  1.0000
  H   H4132     1.0  0.56148  0.60353  0.14202  1.0000
  C   C2340     1.0  0.64288  0.57020  0.30149  1.0000
  C   C2341     1.0  0.95053  0.52113  0.24526  1.0000
  S   S521      1.0  0.56210  0.72235  0.09188  1.0000
  H   H4133     1.0  0.63323  0.55952  0.30702  1.0000
  C   C2342     1.0  0.64963  0.58072  0.31730  1.0000
  H   H4134     1.0  0.76280  0.66875  0.00854  1.0000
  H   H4135     1.0  0.99346  0.54438  0.21135  1.0000
  C   C2343     1.0  0.63231  0.58397  0.28776  1.0000
  C   C2344     1.0  0.50311  0.52108  0.22073  1.0000
  N   N131      1.0  0.52401  0.50570  0.27837  1.0000
  H   H4136     1.0  0.87180  0.59310  0.23289  1.0000
  H   H4137     1.0  0.94309  0.51797  0.23318  1.0000
  Fe  Fe259     1.0  0.99479  0.62277  0.24944  1.0000
  C   C2345     1.0  0.97879  0.53609  0.25450  1.0000
  H   H4138     1.0  0.98842  0.57990  0.20562  1.0000
  C   C2346     1.0  0.54812  0.74329  0.00400  1.0000
  H   H4139     1.0  0.51021  0.69151  0.05614  1.0000
  H   H4140     1.0  0.54284  0.73352  0.04145  1.0000
  H   H4141     1.0  0.84545  0.64192  0.31230  1.0000
  H   H4142     1.0  0.55135  0.72879  0.99927  1.0000
  H   H4143     1.0  0.86379  0.60597  0.29836  1.0000
  H   H4144     1.0  0.50117  0.56184  0.26380  1.0000
  H   H4145     1.0  0.89080  0.55287  0.31752  1.0000
  H   H4146     1.0  0.94036  0.63928  0.29455  1.0000
  H   H4147     1.0  0.68130  0.55694  0.31297  1.0000
  H   H4148     1.0  0.99611  0.69828  0.10301  1.0000
  H   H4149     1.0  0.92098  0.64937  0.31021  1.0000
  Fe  Fe260     1.0  0.74693  0.50078  0.12732  1.0000
  H   H4150     1.0  0.51718  0.57277  0.27649  1.0000
  H   H4151     1.0  0.51174  0.68706  0.09042  1.0000
  H   H4152     1.0  0.88038  0.58587  0.32450  1.0000
  H   H4153     1.0  0.85598  0.62798  0.01587  1.0000
  H   H4154     1.0  0.63714  0.58984  0.32331  1.0000
  C   C2347     1.0  0.75001  0.50367  0.21344  1.0000
  H   H4155     1.0  0.99773  0.58158  0.29956  1.0000
  H   H4156     1.0  0.80503  0.67111  0.99479  1.0000
  H   H4157     1.0  0.84418  0.61918  0.32524  1.0000
  C   C2348     1.0  0.99779  0.70421  0.01888  1.0000
  C   C2349     1.0  0.99627  0.56430  0.27644  1.0000
  H   H4158     1.0  0.56002  0.74672  0.01161  1.0000
  H   H4159     1.0  0.73975  0.50135  0.22592  1.0000
  H   H4160     1.0  0.87936  0.61663  0.32707  1.0000
  Fe  Fe261     1.0  0.59861  0.61188  0.37108  1.0000
  S   S522      1.0  0.58127  0.62858  0.39320  1.0000
  S   S523      1.0  0.58837  0.61403  0.34165  1.0000
  Fe  Fe262     1.0  0.62986  0.59887  0.39733  1.0000
  S   S524      1.0  0.61453  0.61414  0.42154  1.0000
  S   S525      1.0  0.65849  0.58062  0.39545  1.0000
  Fe  Fe263     1.0  0.58806  0.60325  0.41321  1.0000
  S   S526      1.0  0.56205  0.59605  0.43282  1.0000
  Fe  Fe264     1.0  0.60857  0.63838  0.40004  1.0000
  S   S527      1.0  0.61518  0.66815  0.40489  1.0000
  S   S528      1.0  0.60367  0.58602  0.39057  1.0000
  S   S529      1.0  0.62556  0.62377  0.37636  1.0000
  H   H4161     1.0  0.79116  0.54870  0.52063  1.0000
  S   S530      1.0  0.54137  0.51789  0.47581  1.0000
  H   H4162     1.0  0.61022  0.70341  0.45218  1.0000
  Fe  Fe265     1.0  0.88785  0.72543  0.46236  1.0000
  S   S531      1.0  0.88753  0.70885  0.49028  1.0000
  H   H4163     1.0  0.56199  0.55913  0.40988  1.0000
  C   C2350     1.0  0.73931  0.61656  0.39237  1.0000
  S   S532      1.0  0.84595  0.73163  0.50171  1.0000
  H   H4164     1.0  0.64347  0.53348  0.34373  1.0000
  H   H4165     1.0  0.57538  0.74686  0.37031  1.0000
  Fe  Fe266     1.0  0.85686  0.70542  0.48634  1.0000
  S   S533      1.0  0.84752  0.67535  0.49119  1.0000
  S   S534      1.0  0.85791  0.72064  0.45781  1.0000
  Fe  Fe267     1.0  0.76162  0.57744  0.43717  1.0000
  S   S535      1.0  0.77690  0.54820  0.43560  1.0000
  S   S536      1.0  0.72990  0.58779  0.44136  1.0000
  Fe  Fe268     1.0  0.79872  0.59593  0.43921  1.0000
  S   S537      1.0  0.81679  0.56804  0.43730  1.0000
  S   S538      1.0  0.80698  0.62637  0.43854  1.0000
  Fe  Fe269     1.0  0.79852  0.56209  0.41491  1.0000
  S   S539      1.0  0.80994  0.54539  0.38941  1.0000
  Fe  Fe270     1.0  0.79427  0.55565  0.45796  1.0000
  S   S540      1.0  0.80424  0.53702  0.48361  1.0000
  S   S541      1.0  0.78195  0.59078  0.41524  1.0000
  S   S542      1.0  0.77751  0.58403  0.46111  1.0000
  H   H4166     1.0  0.81810  0.56658  0.50708  1.0000
  C   C2351     1.0  0.79555  0.51719  0.49741  1.0000
  C   C2352     1.0  0.77840  0.51023  0.49470  1.0000
  H   H4167     1.0  0.65229  0.55992  0.36199  1.0000
  H   H4168     1.0  0.70422  0.51056  0.53658  1.0000
  H   H4169     1.0  0.77042  0.51635  0.48325  1.0000
  C   C2353     1.0  0.54200  0.57939  0.35770  1.0000
  H   H4170     1.0  0.74411  0.53336  0.50399  1.0000
  H   H4171     1.0  0.90139  0.66945  0.39051  1.0000
  H   H4172     1.0  0.54445  0.73187  0.33427  1.0000
  C   C2354     1.0  0.94430  0.66107  0.58799  1.0000
  C   C2355     1.0  0.92572  0.68396  0.39336  1.0000
  C   C2356     1.0  0.67284  0.58109  0.34023  1.0000
  C   C2357     1.0  0.83587  0.66200  0.47658  1.0000
  C   C2358     1.0  0.82661  0.67040  0.46126  1.0000
  C   C2359     1.0  0.81772  0.65930  0.44999  1.0000
  C   C2360     1.0  0.81774  0.63964  0.45392  1.0000
  C   C2361     1.0  0.82682  0.63123  0.46937  1.0000
  C   C2362     1.0  0.83580  0.64235  0.48059  1.0000
  H   H4173     1.0  0.82617  0.68550  0.45820  1.0000
  H   H4174     1.0  0.81072  0.66604  0.43818  1.0000
  H   H4175     1.0  0.82707  0.61615  0.47258  1.0000
  H   H4176     1.0  0.84279  0.63566  0.49245  1.0000
  N   N132      1.0  0.65944  0.56899  0.33279  1.0000
  C   C2363     1.0  0.78248  0.56121  0.52635  1.0000
  C   C2364     1.0  0.82709  0.53617  0.35474  1.0000
  C   C2365     1.0  0.82166  0.55085  0.36673  1.0000
  C   C2366     1.0  0.82552  0.56920  0.36026  1.0000
  H   H4177     1.0  0.56630  0.70092  0.50945  1.0000
  C   C2367     1.0  0.92883  0.69259  0.63859  1.0000
  H   H4178     1.0  0.82419  0.52193  0.35957  1.0000
  H   H4179     1.0  0.82146  0.58064  0.36926  1.0000
  H   H4180     1.0  0.51813  0.72853  0.47517  1.0000
  H   H4181     1.0  0.55980  0.54659  0.37053  1.0000
  H   H4182     1.0  0.55786  0.59420  0.38584  1.0000
  C   C2368     1.0  0.90375  0.74532  0.54386  1.0000
  H   H4183     1.0  0.58248  0.52910  0.41391  1.0000
  H   H4184     1.0  0.59348  0.54598  0.39763  1.0000
  C   C2369     1.0  0.58169  0.53679  0.39988  1.0000
  C   C2370     1.0  0.54662  0.53965  0.46358  1.0000
  C   C2371     1.0  0.53281  0.55499  0.46160  1.0000
  C   C2372     1.0  0.53782  0.57213  0.45218  1.0000
  C   C2373     1.0  0.55660  0.57410  0.44451  1.0000
  C   C2374     1.0  0.57036  0.55871  0.44628  1.0000
  C   C2375     1.0  0.56537  0.54160  0.45576  1.0000
  H   H4185     1.0  0.51835  0.55371  0.46757  1.0000
  H   H4186     1.0  0.52708  0.58396  0.45092  1.0000
  H   H4187     1.0  0.58487  0.56002  0.44050  1.0000
  H   H4188     1.0  0.57615  0.52983  0.45723  1.0000
  H   H4189     1.0  0.81555  0.57883  0.52842  1.0000
  C   C2376     1.0  0.59862  0.68834  0.40772  1.0000
  C   C2377     1.0  0.60530  0.70544  0.41130  1.0000
  C   C2378     1.0  0.59257  0.72157  0.41465  1.0000
  C   C2379     1.0  0.57301  0.72073  0.41454  1.0000
  C   C2380     1.0  0.56633  0.70379  0.41057  1.0000
  C   C2381     1.0  0.57906  0.68766  0.40712  1.0000
  H   H4190     1.0  0.62041  0.70612  0.41167  1.0000
  H   H4191     1.0  0.59788  0.73462  0.41735  1.0000
  H   H4192     1.0  0.55121  0.70302  0.41038  1.0000
  H   H4193     1.0  0.57374  0.67463  0.40434  1.0000
  C   C2382     1.0  0.67842  0.58324  0.40791  1.0000
  C   C2383     1.0  0.69546  0.57156  0.40431  1.0000
  C   C2384     1.0  0.71148  0.57293  0.41414  1.0000
  C   C2385     1.0  0.71059  0.58594  0.42780  1.0000
  C   C2386     1.0  0.69362  0.59772  0.43126  1.0000
  C   C2387     1.0  0.67768  0.59647  0.42132  1.0000
  H   H4194     1.0  0.69623  0.56127  0.39399  1.0000
  H   H4195     1.0  0.72439  0.56373  0.41135  1.0000
  H   H4196     1.0  0.69271  0.60777  0.44184  1.0000
  H   H4197     1.0  0.66470  0.60553  0.42428  1.0000
  C   C2388     1.0  0.73037  0.63631  0.39794  1.0000
  H   H4198     1.0  0.86745  0.68340  0.40037  1.0000
  H   H4199     1.0  0.72441  0.61588  0.36735  1.0000
  C   C2389     1.0  0.52842  0.60565  0.38642  1.0000
  C   C2390     1.0  0.70988  0.66640  0.42094  1.0000
  H   H4200     1.0  0.89957  0.71581  0.54611  1.0000
  H   H4201     1.0  0.61000  0.55400  0.36657  1.0000
  C   C2391     1.0  0.55979  0.55838  0.37966  1.0000
  H   H4202     1.0  0.75277  0.58834  0.52972  1.0000
  H   H4203     1.0  0.50991  0.57683  0.40818  1.0000
  H   H4204     1.0  0.83066  0.50043  0.57301  1.0000
  N   N133      1.0  0.94605  0.67824  0.63810  1.0000
  C   C2392     1.0  0.58742  0.66283  0.45229  1.0000
  H   H4205     1.0  0.96275  0.69891  0.62220  1.0000
  C   C2393     1.0  0.69192  0.52132  0.33107  1.0000
  H   H4206     1.0  0.70627  0.65281  0.42834  1.0000
  C   C2394     1.0  0.62078  0.54190  0.36392  1.0000
  H   H4207     1.0  0.68101  0.67293  0.41316  1.0000
  H   H4208     1.0  0.95489  0.64850  0.58894  1.0000
  N   N134      1.0  0.95288  0.73919  0.48934  1.0000
  H   H4209     1.0  0.73195  0.67405  0.39874  1.0000
  H   H4210     1.0  0.61324  0.52945  0.36198  1.0000
  C   C2395     1.0  0.69578  0.67248  0.40629  1.0000
  H   H4211     1.0  0.58268  0.72603  0.45540  1.0000
  H   H4212     1.0  0.80073  0.64561  0.39722  1.0000
  H   H4213     1.0  0.67943  0.57362  0.35257  1.0000
  H   H4214     1.0  0.91560  0.68578  0.63764  1.0000
  H   H4215     1.0  0.96485  0.69737  0.64644  1.0000
  H   H4216     1.0  0.52658  0.54738  0.38032  1.0000
  H   H4217     1.0  0.92980  0.70274  0.62605  1.0000
  H   H4218     1.0  0.61657  0.70571  0.47521  1.0000
  H   H4219     1.0  0.56615  0.73541  0.34375  1.0000
  C   C2396     1.0  0.95277  0.72314  0.52303  1.0000
  H   H4220     1.0  0.62906  0.53865  0.37632  1.0000
  C   C2397     1.0  0.68360  0.53990  0.33908  1.0000
  H   H4221     1.0  0.76498  0.62609  0.45966  1.0000
  H   H4222     1.0  0.92971  0.65648  0.59025  1.0000
  H   H4223     1.0  0.89631  0.69214  0.40049  1.0000
  C   C2398     1.0  0.72882  0.57388  0.54072  1.0000
  H   H4224     1.0  0.77733  0.65265  0.42399  1.0000
  H   H4225     1.0  0.79146  0.66675  0.38404  1.0000
  H   H4226     1.0  0.58883  0.71925  0.53453  1.0000
  Fe  Fe271     1.0  0.87699  0.73614  0.50291  1.0000
  H   H4227     1.0  0.72309  0.60311  0.54808  1.0000
  H   H4228     1.0  0.59545  0.57281  0.34097  1.0000
  C   C2399     1.0  0.72613  0.60754  0.38091  1.0000
  H   H4229     1.0  0.73834  0.67388  0.42159  1.0000
  H   H4230     1.0  0.74396  0.51435  0.56463  1.0000
  H   H4231     1.0  0.72829  0.64523  0.38468  1.0000
  H   H4232     1.0  0.95922  0.65538  0.65552  1.0000
  H   H4233     1.0  0.62475  0.54970  0.33472  1.0000
  H   H4234     1.0  0.99137  0.72662  0.56811  1.0000
  H   H4235     1.0  0.55138  0.53892  0.40352  1.0000
  N   N135      1.0  0.54218  0.57205  0.37803  1.0000
  H   H4236     1.0  0.54320  0.58439  0.40440  1.0000
  H   H4237     1.0  0.94618  0.66813  0.57366  1.0000
  H   H4238     1.0  0.83753  0.70182  0.42891  1.0000
  H   H4239     1.0  0.81537  0.59197  0.50588  1.0000
  C   C2400     1.0  0.52632  0.61838  0.40272  1.0000
  C   C2401     1.0  0.75633  0.55987  0.50679  1.0000
  H   H4240     1.0  0.53268  0.55346  0.34807  1.0000
  C   C2402     1.0  0.99612  0.74098  0.56761  1.0000
  C   C2403     1.0  0.73442  0.55366  0.48260  1.0000
  H   H4241     1.0  0.76718  0.52845  0.52829  1.0000
  H   H4242     1.0  0.58236  0.69284  0.44594  1.0000
  H   H4243     1.0  0.78288  0.59211  0.52136  1.0000
  C   C2404     1.0  0.83453  0.57278  0.34205  1.0000
  H   H4244     1.0  0.54223  0.74754  0.37286  1.0000
  H   H4245     1.0  0.72236  0.57721  0.52726  1.0000
  C   C2405     1.0  0.54987  0.71468  0.35947  1.0000
  C   C2406     1.0  0.81091  0.57905  0.51410  1.0000
  C   C2407     1.0  0.75921  0.51632  0.56512  1.0000
  H   H4246     1.0  0.57305  0.67799  0.48688  1.0000
  C   C2408     1.0  0.59638  0.70442  0.50905  1.0000
  H   H4247     1.0  0.85165  0.63861  0.33616  1.0000
  H   H4248     1.0  0.85623  0.71348  0.41503  1.0000
  H   H4249     1.0  0.98262  0.66508  0.62233  1.0000
  C   C2409     1.0  0.94471  0.66551  0.62265  1.0000
  H   H4250     1.0  0.71588  0.63416  0.40468  1.0000
  H   H4251     1.0  0.55716  0.55714  0.34100  1.0000
  H   H4252     1.0  0.93061  0.65975  0.62431  1.0000
  C   C2410     1.0  0.75854  0.53948  0.53638  1.0000
  H   H4253     1.0  0.71190  0.60667  0.38874  1.0000
  H   H4254     1.0  0.92551  0.69100  0.37900  1.0000
  C   C2411     1.0  0.90596  0.72682  0.55197  1.0000
  H   H4255     1.0  0.93205  0.72980  0.47308  1.0000
  H   H4256     1.0  0.95520  0.65283  0.62369  1.0000
  H   H4257     1.0  0.72914  0.56883  0.48063  1.0000
  C   C2412     1.0  0.74344  0.64544  0.44681  1.0000
  C   C2413     1.0  0.94021  0.72466  0.48520  1.0000
  H   H4258     1.0  0.53232  0.74177  0.45739  1.0000
  H   H4259     1.0  0.97645  0.72209  0.50149  1.0000
  C   C2414     1.0  0.55576  0.71308  0.47603  1.0000
  C   C2415     1.0  0.83611  0.53975  0.33654  1.0000
  S   S543      1.0  0.55636  0.74034  0.41960  1.0000
  C   C2416     1.0  0.51650  0.56253  0.40501  1.0000
  H   H4260     1.0  0.75295  0.61750  0.38351  1.0000
  H   H4261     1.0  0.59635  0.68273  0.47845  1.0000
  C   C2417     1.0  0.85896  0.68287  0.41412  1.0000
  S   S544      1.0  0.50074  0.51154  0.51945  1.0000
  C   C2418     1.0  0.52433  0.56235  0.38397  1.0000
  H   H4262     1.0  0.74193  0.60703  0.40499  1.0000
  C   C2419     1.0  0.62162  0.72938  0.45575  1.0000
  H   H4263     1.0  0.58322  0.65176  0.46325  1.0000
  H   H4264     1.0  0.77883  0.53701  0.55805  1.0000
  H   H4265     1.0  0.76866  0.55425  0.49735  1.0000
  C   C2420     1.0  0.75004  0.63204  0.46307  1.0000
  C   C2421     1.0  0.73106  0.66567  0.41255  1.0000
  C   C2422     1.0  0.71993  0.58877  0.55393  1.0000
  H   H4266     1.0  0.70424  0.58842  0.55572  1.0000
  Fe  Fe272     1.0  0.51285  0.50890  0.48930  1.0000
  C   C2423     1.0  0.66374  0.60038  0.34682  1.0000
  H   H4267     1.0  0.51566  0.63057  0.40002  1.0000
  N   N136      1.0  0.76152  0.55874  0.52683  1.0000
  H   H4268     1.0  0.58339  0.65898  0.43867  1.0000
  C   C2424     1.0  0.78930  0.57908  0.51490  1.0000
  Fe  Fe273     1.0  0.97587  0.74029  0.64830  1.0000
  H   H4269     1.0  0.86616  0.50465  0.61043  1.0000
  H   H4270     1.0  0.72298  0.54513  0.47969  1.0000
  C   C2425     1.0  0.54370  0.58868  0.38926  1.0000
  H   H4271     1.0  0.96228  0.70049  0.48919  1.0000
  H   H4272     1.0  0.80270  0.66848  0.40514  1.0000
  H   H4273     1.0  0.78561  0.57988  0.50025  1.0000
  H   H4274     1.0  0.93080  0.68788  0.49691  1.0000
  C   C2426     1.0  0.73974  0.54876  0.50261  1.0000
  H   H4275     1.0  0.76812  0.67417  0.41147  1.0000
  H   H4276     1.0  0.74363  0.53622  0.53638  1.0000
  H   H4277     1.0  0.54207  0.73108  0.49788  1.0000
  H   H4278     1.0  0.72490  0.55999  0.54704  1.0000
  H   H4279     1.0  0.52902  0.58924  0.35567  1.0000
  H   H4280     1.0  0.72681  0.55154  0.51226  1.0000
  C   C2427     1.0  0.80578  0.50885  0.51231  1.0000
  H   H4281     1.0  0.75500  0.54640  0.56596  1.0000
  H   H4282     1.0  0.78671  0.56193  0.54072  1.0000
  S   S545      1.0  0.91306  0.71732  0.44149  1.0000
  C   C2428     1.0  0.92458  0.73674  0.57586  1.0000
  H   H4283     1.0  0.60312  0.66313  0.45109  1.0000
  S   S546      1.0  0.93733  0.73053  0.59601  1.0000
  H   H4284     1.0  0.69575  0.54744  0.34207  1.0000
  H   H4285     1.0  0.75319  0.57487  0.50148  1.0000
  C   C2429     1.0  0.96371  0.68858  0.63463  1.0000
  C   C2430     1.0  0.75062  0.57444  0.53738  1.0000
  N   N137      1.0  0.74125  0.64620  0.41061  1.0000
  C   C2431     1.0  0.58869  0.72104  0.46889  1.0000
  H   H4286     1.0  0.56193  0.68161  0.45607  1.0000
  H   H4287     1.0  0.72947  0.62674  0.43240  1.0000
  H   H4288     1.0  0.93054  0.69392  0.40256  1.0000
  H   H4289     1.0  0.91770  0.70828  0.57412  1.0000
  H   H4290     1.0  0.90996  0.72852  0.64127  1.0000
  H   H4291     1.0  0.83788  0.70442  0.40378  1.0000
  C   C2432     1.0  0.84695  0.70181  0.41562  1.0000
  H   H4292     1.0  0.69811  0.68681  0.39979  1.0000
  H   H4293     1.0  0.55427  0.58790  0.35344  1.0000
  H   H4294     1.0  0.72542  0.58592  0.56793  1.0000
  H   H4295     1.0  0.99723  0.69456  0.61131  1.0000
  C   C2433     1.0  0.96109  0.73721  0.41503  1.0000
  H   H4296     1.0  0.87483  0.51013  0.33799  1.0000
  H   H4297     1.0  0.74690  0.55061  0.47230  1.0000
  H   H4298     1.0  0.95035  0.71021  0.42256  1.0000
  H   H4299     1.0  0.70101  0.51310  0.34120  1.0000
  C   C2434     1.0  0.98287  0.67591  0.63242  1.0000
  H   H4300     1.0  0.94493  0.67631  0.47810  1.0000
  C   C2435     1.0  0.91626  0.72260  0.56788  1.0000
  N   N138      1.0  0.88702  0.66214  0.42908  1.0000
  C   C2436     1.0  0.88212  0.64688  0.41757  1.0000
  C   C2437     1.0  0.90557  0.66915  0.42064  1.0000
  C   C2438     1.0  0.89014  0.65313  0.44846  1.0000
  C   C2439     1.0  0.87157  0.67838  0.43074  1.0000
  C   C2440     1.0  0.55093  0.73329  0.34747  1.0000
  C   C2441     1.0  0.86542  0.63565  0.42635  1.0000
  C   C2442     1.0  0.89729  0.66581  0.46223  1.0000
  C   C2443     1.0  0.90579  0.67875  0.40053  1.0000
  C   C2444     1.0  0.79342  0.66008  0.39831  1.0000
  H   H4301     1.0  0.50079  0.74562  0.56219  1.0000
  C   C2445     1.0  0.85730  0.62519  0.41175  1.0000
  C   C2446     1.0  0.89779  0.65576  0.48184  1.0000
  H   H4302     1.0  0.89470  0.63634  0.41514  1.0000
  H   H4303     1.0  0.87888  0.65260  0.40332  1.0000
  H   H4304     1.0  0.90986  0.68002  0.42913  1.0000
  H   H4305     1.0  0.91719  0.65737  0.42081  1.0000
  H   H4306     1.0  0.90044  0.64025  0.44752  1.0000
  H   H4307     1.0  0.87661  0.64833  0.45555  1.0000
  H   H4308     1.0  0.86153  0.67596  0.44341  1.0000
  H   H4309     1.0  0.87790  0.69150  0.43317  1.0000
  H   H4310     1.0  0.65780  0.60955  0.33517  1.0000
  C   C2447     1.0  0.50126  0.54888  0.40990  1.0000
  H   H4311     1.0  0.87047  0.62496  0.43734  1.0000
  H   H4312     1.0  0.85376  0.64506  0.43306  1.0000
  H   H4313     1.0  0.88786  0.67916  0.46326  1.0000
  H   H4314     1.0  0.91201  0.66917  0.45767  1.0000
  H   H4315     1.0  0.52232  0.50368  0.57341  1.0000
  H   H4316     1.0  0.51430  0.60089  0.38499  1.0000
  H   H4317     1.0  0.93605  0.67116  0.39283  1.0000
  H   H4318     1.0  0.60260  0.69006  0.50577  1.0000
  H   H4319     1.0  0.53266  0.61433  0.37341  1.0000
  H   H4320     1.0  0.92555  0.69360  0.47288  1.0000
  C   C2448     1.0  0.77426  0.65939  0.41006  1.0000
  H   H4321     1.0  0.97430  0.73124  0.40804  1.0000
  H   H4322     1.0  0.86862  0.61566  0.40460  1.0000
  H   H4323     1.0  0.84617  0.61650  0.41877  1.0000
  H   H4324     1.0  0.85065  0.63536  0.40121  1.0000
  H   H4325     1.0  0.88349  0.65168  0.48731  1.0000
  H   H4326     1.0  0.90804  0.64291  0.48155  1.0000
  H   H4327     1.0  0.90227  0.66535  0.49159  1.0000
  N   N139      1.0  0.57611  0.70774  0.48050  1.0000
  C   C2449     1.0  0.57742  0.68215  0.45683  1.0000
  H   H4328     1.0  0.60636  0.71487  0.50331  1.0000
  H   H4329     1.0  0.61529  0.73765  0.44376  1.0000
  C   C2450     1.0  0.54255  0.56429  0.34326  1.0000
  H   H4330     1.0  0.75995  0.65397  0.38618  1.0000
  C   C2451     1.0  0.76349  0.53606  0.55701  1.0000
  C   C2452     1.0  0.94746  0.72531  0.42325  1.0000
  H   H4331     1.0  0.57273  0.56564  0.37465  1.0000
  H   H4332     1.0  0.74079  0.62032  0.46600  1.0000
  H   H4333     1.0  0.95701  0.70630  0.46539  1.0000
  S   S547      1.0  0.98294  0.73607  0.61756  1.0000
  H   H4334     1.0  0.55482  0.71347  0.46060  1.0000
  H   H4335     1.0  0.97594  0.72984  0.46919  1.0000
  H   H4336     1.0  0.67515  0.53651  0.35254  1.0000
  H   H4337     1.0  0.58346  0.52630  0.38912  1.0000
  C   C2453     1.0  0.76096  0.64782  0.40085  1.0000
  H   H4338     1.0  0.93655  0.68728  0.60049  1.0000
  C   C2454     1.0  0.58122  0.68730  0.47654  1.0000
  C   C2455     1.0  0.59457  0.70496  0.53038  1.0000
  H   H4339     1.0  0.68482  0.58389  0.32943  1.0000
  H   H4340     1.0  0.70747  0.67693  0.43172  1.0000
  H   H4341     1.0  0.72918  0.65232  0.45144  1.0000
  C   C2456     1.0  0.74225  0.63463  0.42914  1.0000
  H   H4342     1.0  0.76888  0.63359  0.39984  1.0000
  C   C2457     1.0  0.54642  0.73238  0.48257  1.0000
  H   H4343     1.0  0.69711  0.66245  0.39516  1.0000
  C   C2458     1.0  0.63389  0.54646  0.34632  1.0000
  H   H4344     1.0  0.69007  0.61409  0.34393  1.0000
  H   H4345     1.0  0.60882  0.70156  0.53564  1.0000
  C   C2459     1.0  0.94711  0.67486  0.60238  1.0000
  H   H4346     1.0  0.74949  0.63984  0.47587  1.0000
  H   H4347     1.0  0.75441  0.62343  0.42821  1.0000
  C   C2460     1.0  0.56252  0.54865  0.39937  1.0000
  H   H4348     1.0  0.54009  0.62382  0.40437  1.0000
  H   H4349     1.0  0.75324  0.65660  0.44438  1.0000
  H   H4350     1.0  0.73229  0.59301  0.37802  1.0000
  H   H4351     1.0  0.75635  0.57516  0.55113  1.0000
  H   H4352     1.0  0.94916  0.70900  0.52008  1.0000
  H   H4353     1.0  0.96156  0.67954  0.59901  1.0000
  H   H4354     1.0  0.54646  0.70215  0.48237  1.0000
  H   H4355     1.0  0.51236  0.56880  0.37592  1.0000
  H   H4356     1.0  0.68432  0.60264  0.36695  1.0000
  H   H4357     1.0  0.53483  0.71191  0.36342  1.0000
  C   C2461     1.0  0.93711  0.68985  0.48218  1.0000
  H   H4358     1.0  0.84900  0.67190  0.41405  1.0000
  C   C2462     1.0  0.95068  0.70526  0.48019  1.0000
  H   H4359     1.0  0.93936  0.73187  0.52683  1.0000
  C   C2463     1.0  0.96408  0.72067  0.54019  1.0000
  H   H4360     1.0  0.63620  0.72345  0.45086  1.0000
  H   H4361     1.0  0.52151  0.61047  0.41602  1.0000
  C   C2464     1.0  0.57684  0.70961  0.50119  1.0000
  H   H4362     1.0  0.97825  0.71285  0.53699  1.0000
  C   C2465     1.0  0.64517  0.56337  0.34883  1.0000
  H   H4363     1.0  0.65214  0.59819  0.35797  1.0000
  H   H4364     1.0  0.58508  0.69443  0.53707  1.0000
  H   H4365     1.0  0.57264  0.72443  0.50473  1.0000
  H   H4366     1.0  0.89954  0.55874  0.33870  1.0000
  H   H4367     1.0  0.52768  0.55865  0.41469  1.0000
  C   C2466     1.0  0.60963  0.71336  0.46333  1.0000
  H   H4368     1.0  0.55715  0.71506  0.37239  1.0000
  H   H4369     1.0  0.63448  0.57550  0.35209  1.0000
  H   H4370     1.0  0.58893  0.73412  0.47624  1.0000
  C   C2467     1.0  0.93008  0.73283  0.43210  1.0000
  H   H4371     1.0  0.95619  0.71265  0.55181  1.0000
  H   H4372     1.0  0.72097  0.50800  0.51617  1.0000
  H   H4373     1.0  0.81908  0.51406  0.51455  1.0000
  H   H4374     1.0  0.83730  0.58702  0.33720  1.0000
  C   C2468     1.0  0.92553  0.70462  0.65580  1.0000
  H   H4375     1.0  0.62269  0.73903  0.46688  1.0000
  H   H4376     1.0  0.50738  0.53414  0.40790  1.0000
  C   C2469     1.0  0.52861  0.73917  0.47270  1.0000
  C   C2470     1.0  0.83981  0.55812  0.33003  1.0000
  C   C2471     1.0  0.96419  0.73235  0.50574  1.0000
  H   H4377     1.0  0.76259  0.51425  0.57995  1.0000
  H   H4378     1.0  0.76808  0.50540  0.55715  1.0000
  H   H4379     1.0  0.92905  0.72255  0.49703  1.0000
  C   C2472     1.0  0.67834  0.61102  0.35481  1.0000
  H   H4380     1.0  0.96580  0.73470  0.54502  1.0000
  H   H4381     1.0  0.55710  0.70287  0.35148  1.0000
  H   H4382     1.0  0.92820  0.64439  0.65336  1.0000
  H   H4383     1.0  0.67131  0.62458  0.35977  1.0000
  H   H4384     1.0  0.98611  0.66869  0.64618  1.0000
  H   H4385     1.0  0.80174  0.49886  0.59504  1.0000
  C   C2473     1.0  0.94690  0.66637  0.65640  1.0000
  C   C2474     1.0  0.90815  0.71904  0.65426  1.0000
  H   H4386     1.0  0.89507  0.71181  0.65411  1.0000
  H   H4387     1.0  0.93796  0.71247  0.65676  1.0000
  C   C2475     1.0  0.96648  0.74287  0.47224  1.0000
  H   H4388     1.0  0.86427  0.50687  0.64509  1.0000
  C   C2476     1.0  0.89540  0.49891  0.55280  1.0000
  C   C2477     1.0  0.70927  0.50145  0.52494  1.0000
  H   H4389     1.0  0.97082  0.74428  0.51066  1.0000
  Fe  Fe274     1.0  0.84873  0.74695  0.47306  1.0000
  H   H4390     1.0  0.55638  0.74340  0.47985  1.0000
  H   H4391     1.0  0.69746  0.50065  0.51608  1.0000
  H   H4392     1.0  0.86338  0.50660  0.57752  1.0000
  H   H4393     1.0  0.95864  0.74622  0.45951  1.0000
  H   H4394     1.0  0.88996  0.51409  0.55198  1.0000
  H   H4395     1.0  0.68037  0.51271  0.32861  1.0000
  H   H4396     1.0  0.84004  0.52832  0.32752  1.0000
  C   C2478     1.0  0.59083  0.57847  0.32762  1.0000
  H   H4397     1.0  0.94137  0.63568  0.93511  1.0000
  H   H4398     1.0  0.96898  0.65648  0.95500  1.0000
  S   S548      1.0  0.88593  0.52581  0.72672  1.0000
  C   C2479     1.0  0.98955  0.71978  0.98305  1.0000
  C   C2480     1.0  0.97516  0.64779  0.96669  1.0000
  H   H4399     1.0  0.99177  0.56404  0.77231  1.0000
  S   S549      1.0  0.66628  0.72716  0.96857  1.0000
  Fe  Fe275     1.0  0.95366  0.63182  0.79409  1.0000
  S   S550      1.0  0.97784  0.64026  0.77344  1.0000
  S   S551      1.0  0.93800  0.65052  0.81658  1.0000
  Fe  Fe276     1.0  0.94822  0.59700  0.77179  1.0000
  S   S552      1.0  0.97162  0.60375  0.74940  1.0000
  S   S553      1.0  0.93400  0.56940  0.77664  1.0000
  H   H4400     1.0  0.77796  0.53523  0.94784  1.0000
  Fe  Fe277     1.0  0.95971  0.63446  0.75091  1.0000
  S   S554      1.0  0.94912  0.65662  0.72823  1.0000
  S   S555      1.0  0.96495  0.60124  0.79584  1.0000
  S   S556      1.0  0.93510  0.62699  0.77162  1.0000
  Fe  Fe278     1.0  0.73419  0.62887  0.96693  1.0000
  S   S557      1.0  0.75461  0.62804  0.94087  1.0000
  S   S558      1.0  0.70321  0.64147  0.96584  1.0000
  S   S559      1.0  0.78480  0.60245  0.96600  1.0000
  Fe  Fe279     1.0  0.77705  0.63334  0.95945  1.0000
  S   S560      1.0  0.79696  0.65639  0.94965  1.0000
  Fe  Fe280     1.0  0.76087  0.59710  0.94945  1.0000
  S   S561      1.0  0.76738  0.57410  0.92876  1.0000
  S   S562      1.0  0.73911  0.59731  0.97433  1.0000
  Fe  Fe281     1.0  0.90476  0.68825  0.94417  1.0000
  S   S563      1.0  0.93603  0.67864  0.94391  1.0000
  S   S564      1.0  0.88573  0.66419  0.95301  1.0000
  Fe  Fe282     1.0  0.91387  0.72843  0.93022  1.0000
  S   S565      1.0  0.94575  0.72119  0.92876  1.0000
  Fe  Fe283     1.0  0.93961  0.69479  0.91584  1.0000
  S   S566      1.0  0.95919  0.67965  0.89320  1.0000
  Fe  Fe284     1.0  0.94003  0.70531  0.95700  1.0000
  H   H4401     1.0  0.90282  0.61374  0.87081  1.0000
  S   S567      1.0  0.90830  0.70309  0.91537  1.0000
  S   S568      1.0  0.90832  0.71395  0.95917  1.0000
  H   H4402     1.0  0.89873  0.56279  0.72202  1.0000
  H   H4403     1.0  0.78935  0.50254  0.78595  1.0000
  H   H4404     1.0  0.59843  0.51290  0.78894  1.0000
  S   S569      1.0  0.71153  0.52178  0.89815  1.0000
  H   H4405     1.0  0.91497  0.69387  0.79108  1.0000
  H   H4406     1.0  0.50874  0.59721  0.79233  1.0000
  H   H4407     1.0  0.89299  0.67708  0.77506  1.0000
  C   C2481     1.0  0.50610  0.54678  0.86338  1.0000
  H   H4408     1.0  0.78634  0.53297  0.80144  1.0000
  C   C2482     1.0  0.95883  0.64421  0.98169  1.0000
  C   C2483     1.0  0.75183  0.55892  0.92128  1.0000
  C   C2484     1.0  0.75821  0.54800  0.90609  1.0000
  C   C2485     1.0  0.74614  0.53635  0.89910  1.0000
  C   C2486     1.0  0.72751  0.53545  0.90727  1.0000
  C   C2487     1.0  0.72125  0.54600  0.92280  1.0000
  C   C2488     1.0  0.73341  0.55757  0.92988  1.0000
  H   H4409     1.0  0.77248  0.54885  0.89941  1.0000
  H   H4410     1.0  0.75113  0.52845  0.88707  1.0000
  H   H4411     1.0  0.70693  0.54522  0.92936  1.0000
  H   H4412     1.0  0.72860  0.56548  0.94193  1.0000
  C   C2489     1.0  0.82176  0.65808  0.95051  1.0000
  C   C2490     1.0  0.83448  0.64251  0.95529  1.0000
  C   C2491     1.0  0.85393  0.64469  0.95603  1.0000
  C   C2492     1.0  0.86104  0.66237  0.95170  1.0000
  C   C2493     1.0  0.84840  0.67788  0.94666  1.0000
  C   C2494     1.0  0.82892  0.67573  0.94607  1.0000
  H   H4413     1.0  0.85356  0.69161  0.94345  1.0000
  H   H4414     1.0  0.81927  0.68788  0.94226  1.0000
  C   C2495     1.0  0.94436  0.65838  0.83780  1.0000
  C   C2496     1.0  0.96204  0.65297  0.84465  1.0000
  C   C2497     1.0  0.96632  0.65962  0.86157  1.0000
  C   C2498     1.0  0.95303  0.67174  0.87190  1.0000
  C   C2499     1.0  0.93541  0.67729  0.86494  1.0000
  C   C2500     1.0  0.93110  0.67059  0.84807  1.0000
  H   H4415     1.0  0.97241  0.64362  0.83695  1.0000
  H   H4416     1.0  0.98003  0.65530  0.86672  1.0000
  H   H4417     1.0  0.92522  0.68693  0.87247  1.0000
  H   H4418     1.0  0.91746  0.67504  0.84283  1.0000
  C   C2501     1.0  0.67609  0.70317  0.96796  1.0000
  C   C2502     1.0  0.66481  0.68824  0.96795  1.0000
  C   C2503     1.0  0.67335  0.66948  0.96753  1.0000
  C   C2504     1.0  0.69324  0.66537  0.96701  1.0000
  C   C2505     1.0  0.70452  0.68030  0.96698  1.0000
  C   C2506     1.0  0.69598  0.69905  0.96746  1.0000
  H   H4419     1.0  0.97374  0.55909  0.75800  1.0000
  H   H4420     1.0  0.62843  0.50315  0.77084  1.0000
  H   H4421     1.0  0.73313  0.50014  0.80791  1.0000
  H   H4422     1.0  0.64951  0.69114  0.96837  1.0000
  C   C2507     1.0  0.98042  0.68858  0.75303  1.0000
  H   H4423     1.0  0.81285  0.62991  0.98916  1.0000
  C   C2508     1.0  0.77096  0.50842  0.96209  1.0000
  H   H4424     1.0  0.51677  0.72116  0.91363  1.0000
  C   C2509     1.0  0.97653  0.70082  0.68628  1.0000
  C   C2510     1.0  0.98790  0.68547  0.69425  1.0000
  C   C2511     1.0  0.97988  0.67203  0.70739  1.0000
  C   C2512     1.0  0.96031  0.67375  0.71271  1.0000
  C   C2513     1.0  0.94898  0.68926  0.70498  1.0000
  C   C2514     1.0  0.95704  0.70280  0.69200  1.0000
  H   H4425     1.0  0.94339  0.68297  0.75740  1.0000
  C   C2515     1.0  0.97690  0.70803  0.99313  1.0000
  H   H4426     1.0  0.93384  0.69081  0.70906  1.0000
  H   H4427     1.0  0.94821  0.71484  0.68653  1.0000
  H   H4428     1.0  0.71466  0.50585  0.94506  1.0000
  H   H4429     1.0  0.75345  0.51535  0.93868  1.0000
  C   C2516     1.0  0.90065  0.53709  0.74000  1.0000
  C   C2517     1.0  0.90796  0.52827  0.75621  1.0000
  C   C2518     1.0  0.91842  0.53829  0.76705  1.0000
  C   C2519     1.0  0.92199  0.55709  0.76165  1.0000
  C   C2520     1.0  0.91508  0.56574  0.74519  1.0000
  C   C2521     1.0  0.90434  0.55583  0.73453  1.0000
  H   H4430     1.0  0.90533  0.51385  0.76054  1.0000
  H   H4431     1.0  0.92372  0.53148  0.77976  1.0000
  H   H4432     1.0  0.91763  0.58020  0.74092  1.0000
  H   H4433     1.0  0.67509  0.72750  0.92478  1.0000
  H   H4434     1.0  0.86836  0.65232  0.99246  1.0000
  H   H4435     1.0  0.94047  0.61858  0.91822  1.0000
  H   H4436     1.0  0.50068  0.72103  0.79459  1.0000
  H   H4437     1.0  0.94385  0.69088  0.80579  1.0000
  C   C2522     1.0  0.68347  0.59361  0.97150  1.0000
  H   H4438     1.0  0.87115  0.60602  0.93557  1.0000
  H   H4439     1.0  0.91264  0.66819  0.75925  1.0000
  H   H4440     1.0  0.68921  0.50069  0.77858  1.0000
  H   H4441     1.0  0.86357  0.63256  0.95991  1.0000
  H   H4442     1.0  0.87495  0.70276  0.88579  1.0000
  H   H4443     1.0  0.97887  0.54346  0.77816  1.0000
  C   C2523     1.0  0.67858  0.60317  0.95253  1.0000
  N   N140      1.0  0.69234  0.60789  0.91774  1.0000
  C   C2524     1.0  0.67548  0.60006  0.91100  1.0000
  C   C2525     1.0  0.69000  0.62931  0.91603  1.0000
  C   C2526     1.0  0.70969  0.60147  0.90503  1.0000
  C   C2527     1.0  0.69569  0.60054  0.93754  1.0000
  H   H4444     1.0  0.50292  0.54596  0.87885  1.0000
  C   C2528     1.0  0.67627  0.57820  0.91151  1.0000
  C   C2529     1.0  0.72860  0.60888  0.90887  1.0000
  H   H4445     1.0  0.99273  0.53025  0.74824  1.0000
  H   H4446     1.0  0.94971  0.67505  0.66779  1.0000
  C   C2530     1.0  0.54081  0.72623  0.92822  1.0000
  C   C2531     1.0  0.65766  0.57203  0.90622  1.0000
  C   C2532     1.0  0.74432  0.60427  0.89332  1.0000
  H   H4447     1.0  0.67366  0.60568  0.89628  1.0000
  H   H4448     1.0  0.66207  0.60494  0.91923  1.0000
  H   H4449     1.0  0.69853  0.63499  0.92611  1.0000
  H   H4450     1.0  0.69587  0.63481  0.90190  1.0000
  H   H4451     1.0  0.70719  0.60553  0.89009  1.0000
  H   H4452     1.0  0.71256  0.58585  0.90615  1.0000
  H   H4453     1.0  0.70082  0.58531  0.93801  1.0000
  H   H4454     1.0  0.70739  0.60748  0.94254  1.0000
  H   H4455     1.0  0.94802  0.71476  0.74995  1.0000
  H   H4456     1.0  0.98851  0.71521  0.92726  1.0000
  H   H4457     1.0  0.68776  0.57237  0.90134  1.0000
  H   H4458     1.0  0.67864  0.57159  0.92569  1.0000
  H   H4459     1.0  0.73337  0.60202  0.92223  1.0000
  H   H4460     1.0  0.72715  0.62438  0.90984  1.0000
  H   H4461     1.0  0.72015  0.50776  0.78809  1.0000
  H   H4462     1.0  0.87152  0.58678  0.92079  1.0000
  H   H4463     1.0  0.74103  0.50906  0.96031  1.0000
  H   H4464     1.0  0.66598  0.59694  0.94872  1.0000
  H   H4465     1.0  0.76844  0.50261  0.97685  1.0000
  C   C2533     1.0  0.95633  0.71611  0.82792  1.0000
  H   H4466     1.0  0.94559  0.72854  0.82687  1.0000
  H   H4467     1.0  0.98384  0.66870  0.98357  1.0000
  H   H4468     1.0  0.64561  0.57664  0.91643  1.0000
  H   H4469     1.0  0.65473  0.57801  0.89192  1.0000
  H   H4470     1.0  0.65880  0.55638  0.90634  1.0000
  H   H4471     1.0  0.75795  0.60862  0.89706  1.0000
  H   H4472     1.0  0.74628  0.58887  0.89157  1.0000
  H   H4473     1.0  0.74085  0.61194  0.87984  1.0000
  H   H4474     1.0  0.97705  0.70074  0.74291  1.0000
  H   H4475     1.0  0.98879  0.66018  0.71314  1.0000
  H   H4476     1.0  0.94795  0.63705  0.97564  1.0000
  H   H4477     1.0  0.98117  0.63392  0.96170  1.0000
  H   H4478     1.0  0.65598  0.74028  0.91296  1.0000
  Fe  Fe285     1.0  0.63572  0.74148  0.96860  1.0000
  C   C2534     1.0  0.94093  0.68563  0.77250  1.0000
  H   H4479     1.0  0.97515  0.69815  0.81042  1.0000
  H   H4480     1.0  0.66129  0.63652  0.90689  1.0000
  Fe  Fe286     1.0  0.98793  0.60909  0.77349  1.0000
  C   C2535     1.0  0.94792  0.71823  0.76479  1.0000
  S   S570      1.0  0.98746  0.71700  0.66942  1.0000
  H   H4481     1.0  0.67598  0.66642  0.90430  1.0000
  H   H4482     1.0  0.69551  0.59993  0.97649  1.0000
  H   H4483     1.0  0.94816  0.64163  0.91068  1.0000
  H   H4484     1.0  0.92306  0.69575  0.66905  1.0000
  H   H4485     1.0  0.97646  0.67997  0.78270  1.0000
  H   H4486     1.0  0.50714  0.53228  0.85860  1.0000
  H   H4487     1.0  0.94393  0.63682  0.68352  1.0000
  H   H4488     1.0  0.85386  0.60672  0.91859  1.0000
  H   H4489     1.0  0.91834  0.63770  0.68657  1.0000
  H   H4490     1.0  0.70487  0.71044  0.96750  1.0000
  H   H4491     1.0  0.66171  0.63460  0.93189  1.0000
  C   C2536     1.0  0.91905  0.69009  0.77647  1.0000
  H   H4492     1.0  0.54174  0.71238  0.93560  1.0000
  H   H4493     1.0  0.67841  0.66449  0.92916  1.0000
  H   H4494     1.0  0.89802  0.64003  0.83506  1.0000
  H   H4495     1.0  0.90767  0.61571  0.83618  1.0000
  H   H4496     1.0  0.91378  0.70193  0.76676  1.0000
  S   S571      1.0  0.75604  0.63609  0.98516  1.0000
  S   S572      1.0  0.60738  0.73406  0.98293  1.0000
  N   N141      1.0  0.84426  0.53646  0.78405  1.0000
  C   C2537     1.0  0.84914  0.55626  0.78589  1.0000
  C   C2538     1.0  0.82658  0.53236  0.79677  1.0000
  C   C2539     1.0  0.86065  0.52303  0.79040  1.0000
  C   C2540     1.0  0.84194  0.53291  0.76404  1.0000
  C   C2541     1.0  0.82752  0.54672  0.75374  1.0000
  C   C2542     1.0  0.86745  0.56213  0.77418  1.0000
  H   H4497     1.0  0.76543  0.49988  0.90850  1.0000
  C   C2543     1.0  0.81102  0.54900  0.80018  1.0000
  C   C2544     1.0  0.79282  0.54202  0.81036  1.0000
  C   C2545     1.0  0.82838  0.54278  0.73307  1.0000
  C   C2546     1.0  0.86995  0.58288  0.77590  1.0000
  H   H4498     1.0  0.77227  0.68447  0.98986  1.0000
  H   H4499     1.0  0.85080  0.55818  0.80086  1.0000
  H   H4500     1.0  0.83742  0.56692  0.78202  1.0000
  H   H4501     1.0  0.81976  0.52070  0.79161  1.0000
  H   H4502     1.0  0.83041  0.52710  0.81109  1.0000
  H   H4503     1.0  0.86421  0.52649  0.80441  1.0000
  H   H4504     1.0  0.87370  0.52458  0.78068  1.0000
  H   H4505     1.0  0.85590  0.53263  0.75548  1.0000
  H   H4506     1.0  0.83729  0.51864  0.76332  1.0000
  H   H4507     1.0  0.83044  0.56160  0.75420  1.0000
  H   H4508     1.0  0.81285  0.54485  0.75996  1.0000
  H   H4509     1.0  0.88027  0.55383  0.77924  1.0000
  H   H4510     1.0  0.86702  0.56013  0.75910  1.0000
  H   H4511     1.0  0.93306  0.72415  0.76870  1.0000
  H   H4512     1.0  0.50587  0.58725  0.82552  1.0000
  H   H4513     1.0  0.81616  0.55899  0.80915  1.0000
  H   H4514     1.0  0.80727  0.55697  0.78700  1.0000
  H   H4515     1.0  0.79061  0.65375  0.98886  1.0000
  H   H4516     1.0  0.79582  0.53380  0.82373  1.0000
  H   H4517     1.0  0.78233  0.55424  0.81362  1.0000
  H   H4518     1.0  0.82474  0.52825  0.73164  1.0000
  H   H4519     1.0  0.81803  0.55291  0.72589  1.0000
  H   H4520     1.0  0.84284  0.54440  0.72599  1.0000
  H   H4521     1.0  0.87088  0.58558  0.79076  1.0000
  H   H4522     1.0  0.88336  0.58652  0.76770  1.0000
  H   H4523     1.0  0.85793  0.59214  0.77030  1.0000
  C   C2547     1.0  0.90858  0.67312  0.77350  1.0000
  S   S573      1.0  0.57142  0.73191  0.94701  1.0000
  H   H4524     1.0  0.97572  0.73010  0.76236  1.0000
  H   H4525     1.0  0.97373  0.67632  0.74917  1.0000
  H   H4526     1.0  0.91196  0.66142  0.78416  1.0000
  H   H4527     1.0  0.82934  0.62877  0.95823  1.0000
  H   H4528     1.0  0.71982  0.67741  0.96656  1.0000
  H   H4529     1.0  0.96813  0.71990  0.83548  1.0000
  C   C2548     1.0  0.96038  0.73466  0.76526  1.0000
  C   C2549     1.0  0.52663  0.73116  0.91577  1.0000
  C   C2550     1.0  0.94812  0.70403  0.79769  1.0000
  C   C2551     1.0  0.96408  0.71019  0.80845  1.0000
  H   H4530     1.0  0.95782  0.74072  0.77910  1.0000
  S   S574      1.0  0.95607  0.70170  0.98382  1.0000
  C   C2552     1.0  0.66951  0.63935  0.91855  1.0000
  N   N142      1.0  0.95290  0.70062  0.77711  1.0000
  C   C2553     1.0  0.66983  0.66075  0.91818  1.0000
  H   H4531     1.0  0.84006  0.58137  0.98845  1.0000
  H   H4532     1.0  0.67100  0.59571  0.98201  1.0000
  H   H4533     1.0  0.65511  0.66757  0.92086  1.0000
  H   H4534     1.0  0.86674  0.69839  0.91027  1.0000
  C   C2554     1.0  0.77295  0.52952  0.96212  1.0000
  H   H4535     1.0  0.98658  0.72587  0.96925  1.0000
  C   C2555     1.0  0.97353  0.69309  0.77350  1.0000
  C   C2556     1.0  0.55389  0.73899  0.93113  1.0000
  H   H4536     1.0  0.50468  0.51651  0.82240  1.0000
  H   H4537     1.0  0.68002  0.74026  0.90223  1.0000
  H   H4538     1.0  0.78472  0.50170  0.95601  1.0000
  H   H4539     1.0  0.88296  0.62168  0.84398  1.0000
  H   H4540     1.0  0.82495  0.59788  0.97497  1.0000
  H   H4541     1.0  0.67483  0.61834  0.95458  1.0000
  H   H4542     1.0  0.94516  0.67193  0.78029  1.0000
  H   H4543     1.0  0.85000  0.70130  0.89282  1.0000
  H   H4544     1.0  0.78285  0.50636  0.92229  1.0000
  H   H4545     1.0  0.94973  0.70431  0.83625  1.0000
  H   H4546     1.0  0.98315  0.70302  0.77748  1.0000
  N   N143      1.0  0.89224  0.64502  0.89393  1.0000
  C   C2557     1.0  0.91272  0.63968  0.89782  1.0000
  C   C2558     1.0  0.88984  0.64319  0.87344  1.0000
  C   C2559     1.0  0.88733  0.66552  0.89780  1.0000
  C   C2560     1.0  0.87873  0.63364  0.90658  1.0000
  C   C2561     1.0  0.88252  0.61195  0.90657  1.0000
  C   C2562     1.0  0.91759  0.64154  0.91807  1.0000
  C   C2563     1.0  0.86706  0.67423  0.89355  1.0000
  C   C2564     1.0  0.90310  0.62781  0.86317  1.0000
  C   C2565     1.0  0.89749  0.62625  0.84342  1.0000
  C   C2566     1.0  0.86890  0.60234  0.92129  1.0000
  C   C2567     1.0  0.93817  0.63385  0.92060  1.0000
  C   C2568     1.0  0.86462  0.69546  0.89573  1.0000
  H   H4547     1.0  0.92216  0.64849  0.88831  1.0000
  H   H4548     1.0  0.91746  0.62493  0.89457  1.0000
  H   H4549     1.0  0.87485  0.64093  0.87164  1.0000
  H   H4550     1.0  0.89253  0.65660  0.86495  1.0000
  H   H4551     1.0  0.89787  0.67429  0.88973  1.0000
  H   H4552     1.0  0.88823  0.66760  0.91280  1.0000
  H   H4553     1.0  0.87827  0.63758  0.92130  1.0000
  H   H4554     1.0  0.86391  0.63717  0.90275  1.0000
  H   H4555     1.0  0.89719  0.60689  0.90989  1.0000
  H   H4556     1.0  0.88007  0.60733  0.89275  1.0000
  H   H4557     1.0  0.91611  0.65657  0.92118  1.0000
  H   H4558     1.0  0.90826  0.63367  0.92853  1.0000
  H   H4559     1.0  0.85610  0.66788  0.90353  1.0000
  H   H4560     1.0  0.86407  0.67206  0.87909  1.0000
  H   H4561     1.0  0.91803  0.63155  0.86164  1.0000
  H   H4562     1.0  0.93549  0.71458  0.79953  1.0000
  C   C2569     1.0  0.85774  0.50170  0.79164  1.0000
  H   H4563     1.0  0.99369  0.69638  0.91156  1.0000
  H   H4564     1.0  0.92993  0.65712  0.69291  1.0000
  C   C2570     1.0  0.93051  0.64625  0.68264  1.0000
  H   H4565     1.0  0.96409  0.63512  0.99375  1.0000
  H   H4566     1.0  0.68729  0.57822  0.97051  1.0000
  H   H4567     1.0  0.98701  0.69098  0.95733  1.0000
  H   H4568     1.0  0.66446  0.65808  0.96758  1.0000
  C   C2571     1.0  0.98530  0.55256  0.76646  1.0000
  H   H4569     1.0  0.95190  0.65779  0.98673  1.0000
  H   H4570     1.0  0.97103  0.72212  0.80091  1.0000
  H   H4571     1.0  0.75915  0.53747  0.96657  1.0000
  H   H4572     1.0  0.69949  0.74521  0.93649  1.0000
  C   C2572     1.0  0.67104  0.74044  0.91579  1.0000
  H   H4573     1.0  0.78354  0.53189  0.97183  1.0000
  H   H4574     1.0  0.67644  0.50988  0.75892  1.0000
  H   H4575     1.0  0.50270  0.58523  0.85687  1.0000
  C   C2573     1.0  0.99083  0.65738  0.97471  1.0000
  C   C2574     1.0  0.99645  0.68113  0.94852  1.0000
  Fe  Fe287     1.0  0.76249  0.60461  0.99056  1.0000
  H   H4576     1.0  0.98674  0.67586  0.93944  1.0000
  H   H4577     1.0  0.95813  0.74540  0.73615  1.0000
  H   H4578     1.0  0.52006  0.55250  0.85960  1.0000
  H   H4579     1.0  0.99342  0.64398  0.93302  1.0000
  H   H4580     1.0  0.90641  0.72783  0.66647  1.0000
  C   C2575     1.0  0.92921  0.65564  0.66287  1.0000
  H   H4581     1.0  0.91583  0.66515  0.66308  1.0000
  C   C2576     1.0  0.50216  0.51128  0.80926  1.0000
  C   C2577     1.0  0.82760  0.59214  0.98939  1.0000
  C   C2578     1.0  0.75413  0.50498  0.95113  1.0000
  H   H4582     1.0  0.99731  0.64633  0.98456  1.0000
  Fe  Fe288     1.0  0.59479  0.74766  0.95672  1.0000
  H   H4583     1.0  0.84407  0.61446  0.99376  1.0000
  H   H4584     1.0  0.84494  0.49842  0.80101  1.0000
  H   H4585     1.0  0.56782  0.76557  0.24515  1.0000
  S   S575      1.0  0.98343  0.97005  0.01233  1.0000
  S   S576      1.0  0.52465  0.76118  0.11736  1.0000
  C   C2579     1.0  0.50607  0.75092  0.05349  1.0000
  S   S577      1.0  0.53783  0.77647  0.16601  1.0000
  Fe  Fe289     1.0  0.53622  0.85697  0.29050  1.0000
  S   S578      1.0  0.55052  0.85581  0.26085  1.0000
  S   S579      1.0  0.55291  0.84058  0.31363  1.0000
  C   C2580     1.0  0.96524  0.97101  0.07160  1.0000
  S   S580      1.0  0.51221  0.87965  0.24650  1.0000
  Fe  Fe290     1.0  0.52224  0.84897  0.25259  1.0000
  S   S581      1.0  0.51230  0.82530  0.23698  1.0000
  Fe  Fe291     1.0  0.53931  0.88669  0.25728  1.0000
  S   S582      1.0  0.55133  0.91246  0.24102  1.0000
  H   H4586     1.0  0.60256  0.81515  0.04239  1.0000
  S   S583      1.0  0.52661  0.88816  0.28716  1.0000
  S   S584      1.0  0.62031  0.96084  0.25081  1.0000
  S   S585      1.0  0.59019  0.77424  0.02030  1.0000
  H   H4587     1.0  0.67856  0.96980  0.01209  1.0000
  H   H4588     1.0  0.68991  0.90530  0.26479  1.0000
  C   C2581     1.0  0.71260  0.96269  0.29426  1.0000
  N   N144      1.0  0.61743  0.83280  0.00537  1.0000
  C   C2582     1.0  0.56982  0.92617  0.24538  1.0000
  C   C2583     1.0  0.57043  0.94441  0.23639  1.0000
  C   C2584     1.0  0.58537  0.95544  0.23846  1.0000
  C   C2585     1.0  0.60021  0.94819  0.24922  1.0000
  C   C2586     1.0  0.59957  0.92999  0.25832  1.0000
  C   C2587     1.0  0.58437  0.91913  0.25660  1.0000
  H   H4589     1.0  0.55935  0.94997  0.22759  1.0000
  H   H4590     1.0  0.58569  0.96932  0.23128  1.0000
  H   H4591     1.0  0.61097  0.92419  0.26661  1.0000
  H   H4592     1.0  0.58421  0.90509  0.26348  1.0000
  H   H4593     1.0  0.55548  0.80479  0.18223  1.0000
  H   H4594     1.0  0.68499  0.96186  0.30840  1.0000
  S   S586      1.0  0.50869  0.84856  0.28239  1.0000
  C   C2588     1.0  0.53006  0.79031  0.18545  1.0000
  C   C2589     1.0  0.54207  0.80319  0.19049  1.0000
  C   C2590     1.0  0.53688  0.81415  0.20603  1.0000
  C   C2591     1.0  0.51969  0.81216  0.21700  1.0000
  C   C2592     1.0  0.68671  0.98011  0.00395  1.0000
  C   C2593     1.0  0.51279  0.78842  0.19635  1.0000
  H   H4595     1.0  0.54625  0.82405  0.20958  1.0000
  H   H4596     1.0  0.62119  0.96994  0.29128  1.0000
  H   H4597     1.0  0.95282  0.98172  0.07366  1.0000
  C   C2594     1.0  0.58266  0.75954  0.04009  1.0000
  H   H4598     1.0  0.64391  0.77777  0.01946  1.0000
  C   C2595     1.0  0.69989  0.98114  0.25272  1.0000
  H   H4599     1.0  0.63264  0.80733  0.99513  1.0000
  H   H4600     1.0  0.96750  0.96814  0.05654  1.0000
  H   H4601     1.0  0.55241  0.75981  0.20494  1.0000
  Fe  Fe292     1.0  0.52590  0.75544  0.14864  1.0000
  C   C2596     1.0  0.99003  0.99649  0.27401  1.0000
  H   H4602     1.0  0.55591  0.78318  0.22959  1.0000
  H   H4603     1.0  0.62874  0.95923  0.31334  1.0000
  H   H4604     1.0  0.58574  0.84308  0.05776  1.0000
  C   C2597     1.0  0.68956  0.94299  0.27291  1.0000
  C   C2598     1.0  0.75161  0.95724  0.00424  1.0000
  C   C2599     1.0  0.68017  0.93469  0.25722  1.0000
  C   C2600     1.0  0.54661  0.79036  0.29786  1.0000
  C   C2601     1.0  0.69047  0.91560  0.25234  1.0000
  C   C2602     1.0  0.50776  0.79913  0.21209  1.0000
  H   H4605     1.0  0.70478  0.94344  0.26786  1.0000
  H   H4606     1.0  0.91566  0.87146  0.00572  1.0000
  H   H4607     1.0  0.62592  0.78364  0.03821  1.0000
  H   H4608     1.0  0.68074  0.94418  0.24419  1.0000
  H   H4609     1.0  0.57768  0.83071  0.99895  1.0000
  H   H4610     1.0  0.70556  0.91709  0.24713  1.0000
  H   H4611     1.0  0.98614  0.78390  0.13277  1.0000
  H   H4612     1.0  0.64897  0.98937  0.28805  1.0000
  H   H4613     1.0  0.76711  0.95459  0.00561  1.0000
  H   H4614     1.0  0.63472  0.81656  0.03595  1.0000
  H   H4615     1.0  0.97862  0.76604  0.10438  1.0000
  C   C2603     1.0  0.98508  0.75334  0.14039  1.0000
  H   H4616     1.0  0.70737  0.98895  0.26200  1.0000
  H   H4617     1.0  0.99124  0.94218  0.13861  1.0000
  H   H4618     1.0  0.53354  0.80142  0.32320  1.0000
  H   H4619     1.0  0.74706  0.97230  0.02962  1.0000
  C   C2604     1.0  0.60487  0.83994  0.02210  1.0000
  H   H4620     1.0  0.98707  0.77523  0.07109  1.0000
  C   C2605     1.0  0.74398  0.97464  0.01472  1.0000
  H   H4621     1.0  0.96197  0.95776  0.07992  1.0000
  H   H4622     1.0  0.65626  0.97838  0.30982  1.0000
  H   H4623     1.0  0.64205  0.84361  0.01466  1.0000
  H   H4624     1.0  0.68344  0.91000  0.24113  1.0000
  Fe  Fe293     1.0  0.50021  0.87960  0.27640  1.0000
  H   H4625     1.0  0.66510  0.93240  0.26160  1.0000
  C   C2606     1.0  0.63890  0.80787  0.02385  1.0000
  C   C2607     1.0  0.55376  0.77185  0.24094  1.0000
  H   H4626     1.0  0.65956  0.94656  0.29602  1.0000
  H   H4627     1.0  0.57051  0.78309  0.05571  1.0000
  H   H4628     1.0  0.68940  0.93246  0.28526  1.0000
  H   H4629     1.0  0.64753  0.99696  0.00069  1.0000
  H   H4630     1.0  0.65114  0.87612  0.01082  1.0000
  H   H4631     1.0  0.68644  0.78925  0.00444  1.0000
  H   H4632     1.0  0.65070  0.78417  0.04141  1.0000
  H   H4633     1.0  0.51354  0.93815  0.24722  1.0000
  H   H4634     1.0  0.99684  0.81394  0.30268  1.0000
  H   H4635     1.0  0.96124  0.79504  0.15693  1.0000
  H   H4636     1.0  0.72032  0.98868  0.30397  1.0000
  H   H4637     1.0  0.95836  0.77109  0.16590  1.0000
  C   C2608     1.0  0.62898  0.97204  0.30349  1.0000
  H   H4638     1.0  0.71541  0.94734  0.29819  1.0000
  H   H4639     1.0  0.97670  0.84354  0.32514  1.0000
  H   H4640     1.0  0.65343  0.81103  0.01803  1.0000
  H   H4641     1.0  0.52671  0.75985  0.02040  1.0000
  C   C2609     1.0  0.64945  0.97607  0.29709  1.0000
  C   C2610     1.0  0.68033  0.97672  0.26268  1.0000
  H   H4642     1.0  0.61327  0.80323  0.01148  1.0000
  C   C2611     1.0  0.59311  0.82539  0.03427  1.0000
  H   H4643     1.0  0.62144  0.98420  0.31074  1.0000
  H   H4644     1.0  0.72025  0.96566  0.28034  1.0000
  H   H4645     1.0  0.58536  0.81709  0.02581  1.0000
  H   H4646     1.0  0.69038  0.98671  0.22466  1.0000
  H   H4647     1.0  0.98734  0.99562  0.25957  1.0000
  H   H4648     1.0  0.97293  0.75164  0.13233  1.0000
  H   H4649     1.0  0.70887  0.96818  0.24884  1.0000
  H   H4650     1.0  0.54806  0.80477  0.29107  1.0000
  H   H4651     1.0  0.72833  0.97734  0.01431  1.0000
  C   C2612     1.0  0.57306  0.76789  0.05585  1.0000
  H   H4652     1.0  0.99214  0.77647  0.15623  1.0000
  H   H4653     1.0  0.99456  0.96635  0.07639  1.0000
  C   C2613     1.0  0.66026  0.95956  0.28638  1.0000
  C   C2614     1.0  0.57855  0.83511  0.04837  1.0000
  H   H4654     1.0  0.90388  0.85381  0.02085  1.0000
  C   C2615     1.0  0.96240  0.78018  0.15312  1.0000
  C   C2616     1.0  0.63032  0.86524  0.99519  1.0000
  H   H4655     1.0  0.55932  0.76327  0.08388  1.0000
  C   C2617     1.0  0.62498  0.81235  0.00836  1.0000
  H   H4656     1.0  0.67336  0.99035  0.26737  1.0000
  H   H4657     1.0  0.74442  0.94522  0.01144  1.0000
  H   H4658     1.0  0.50030  0.75995  0.04160  1.0000
  C   C2618     1.0  0.69774  0.99374  0.23467  1.0000
  C   C2619     1.0  0.63991  0.78709  0.03111  1.0000
  C   C2620     1.0  0.99266  0.76039  0.09789  1.0000
  H   H4659     1.0  0.57077  0.82431  0.05711  1.0000
  H   H4660     1.0  0.68807  0.98373  0.29532  1.0000
  H   H4661     1.0  0.99259  0.99219  0.05130  1.0000
  C   C2621     1.0  0.69049  0.99639  0.01239  1.0000
  H   H4662     1.0  0.71368  0.97136  0.32257  1.0000
  H   H4663     1.0  0.73648  0.96819  0.30904  1.0000
  H   H4664     1.0  0.53401  0.76235  0.05129  1.0000
  H   H4665     1.0  0.53338  0.78547  0.29375  1.0000
  H   H4666     1.0  0.52845  0.76382  0.23151  1.0000
  C   C2622     1.0  0.92208  0.84272  0.99713  1.0000
  C   C2623     1.0  0.52125  0.76135  0.06139  1.0000
  H   H4667     1.0  0.92420  0.82843  0.00436  1.0000
  H   H4668     1.0  0.65158  0.95764  0.27473  1.0000
  H   H4669     1.0  0.54560  0.77838  0.25316  1.0000
  H   H4670     1.0  0.50507  0.94794  0.26913  1.0000
  H   H4671     1.0  0.55910  0.78089  0.29265  1.0000
  C   C2624     1.0  0.72124  0.97336  0.30836  1.0000
  H   H4672     1.0  0.67121  0.97304  0.25207  1.0000
  H   H4673     1.0  0.56806  0.84490  0.04099  1.0000
  Fe  Fe294     1.0  0.62123  0.99268  0.24430  1.0000
  C   C2625     1.0  0.69081  0.96814  0.29457  1.0000
  N   N145      1.0  0.68065  0.96193  0.27893  1.0000
  H   H4674     1.0  0.61345  0.84581  0.03199  1.0000
  C   C2626     1.0  0.54269  0.75677  0.23438  1.0000
  H   H4675     1.0  0.61817  0.87208  0.00395  1.0000
  H   H4676     1.0  0.92893  0.85563  0.02158  1.0000
  H   H4677     1.0  0.52467  0.78840  0.07153  1.0000
  H   H4678     1.0  0.95229  0.77918  0.14249  1.0000
  H   H4679     1.0  0.59482  0.85209  0.01749  1.0000
  C   C2627     1.0  0.56666  0.75669  0.07181  1.0000
  C   C2628     1.0  0.98468  0.80941  0.31236  1.0000
  C   C2629     1.0  0.91726  0.85678  0.01222  1.0000
  H   H4680     1.0  0.55902  0.79633  0.32250  1.0000
  H   H4681     1.0  0.55336  0.76106  0.32189  1.0000
  C   C2630     1.0  0.54571  0.79101  0.31914  1.0000
  H   H4682     1.0  0.98016  0.98058  0.09300  1.0000
  H   H4683     1.0  0.97115  0.81639  0.30746  1.0000
  C   C2631     1.0  0.63445  0.84411  0.00179  1.0000
  C   C2632     1.0  0.98304  0.97799  0.07793  1.0000
  H   H4684     1.0  0.98457  0.79389  0.31201  1.0000
  H   H4685     1.0  0.50756  0.88667  0.20265  1.0000
  C   C2633     1.0  0.98279  0.77427  0.14529  1.0000
  C   C2634     1.0  0.50058  0.94206  0.25664  1.0000
  H   H4686     1.0  0.68243  0.76600  0.99857  1.0000
  H   H4687     1.0  0.71200  0.99668  0.22794  1.0000
  C   C2635     1.0  0.64766  0.87602  0.99611  1.0000
  H   H4688     1.0  0.50332  0.77869  0.19268  1.0000
  C   C2636     1.0  0.51355  0.78148  0.06560  1.0000
  H   H4689     1.0  0.52196  0.74881  0.19942  1.0000
  H   H4690     1.0  0.50091  0.78142  0.07604  1.0000
  H   H4691     1.0  0.52563  0.75393  0.07467  1.0000
  H   H4692     1.0  0.75073  0.98733  0.00845  1.0000
  H   H4693     1.0  0.50960  0.78982  0.05259  1.0000
  C   C2637     1.0  0.98849  0.99608  0.06598  1.0000
  H   H4694     1.0  0.52860  0.76771  0.32683  1.0000
  H   H4695     1.0  0.78313  0.97882  0.53905  1.0000
  H   H4696     1.0  0.57557  0.76758  0.34082  1.0000
  S   S587      1.0  0.82858  0.77026  0.45982  1.0000
  H   H4697     1.0  0.54397  0.84797  0.47961  1.0000
  C   C2638     1.0  0.99440  0.87529  0.33524  1.0000
  S   S588      1.0  0.96097  0.77828  0.60864  1.0000
  C   C2639     1.0  0.86524  0.82837  0.49347  1.0000
  H   H4698     1.0  0.71996  0.99778  0.62835  1.0000
  H   H4699     1.0  0.82862  0.92654  0.62478  1.0000
  C   C2640     1.0  0.75699  0.96461  0.54197  1.0000
  Fe  Fe295     1.0  0.95591  0.78008  0.64007  1.0000
  S   S589      1.0  0.98604  0.76946  0.64549  1.0000
  S   S590      1.0  0.73738  0.96012  0.61461  1.0000
  Fe  Fe296     1.0  0.78895  0.96513  0.62775  1.0000
  S   S591      1.0  0.77354  0.93944  0.63630  1.0000
  H   H4700     1.0  0.87200  0.83736  0.48184  1.0000
  Fe  Fe297     1.0  0.76434  0.94194  0.60687  1.0000
  S   S592      1.0  0.76859  0.91805  0.58707  1.0000
  Fe  Fe298     1.0  0.74778  0.96009  0.64323  1.0000
  S   S593      1.0  0.78150  0.96627  0.59785  1.0000
  Fe  Fe299     1.0  0.70063  0.86331  0.47319  1.0000
  S   S594      1.0  0.72759  0.85239  0.45648  1.0000
  S   S595      1.0  0.66918  0.86058  0.46926  1.0000
  Fe  Fe300     1.0  0.72304  0.88515  0.49827  1.0000
  S   S596      1.0  0.75135  0.87578  0.48329  1.0000
  S   S597      1.0  0.71733  0.90530  0.52192  1.0000
  Fe  Fe301     1.0  0.73644  0.88190  0.45688  1.0000
  S   S598      1.0  0.75016  0.89640  0.43033  1.0000
  Fe  Fe302     1.0  0.74052  0.84711  0.48411  1.0000
  S   S599      1.0  0.75687  0.82051  0.49673  1.0000
  S   S600      1.0  0.70882  0.89317  0.47168  1.0000
  S   S601      1.0  0.71291  0.85615  0.50090  1.0000
  Fe  Fe303     1.0  0.56298  0.76785  0.43029  1.0000
  S   S602      1.0  0.53667  0.78749  0.43706  1.0000
  H   H4701     1.0  0.92035  0.75945  0.47284  1.0000
  Fe  Fe304     1.0  0.58942  0.79571  0.44155  1.0000
  S   S603      1.0  0.56489  0.81708  0.44911  1.0000
  S   S604      1.0  0.62137  0.79773  0.44271  1.0000
  Fe  Fe305     1.0  0.54966  0.79261  0.46309  1.0000
  S   S605      1.0  0.53478  0.79260  0.49306  1.0000
  Fe  Fe306     1.0  0.55358  0.81026  0.42242  1.0000
  S   S606      1.0  0.53862  0.83284  0.40319  1.0000
  S   S607      1.0  0.57518  0.77153  0.45725  1.0000
  S   S608      1.0  0.57890  0.79034  0.41390  1.0000
  C   C2641     1.0  0.51073  0.79368  0.50335  1.0000
  C   C2642     1.0  0.92657  0.75238  0.43295  1.0000
  H   H4702     1.0  0.87388  0.99020  0.36751  1.0000
  C   C2643     1.0  0.53280  0.84854  0.34797  1.0000
  C   C2644     1.0  0.86553  0.89280  0.63738  1.0000
  C   C2645     1.0  0.91220  0.75942  0.55175  1.0000
  H   H4703     1.0  0.95026  0.82836  0.35033  1.0000
  C   C2646     1.0  0.52333  0.87730  0.65574  1.0000
  C   C2647     1.0  0.65627  0.84257  0.46230  1.0000
  C   C2648     1.0  0.63621  0.84515  0.46404  1.0000
  C   C2649     1.0  0.62529  0.83155  0.45838  1.0000
  C   C2650     1.0  0.63430  0.81520  0.45067  1.0000
  C   C2651     1.0  0.65434  0.81270  0.44876  1.0000
  C   C2652     1.0  0.66526  0.82623  0.45458  1.0000
  H   H4704     1.0  0.62908  0.85773  0.46996  1.0000
  H   H4705     1.0  0.60993  0.83371  0.46004  1.0000
  H   H4706     1.0  0.66152  0.80014  0.44282  1.0000
  H   H4707     1.0  0.68064  0.82404  0.45304  1.0000
  H   H4708     1.0  0.87728  0.81930  0.49935  1.0000
  C   C2653     1.0  0.56203  0.82806  0.34915  1.0000
  C   C2654     1.0  0.55915  0.82593  0.36889  1.0000
  C   C2655     1.0  0.54309  0.83521  0.37832  1.0000
  C   C2656     1.0  0.53006  0.84666  0.36774  1.0000
  H   H4709     1.0  0.91497  0.84385  0.61303  1.0000
  H   H4710     1.0  0.56939  0.81721  0.37680  1.0000
  H   H4711     1.0  0.51767  0.85401  0.37485  1.0000
  C   C2657     1.0  0.75424  0.91532  0.56880  1.0000
  C   C2658     1.0  0.73522  0.92290  0.56915  1.0000
  C   C2659     1.0  0.72409  0.91952  0.55480  1.0000
  C   C2660     1.0  0.73188  0.90879  0.53983  1.0000
  C   C2661     1.0  0.75102  0.90170  0.53922  1.0000
  C   C2662     1.0  0.76203  0.90466  0.55379  1.0000
  H   H4712     1.0  0.72900  0.93107  0.58064  1.0000
  H   H4713     1.0  0.70933  0.92522  0.55533  1.0000
  H   H4714     1.0  0.75736  0.89408  0.52744  1.0000
  H   H4715     1.0  0.77677  0.89888  0.55331  1.0000
  H   H4716     1.0  0.69281  0.98034  0.62222  1.0000
  H   H4717     1.0  0.83413  0.79003  0.53848  1.0000
  H   H4718     1.0  0.90101  0.97720  0.38104  1.0000
  H   H4719     1.0  0.97172  0.82451  0.64672  1.0000
  H   H4720     1.0  0.52522  0.82771  0.46499  1.0000
  C   C2663     1.0  0.72777  0.95711  0.37663  1.0000
  H   H4721     1.0  0.90657  0.97848  0.35609  1.0000
  C   C2664     1.0  0.80814  0.78347  0.47021  1.0000
  C   C2665     1.0  0.80099  0.77971  0.48885  1.0000
  C   C2666     1.0  0.78519  0.79110  0.49668  1.0000
  C   C2667     1.0  0.77627  0.80625  0.48595  1.0000
  C   C2668     1.0  0.78328  0.80985  0.46726  1.0000
  C   C2669     1.0  0.79914  0.79854  0.45947  1.0000
  H   H4722     1.0  0.80766  0.76809  0.49725  1.0000
  H   H4723     1.0  0.77983  0.78812  0.51112  1.0000
  H   H4724     1.0  0.77651  0.82139  0.45881  1.0000
  H   H4725     1.0  0.80448  0.80152  0.44501  1.0000
  H   H4726     1.0  0.52464  0.74917  0.35706  1.0000
  H   H4727     1.0  0.52992  0.77081  0.38833  1.0000
  H   H4728     1.0  0.52152  0.85159  0.62844  1.0000
  H   H4729     1.0  0.82964  0.90133  0.62414  1.0000
  C   C2670     1.0  0.69798  0.94974  0.40836  1.0000
  C   C2671     1.0  0.75037  0.92124  0.42736  1.0000
  C   C2672     1.0  0.74157  0.93294  0.44101  1.0000
  C   C2673     1.0  0.74214  0.95263  0.43829  1.0000
  C   C2674     1.0  0.75131  0.96082  0.42186  1.0000
  C   C2675     1.0  0.75995  0.94916  0.40811  1.0000
  C   C2676     1.0  0.75944  0.92945  0.41086  1.0000
  H   H4730     1.0  0.73443  0.92678  0.45369  1.0000
  H   H4731     1.0  0.73542  0.96158  0.44896  1.0000
  H   H4732     1.0  0.76727  0.95529  0.39551  1.0000
  H   H4733     1.0  0.76627  0.92049  0.40023  1.0000
  H   H4734     1.0  0.88397  0.86025  0.62338  1.0000
  H   H4735     1.0  0.92776  0.79493  0.49143  1.0000
  H   H4736     1.0  0.51467  0.80000  0.40286  1.0000
  C   C2677     1.0  0.81837  0.83577  0.48556  1.0000
  N   N146      1.0  0.73825  0.84222  0.55885  1.0000
  C   C2678     1.0  0.74569  0.82220  0.56466  1.0000
  C   C2679     1.0  0.73809  0.85490  0.57477  1.0000
  C   C2680     1.0  0.71791  0.84179  0.55442  1.0000
  C   C2681     1.0  0.74944  0.84993  0.54146  1.0000
  C   C2682     1.0  0.77095  0.85079  0.54288  1.0000
  C   C2683     1.0  0.74771  0.80796  0.54921  1.0000
  C   C2684     1.0  0.70634  0.86128  0.55096  1.0000
  C   C2685     1.0  0.75418  0.85073  0.58809  1.0000
  C   C2686     1.0  0.75370  0.86639  0.60143  1.0000
  C   C2687     1.0  0.78169  0.85431  0.52362  1.0000
  C   C2688     1.0  0.75454  0.78811  0.55697  1.0000
  C   C2689     1.0  0.68573  0.85898  0.54789  1.0000
  H   H4737     1.0  0.73638  0.81658  0.57682  1.0000
  H   H4738     1.0  0.75996  0.82152  0.56977  1.0000
  H   H4739     1.0  0.73799  0.86996  0.56917  1.0000
  H   H4740     1.0  0.72471  0.85414  0.58427  1.0000
  H   H4741     1.0  0.70980  0.83380  0.56599  1.0000
  H   H4742     1.0  0.71738  0.83424  0.54158  1.0000
  H   H4743     1.0  0.74760  0.84192  0.52925  1.0000
  H   H4744     1.0  0.74361  0.86453  0.53733  1.0000
  H   H4745     1.0  0.77776  0.83750  0.54931  1.0000
  H   H4746     1.0  0.77293  0.86261  0.55135  1.0000
  H   H4747     1.0  0.73404  0.80708  0.54329  1.0000
  H   H4748     1.0  0.75840  0.81207  0.53766  1.0000
  H   H4749     1.0  0.71260  0.86899  0.53829  1.0000
  H   H4750     1.0  0.70596  0.87028  0.56286  1.0000
  H   H4751     1.0  0.75224  0.83738  0.59684  1.0000
  H   H4752     1.0  0.76848  0.84935  0.58040  1.0000
  H   H4753     1.0  0.76512  0.86299  0.61101  1.0000
  H   H4754     1.0  0.75611  0.88000  0.59341  1.0000
  H   H4755     1.0  0.73978  0.86798  0.61000  1.0000
  H   H4756     1.0  0.79675  0.85613  0.52527  1.0000
  H   H4757     1.0  0.78139  0.84211  0.51508  1.0000
  H   H4758     1.0  0.77534  0.86723  0.51607  1.0000
  H   H4759     1.0  0.74412  0.78294  0.56830  1.0000
  H   H4760     1.0  0.75603  0.77833  0.54555  1.0000
  H   H4761     1.0  0.76863  0.78798  0.56248  1.0000
  H   H4762     1.0  0.67834  0.85234  0.56071  1.0000
  H   H4763     1.0  0.67811  0.87308  0.54458  1.0000
  H   H4764     1.0  0.68511  0.85021  0.53594  1.0000
  C   C2690     1.0  0.89688  0.86490  0.62848  1.0000
  C   C2691     1.0  0.93022  0.76813  0.47839  1.0000
  H   H4765     1.0  0.69519  0.90090  0.41198  1.0000
  H   H4766     1.0  0.85473  0.79259  0.46894  1.0000
  C   C2692     1.0  0.50691  0.79599  0.52269  1.0000
  H   H4767     1.0  0.71249  0.91366  0.42072  1.0000
  C   C2693     1.0  0.84188  0.80431  0.50138  1.0000
  C   C2694     1.0  0.85640  0.84201  0.50831  1.0000
  C   C2695     1.0  0.85473  0.79072  0.51378  1.0000
  C   C2696     1.0  0.84271  0.78006  0.52916  1.0000
  H   H4768     1.0  0.83250  0.79553  0.49509  1.0000
  H   H4769     1.0  0.83221  0.81299  0.51106  1.0000
  H   H4770     1.0  0.84785  0.83477  0.51994  1.0000
  H   H4771     1.0  0.84735  0.85374  0.50159  1.0000
  H   H4772     1.0  0.86324  0.77996  0.50538  1.0000
  H   H4773     1.0  0.86448  0.79850  0.52068  1.0000
  N   N147      1.0  0.54540  0.76940  0.35016  1.0000
  H   H4774     1.0  0.56095  0.88649  0.65469  1.0000
  C   C2697     1.0  0.92258  0.75518  0.56759  1.0000
  H   H4775     1.0  0.88451  0.82103  0.45773  1.0000
  S   S609      1.0  0.82002  0.96855  0.63234  1.0000
  H   H4776     1.0  0.94893  0.76679  0.50055  1.0000
  H   H4777     1.0  0.51860  0.79698  0.53101  1.0000
  H   H4778     1.0  0.94069  0.98108  0.36025  1.0000
  H   H4779     1.0  0.84389  0.84066  0.46723  1.0000
  H   H4780     1.0  0.83299  0.82005  0.46375  1.0000
  H   H4781     1.0  0.71269  0.94837  0.41280  1.0000
  H   H4782     1.0  0.71354  0.97904  0.52590  1.0000
  C   C2698     1.0  0.70628  0.96340  0.37588  1.0000
  C   C2699     1.0  0.87322  0.81245  0.45460  1.0000
  H   H4783     1.0  0.50296  0.81980  0.43238  1.0000
  H   H4784     1.0  0.82048  0.84263  0.49829  1.0000
  H   H4785     1.0  0.87157  0.78883  0.43761  1.0000
  H   H4786     1.0  0.56717  0.78774  0.35297  1.0000
  C   C2700     1.0  0.56569  0.77240  0.35291  1.0000
  C   C2701     1.0  0.80669  0.84997  0.47313  1.0000
  H   H4787     1.0  0.91192  0.79402  0.47358  1.0000
  H   H4788     1.0  0.93228  0.96026  0.37284  1.0000
  H   H4789     1.0  0.67003  0.95799  0.38394  1.0000
  H   H4790     1.0  0.86282  0.82164  0.44658  1.0000
  C   C2702     1.0  0.93087  0.97593  0.37215  1.0000
  C   C2703     1.0  0.91854  0.78580  0.48542  1.0000
  H   H4791     1.0  0.80968  0.82386  0.48998  1.0000
  H   H4792     1.0  0.90708  0.78185  0.49628  1.0000
  H   H4793     1.0  0.70352  0.92676  0.38911  1.0000
  H   H4794     1.0  0.85954  0.97004  0.63681  1.0000
  H   H4795     1.0  0.99520  0.80619  0.40053  1.0000
  H   H4796     1.0  0.88372  0.91831  0.65601  1.0000
  C   C2704     1.0  0.69019  0.99001  0.42066  1.0000
  H   H4797     1.0  0.92355  0.96926  0.64394  1.0000
  H   H4798     1.0  0.98339  0.76686  0.44372  1.0000
  H   H4799     1.0  0.53467  0.79862  0.35354  1.0000
  C   C2705     1.0  0.74878  0.94706  0.50824  1.0000
  H   H4800     1.0  0.90816  0.83616  0.63704  1.0000
  H   H4801     1.0  0.61720  0.86739  0.34140  1.0000
  H   H4802     1.0  0.96642  0.85741  0.37228  1.0000
  C   C2706     1.0  0.88247  0.79743  0.44169  1.0000
  C   C2707     1.0  0.74989  0.94181  0.48798  1.0000
  Fe  Fe307     1.0  0.99065  0.76584  0.61440  1.0000
  H   H4803     1.0  0.75363  0.94969  0.54425  1.0000
  H   H4804     1.0  0.75470  0.97006  0.55617  1.0000
  S   S610      1.0  0.89092  0.75173  0.52382  1.0000
  C   C2708     1.0  0.74737  0.99615  0.52795  1.0000
  H   H4805     1.0  0.89947  0.97908  0.64097  1.0000
  H   H4806     1.0  0.98934  0.75446  0.48486  1.0000
  H   H4807     1.0  0.72151  0.95756  0.53788  1.0000
  H   H4808     1.0  0.78712  0.95010  0.56192  1.0000
  H   H4809     1.0  0.80432  0.84375  0.45999  1.0000
  H   H4810     1.0  0.73017  0.94360  0.38518  1.0000
  H   H4811     1.0  0.54366  0.79084  0.38430  1.0000
  H   H4812     1.0  0.73619  0.94106  0.51576  1.0000
  H   H4813     1.0  0.76169  0.94010  0.51440  1.0000
  S   S611      1.0  0.97396  0.77233  0.40492  1.0000
  H   H4814     1.0  0.96035  0.85992  0.34902  1.0000
  H   H4815     1.0  0.52256  0.85725  0.34002  1.0000
  H   H4816     1.0  0.71658  0.98047  0.40565  1.0000
  H   H4817     1.0  0.91063  0.77378  0.54562  1.0000
  C   C2709     1.0  0.98786  0.83564  0.33338  1.0000
  C   C2710     1.0  0.67419  0.96978  0.39132  1.0000
  H   H4818     1.0  0.93725  0.77943  0.42515  1.0000
  H   H4819     1.0  0.87536  0.79499  0.48016  1.0000
  H   H4820     1.0  0.67480  0.99302  0.41900  1.0000
  H   H4821     1.0  0.88108  0.83982  0.52447  1.0000
  H   H4822     1.0  0.75142  0.92619  0.48764  1.0000
  H   H4823     1.0  0.73661  0.94737  0.48163  1.0000
  H   H4824     1.0  0.76227  0.94749  0.47952  1.0000
  N   N148      1.0  0.62563  0.84583  0.39742  1.0000
  C   C2711     1.0  0.60693  0.84474  0.40931  1.0000
  C   C2712     1.0  0.63560  0.82626  0.39512  1.0000
  C   C2713     1.0  0.63811  0.85644  0.40788  1.0000
  C   C2714     1.0  0.62315  0.85650  0.37866  1.0000
  C   C2715     1.0  0.60927  0.84915  0.36626  1.0000
  C   C2716     1.0  0.59518  0.86391  0.41286  1.0000
  C   C2717     1.0  0.65930  0.85644  0.39990  1.0000
  C   C2718     1.0  0.62322  0.81017  0.39260  1.0000
  C   C2719     1.0  0.63568  0.79182  0.38896  1.0000
  H   H4825     1.0  0.52203  0.75265  0.47825  1.0000
  C   C2720     1.0  0.57688  0.86109  0.42538  1.0000
  C   C2721     1.0  0.67018  0.86780  0.41160  1.0000
  H   H4826     1.0  0.60946  0.83720  0.42317  1.0000
  H   H4827     1.0  0.59738  0.83610  0.40317  1.0000
  H   H4828     1.0  0.64684  0.82657  0.38315  1.0000
  H   H4829     1.0  0.64309  0.82127  0.40783  1.0000
  H   H4830     1.0  0.63808  0.85059  0.42276  1.0000
  H   H4831     1.0  0.63249  0.87152  0.40840  1.0000
  H   H4832     1.0  0.61863  0.87167  0.38059  1.0000
  H   H4833     1.0  0.63701  0.85649  0.36996  1.0000
  H   H4834     1.0  0.59570  0.84583  0.37420  1.0000
  H   H4835     1.0  0.61619  0.83638  0.35965  1.0000
  H   H4836     1.0  0.60320  0.87319  0.42008  1.0000
  H   H4837     1.0  0.59111  0.87133  0.39946  1.0000
  H   H4838     1.0  0.66056  0.86283  0.38531  1.0000
  H   H4839     1.0  0.66661  0.84191  0.40013  1.0000
  H   H4840     1.0  0.61392  0.80740  0.40560  1.0000
  H   H4841     1.0  0.61399  0.81347  0.38107  1.0000
  H   H4842     1.0  0.64482  0.78775  0.40061  1.0000
  H   H4843     1.0  0.62657  0.78027  0.38817  1.0000
  H   H4844     1.0  0.64478  0.79339  0.37554  1.0000
  H   H4845     1.0  0.90209  0.94082  0.63595  1.0000
  C   C2722     1.0  0.57411  0.76243  0.37072  1.0000
  H   H4846     1.0  0.57459  0.82100  0.34199  1.0000
  H   H4847     1.0  0.56847  0.87493  0.42721  1.0000
  H   H4848     1.0  0.56806  0.85188  0.41896  1.0000
  H   H4849     1.0  0.58027  0.85468  0.43942  1.0000
  H   H4850     1.0  0.68527  0.86756  0.40569  1.0000
  H   H4851     1.0  0.66389  0.88270  0.41160  1.0000
  H   H4852     1.0  0.66994  0.86157  0.42629  1.0000
  H   H4853     1.0  0.99642  0.86701  0.36451  1.0000
  H   H4854     1.0  0.79256  0.85391  0.48064  1.0000
  Fe  Fe308     1.0  0.75506  0.98456  0.60672  1.0000
  S   S612      1.0  0.76375  0.98587  0.63584  1.0000
  S   S613      1.0  0.87899  0.75291  0.47492  1.0000
  C   C2723     1.0  0.94055  0.75690  0.49443  1.0000
  N   N149      1.0  0.85188  0.81637  0.48601  1.0000
  H   H4855     1.0  0.75299  0.94997  0.35800  1.0000
  H   H4856     1.0  0.51017  0.84184  0.48101  1.0000
  H   H4857     1.0  0.56521  0.76599  0.38368  1.0000
  H   H4858     1.0  0.88075  0.85866  0.50596  1.0000
  H   H4859     1.0  0.94045  0.77282  0.46668  1.0000
  C   C2724     1.0  0.51872  0.84224  0.46723  1.0000
  H   H4860     1.0  0.51261  0.81153  0.37991  1.0000
  C   C2725     1.0  0.95289  0.83408  0.36361  1.0000
  H   H4861     1.0  0.85665  0.88071  0.63847  1.0000
  H   H4862     1.0  0.83941  0.98799  0.36718  1.0000
  C   C2726     1.0  0.51347  0.79759  0.38802  1.0000
  C   C2727     1.0  0.93362  0.84219  0.37253  1.0000
  C   C2728     1.0  0.50676  0.84996  0.45075  1.0000
  C   C2729     1.0  0.86365  0.80319  0.47298  1.0000
  H   H4863     1.0  0.50159  0.86006  0.41384  1.0000
  H   H4864     1.0  0.72462  0.97335  0.56679  1.0000
  C   C2730     1.0  0.72355  0.97284  0.53625  1.0000
  N   N150      1.0  0.69501  0.96658  0.39449  1.0000
  H   H4865     1.0  0.83308  0.77155  0.52290  1.0000
  H   H4866     1.0  0.92073  0.93231  0.61895  1.0000
  S   S614      1.0  0.94549  0.75093  0.64459  1.0000
  C   C2731     1.0  0.94020  0.76430  0.42471  1.0000
  C   C2732     1.0  0.66805  0.98815  0.37943  1.0000
  C   C2733     1.0  0.83742  0.82833  0.47482  1.0000
  H   H4867     1.0  0.69210  0.97905  0.43236  1.0000
  H   H4868     1.0  0.53488  0.86714  0.64975  1.0000
  H   H4869     1.0  0.67912  0.93067  0.39862  1.0000
  H   H4870     1.0  0.88942  0.80429  0.42874  1.0000
  H   H4871     1.0  0.68783  0.91707  0.42989  1.0000
  H   H4872     1.0  0.80575  0.95078  0.54300  1.0000
  C   C2734     1.0  0.71646  0.98067  0.55547  1.0000
  H   H4873     1.0  0.52899  0.86882  0.47261  1.0000
  H   H4874     1.0  0.70005  0.95289  0.36836  1.0000
  H   H4875     1.0  0.60385  0.76355  0.35998  1.0000
  C   C2735     1.0  0.96126  0.83292  0.65534  1.0000
  C   C2736     1.0  0.85366  0.96198  0.64902  1.0000
  N   N151      1.0  0.74381  0.97563  0.52892  1.0000
  H   H4876     1.0  0.81403  0.86295  0.46955  1.0000
  C   C2737     1.0  0.97980  0.75848  0.47356  1.0000
  C   C2738     1.0  0.69410  0.93046  0.40180  1.0000
  H   H4877     1.0  0.73549  0.97475  0.50084  1.0000
  H   H4878     1.0  0.86514  0.86096  0.52720  1.0000
  C   C2739     1.0  0.53484  0.85450  0.46866  1.0000
  H   H4879     1.0  0.69052  0.98354  0.57424  1.0000
  H   H4880     1.0  0.87243  0.89327  0.62285  1.0000
  H   H4881     1.0  0.54377  0.85578  0.45512  1.0000
  C   C2740     1.0  0.90337  0.91073  0.63207  1.0000
  C   C2741     1.0  0.98672  0.81417  0.33235  1.0000
  C   C2742     1.0  0.53081  0.78483  0.38069  1.0000
  C   C2743     1.0  0.74722  0.96878  0.50940  1.0000
  C   C2744     1.0  0.91274  0.98125  0.64715  1.0000
  H   H4882     1.0  0.89395  0.91312  0.62055  1.0000
  C   C2745     1.0  0.69553  0.97759  0.56064  1.0000
  C   C2746     1.0  0.91242  0.84839  0.62755  1.0000
  H   H4883     1.0  0.50020  0.79091  0.38708  1.0000
  N   N152      1.0  0.88004  0.88936  0.65162  1.0000
  C   C2747     1.0  0.59407  0.76793  0.37224  1.0000
  C   C2748     1.0  0.60419  0.86372  0.35029  1.0000
  H   H4884     1.0  0.93507  0.98046  0.38544  1.0000
  H   H4885     1.0  0.84652  0.91458  0.60924  1.0000
  H   H4886     1.0  0.92383  0.83091  0.37499  1.0000
  S   S615      1.0  0.75224  0.98558  0.41963  1.0000
  C   C2749     1.0  0.91032  0.98349  0.36932  1.0000
  H   H4887     1.0  0.69581  0.96122  0.65495  1.0000
  H   H4888     1.0  0.76193  0.99801  0.52121  1.0000
  N   N153      1.0  0.98702  0.84298  0.35266  1.0000
  H   H4889     1.0  0.89342  0.78793  0.44871  1.0000
  H   H4890     1.0  0.69366  0.96227  0.56201  1.0000
  C   C2750     1.0  0.85184  0.91115  0.63879  1.0000
  C   C2751     1.0  0.91289  0.92884  0.63275  1.0000
  C   C2752     1.0  0.99598  0.82821  0.36625  1.0000
  C   C2753     1.0  0.73759  0.95424  0.35703  1.0000
  H   H4891     1.0  0.73140  0.94301  0.35052  1.0000
  H   H4892     1.0  0.78215  0.96334  0.52081  1.0000
  H   H4893     1.0  0.68853  0.95178  0.42148  1.0000
  H   H4894     1.0  0.91489  0.89943  0.62878  1.0000
  H   H4895     1.0  0.92597  0.85264  0.63161  1.0000
  H   H4896     1.0  0.92928  0.75350  0.50572  1.0000
  C   C2754     1.0  0.54881  0.83922  0.33853  1.0000
  H   H4897     1.0  0.90587  0.87092  0.65519  1.0000
  C   C2755     1.0  0.83839  0.91343  0.62324  1.0000
  C   C2756     1.0  0.49818  0.83615  0.62398  1.0000
  H   H4898     1.0  0.51932  0.88698  0.64354  1.0000
  H   H4899     1.0  0.51683  0.78267  0.35553  1.0000
  H   H4900     1.0  0.50747  0.82599  0.61542  1.0000
  C   C2757     1.0  0.87185  0.85086  0.51695  1.0000
  H   H4901     1.0  0.68658  0.98478  0.54984  1.0000
  C   C2758     1.0  0.83425  0.95896  0.65060  1.0000
  H   H4902     1.0  0.90171  0.87649  0.61862  1.0000
  C   C2759     1.0  0.79036  0.94937  0.54657  1.0000
  C   C2760     1.0  0.69759  0.91463  0.41706  1.0000
  C   C2761     1.0  0.77857  0.96508  0.53595  1.0000
  H   H4903     1.0  0.49816  0.78942  0.47837  1.0000
  H   H4904     1.0  0.98863  0.81514  0.36771  1.0000
  H   H4905     1.0  0.76024  0.97407  0.50171  1.0000
  H   H4906     1.0  0.73489  0.96798  0.38262  1.0000
  H   H4907     1.0  0.92887  0.76621  0.57352  1.0000
  H   H4908     1.0  0.91315  0.75832  0.43951  1.0000
  H   H4909     1.0  0.97160  0.77217  0.47649  1.0000
  H   H4910     1.0  0.98337  0.75141  0.56884  1.0000
  H   H4911     1.0  0.95832  0.82241  0.37340  1.0000
  C   C2762     1.0  0.70157  0.98348  0.40234  1.0000
  C   C2763     1.0  0.54985  0.89759  0.65961  1.0000
  C   C2764     1.0  0.89232  0.90545  0.65111  1.0000
  C   C2765     1.0  0.99232  0.76156  0.45521  1.0000
  H   H4912     1.0  0.85990  0.92374  0.63740  1.0000
  H   H4913     1.0  0.73614  0.96759  0.34797  1.0000
  C   C2766     1.0  0.89220  0.87088  0.64885  1.0000
  H   H4914     1.0  0.50199  0.81339  0.45642  1.0000
  C   C2767     1.0  0.96680  0.84953  0.35951  1.0000
  H   H4915     1.0  0.92323  0.92699  0.64353  1.0000
  H   H4916     1.0  0.51647  0.84784  0.43778  1.0000
  H   H4917     1.0  0.59964  0.76070  0.38515  1.0000
  H   H4918     1.0  0.59378  0.78342  0.37305  1.0000
  H   H4919     1.0  0.59652  0.87672  0.35592  1.0000
  C   C2768     1.0  0.54014  0.75010  0.35773  1.0000
  H   H4920     1.0  0.67553  0.98815  0.36514  1.0000
  H   H4921     1.0  0.84280  0.91101  0.65229  1.0000
  H   H4922     1.0  0.88511  0.85887  0.65643  1.0000
  H   H4923     1.0  0.54583  0.90736  0.64749  1.0000
  H   H4924     1.0  0.70544  0.97660  0.36653  1.0000
  H   H4925     1.0  0.78728  0.93533  0.54274  1.0000
  H   H4926     1.0  0.93522  0.84770  0.38623  1.0000
  C   C2769     1.0  0.95744  0.75679  0.41553  1.0000
  C   C2770     1.0  0.50997  0.84476  0.63715  1.0000
  H   H4927     1.0  0.85217  0.77032  0.53779  1.0000
  H   H4928     1.0  0.97474  0.80881  0.34158  1.0000
  C   C2771     1.0  0.53148  0.78421  0.35917  1.0000
  H   H4929     1.0  0.92716  0.85372  0.36314  1.0000
  H   H4930     1.0  0.64290  0.97789  0.37017  1.0000
  H   H4931     1.0  0.66516  0.96952  0.40490  1.0000
  H   H4932     1.0  0.70177  0.99568  0.39164  1.0000
  H   H4933     1.0  0.63843  0.99061  0.39124  1.0000
  H   H4934     1.0  0.91826  0.99446  0.64058  1.0000
  H   H4935     1.0  0.50375  0.86553  0.45152  1.0000
  C   C2772     1.0  0.96517  0.85082  0.66011  1.0000
  H   H4936     1.0  0.98255  0.83917  0.39278  1.0000
  C   C2773     1.0  0.69600  0.99360  0.61384  1.0000
  H   H4937     1.0  0.97871  0.85598  0.65511  1.0000
  C   C2774     1.0  0.64672  0.98998  0.37731  1.0000
  S   S616      1.0  0.93778  0.80383  0.65545  1.0000
  H   H4938     1.0  0.97908  0.88034  0.33566  1.0000
  H   H4939     1.0  0.59469  0.85783  0.34135  1.0000
  H   H4940     1.0  0.51659  0.83303  0.64611  1.0000
  H   H4941     1.0  0.71771  0.99602  0.55527  1.0000
  C   C2775     1.0  0.54300  0.77130  0.32938  1.0000
  Fe  Fe309     1.0  0.95301  0.74846  0.61349  1.0000
  H   H4942     1.0  0.70525  0.98982  0.60107  1.0000
  C   C2776     1.0  0.99687  0.83422  0.38637  1.0000
  H   H4943     1.0  0.69013  0.99783  0.65076  1.0000
  H   H4944     1.0  0.91856  0.99776  0.33165  1.0000
  Fe  Fe310     1.0  0.89525  0.90869  0.90768  1.0000
  S   S617      1.0  0.91113  0.89276  0.88423  1.0000
  S   S618      1.0  0.90431  0.93483  0.91962  1.0000
  Fe  Fe311     1.0  0.85962  0.88730  0.90724  1.0000
  S   S619      1.0  0.87311  0.86983  0.88376  1.0000
  S   S620      1.0  0.83053  0.88169  0.92212  1.0000
  Fe  Fe312     1.0  0.89925  0.86689  0.89944  1.0000
  S   S621      1.0  0.91954  0.84024  0.90390  1.0000
  Fe  Fe313     1.0  0.88392  0.89682  0.87032  1.0000
  S   S622      1.0  0.87944  0.90900  0.84046  1.0000
  S   S623      1.0  0.88524  0.88270  0.92383  1.0000
  S   S624      1.0  0.86847  0.91436  0.89282  1.0000
  S   S625      1.0  0.97321  0.94819  0.96668  1.0000
  H   H4945     1.0  0.96417  0.76232  0.75126  1.0000
  C   C2777     1.0  0.93437  0.85518  0.67757  1.0000
  Fe  Fe314     1.0  0.94186  0.94893  0.70531  1.0000
  S   S626      1.0  0.91539  0.94654  0.72547  1.0000
  S   S627      1.0  0.95477  0.97744  0.69815  1.0000
  Fe  Fe315     1.0  0.94176  0.90746  0.69465  1.0000
  S   S628      1.0  0.91583  0.90286  0.71410  1.0000
  S   S629      1.0  0.95765  0.88454  0.67679  1.0000
  Fe  Fe316     1.0  0.90406  0.93170  0.70284  1.0000
  S   S630      1.0  0.87266  0.93380  0.69674  1.0000
  Fe  Fe317     1.0  0.92916  0.91788  0.73491  1.0000
  S   S631      1.0  0.93357  0.90346  0.76402  1.0000
  S   S632      1.0  0.92953  0.93556  0.68218  1.0000
  S   S633      1.0  0.95617  0.92110  0.71595  1.0000
  H   H4946     1.0  0.88359  0.94538  0.85730  1.0000
  S   S634      1.0  0.52029  0.89453  0.72221  1.0000
  H   H4947     1.0  0.78233  0.95958  0.97247  1.0000
  Fe  Fe318     1.0  0.63129  0.96852  0.73662  1.0000
  S   S635      1.0  0.64452  0.96841  0.70612  1.0000
  Fe  Fe319     1.0  0.59697  0.95488  0.76200  1.0000
  S   S636      1.0  0.60342  0.97127  0.78574  1.0000
  S   S637      1.0  0.57075  0.93859  0.76979  1.0000
  Fe  Fe320     1.0  0.63406  0.96086  0.77921  1.0000
  S   S638      1.0  0.65491  0.94788  0.80050  1.0000
  S   S639      1.0  0.60002  0.97938  0.74049  1.0000
  S   S640      1.0  0.62748  0.94279  0.75663  1.0000
  H   H4948     1.0  0.56731  0.82010  0.97040  1.0000
  Fe  Fe321     1.0  0.61953  0.78122  0.95468  1.0000
  H   H4949     1.0  0.66807  0.77056  0.91675  1.0000
  S   S641      1.0  0.62664  0.80895  0.93816  1.0000
  H   H4950     1.0  0.66993  0.81493  0.90489  1.0000
  H   H4951     1.0  0.86087  0.89460  0.70855  1.0000
  S   S642      1.0  0.58975  0.77664  0.96725  1.0000
  H   H4952     1.0  0.92291  0.98402  0.67365  1.0000
  Fe  Fe322     1.0  0.72089  0.92284  0.91765  1.0000
  S   S643      1.0  0.71259  0.91316  0.94755  1.0000
  S   S644      1.0  0.75111  0.92685  0.90480  1.0000
  Fe  Fe323     1.0  0.67954  0.93377  0.90932  1.0000
  S   S645      1.0  0.66856  0.92495  0.93913  1.0000
  S   S646      1.0  0.65805  0.94849  0.88956  1.0000
  Fe  Fe324     1.0  0.69234  0.93961  0.94854  1.0000
  S   S647      1.0  0.68784  0.95617  0.97530  1.0000
  Fe  Fe325     1.0  0.68942  0.89916  0.93610  1.0000
  S   S648      1.0  0.68434  0.86951  0.94969  1.0000
  S   S649      1.0  0.70173  0.95009  0.91913  1.0000
  S   S650      1.0  0.69930  0.90713  0.90581  1.0000
  C   C2778     1.0  0.70284  0.96097  0.70100  1.0000
  H   H4953     1.0  0.90088  0.79888  0.95089  1.0000
  H   H4954     1.0  0.76314  0.76763  0.91513  1.0000
  H   H4955     1.0  0.92401  0.86359  0.68624  1.0000
  H   H4956     1.0  0.75455  0.88806  0.99122  1.0000
  S   S651      1.0  0.50767  0.75615  0.89042  1.0000
  H   H4957     1.0  0.92981  0.86467  0.96147  1.0000
  C   C2779     1.0  0.82691  0.94838  0.66643  1.0000
  C   C2780     1.0  0.64245  0.82582  0.94195  1.0000
  C   C2781     1.0  0.64245  0.84276  0.93042  1.0000
  C   C2782     1.0  0.65495  0.85639  0.93266  1.0000
  C   C2783     1.0  0.66781  0.85317  0.94638  1.0000
  C   C2784     1.0  0.66779  0.83624  0.95791  1.0000
  C   C2785     1.0  0.65512  0.82273  0.95584  1.0000
  H   H4958     1.0  0.63273  0.84534  0.91961  1.0000
  H   H4959     1.0  0.65478  0.86929  0.92364  1.0000
  H   H4960     1.0  0.67765  0.83362  0.96858  1.0000
  H   H4961     1.0  0.65532  0.80981  0.96479  1.0000
  C   C2786     1.0  0.65521  0.94815  0.82534  1.0000
  C   C2787     1.0  0.64118  0.95849  0.83647  1.0000
  C   C2788     1.0  0.64223  0.95831  0.85604  1.0000
  C   C2789     1.0  0.65730  0.94784  0.86481  1.0000
  C   C2790     1.0  0.67122  0.93736  0.85369  1.0000
  C   C2791     1.0  0.67015  0.93753  0.83414  1.0000
  H   H4962     1.0  0.62966  0.96683  0.82997  1.0000
  H   H4963     1.0  0.63138  0.96650  0.86441  1.0000
  H   H4964     1.0  0.68290  0.92925  0.86013  1.0000
  H   H4965     1.0  0.68112  0.92949  0.82573  1.0000
  H   H4966     1.0  0.82057  0.91973  0.90541  1.0000
  H   H4967     1.0  0.73926  0.96704  0.91757  1.0000
  C   C2792     1.0  0.83884  0.94100  0.68044  1.0000
  H   H4968     1.0  0.92627  0.79661  0.95187  1.0000
  C   C2793     1.0  0.53392  0.90735  0.73537  1.0000
  C   C2794     1.0  0.55088  0.91416  0.72688  1.0000
  C   C2795     1.0  0.56222  0.92401  0.73704  1.0000
  C   C2796     1.0  0.55672  0.92713  0.75586  1.0000
  C   C2797     1.0  0.53969  0.92048  0.76428  1.0000
  C   C2798     1.0  0.52834  0.91071  0.75412  1.0000
  H   H4969     1.0  0.55537  0.91165  0.71240  1.0000
  H   H4970     1.0  0.57533  0.92893  0.73038  1.0000
  H   H4971     1.0  0.53528  0.92277  0.77882  1.0000
  H   H4972     1.0  0.51535  0.90562  0.76087  1.0000
  H   H4973     1.0  0.94010  0.75602  0.75279  1.0000
  C   C2799     1.0  0.70740  0.96024  0.68154  1.0000
  H   H4974     1.0  0.73452  0.89281  0.97729  1.0000
  C   C2800     1.0  0.67345  0.96425  0.67769  1.0000
  C   C2801     1.0  0.66889  0.96497  0.69717  1.0000
  H   H4975     1.0  0.88876  0.86715  0.68596  1.0000
  H   H4976     1.0  0.73171  0.96086  0.98306  1.0000
  C   C2802     1.0  0.95236  0.91680  0.88842  1.0000
  H   H4977     1.0  0.58972  0.95852  0.82988  1.0000
  C   C2803     1.0  0.85826  0.94392  0.67879  1.0000
  H   H4978     1.0  0.69585  0.78851  0.90241  1.0000
  S   S652      1.0  0.73182  0.95786  0.67259  1.0000
  H   H4979     1.0  0.50040  0.94520  0.75100  1.0000
  H   H4980     1.0  0.66392  0.75757  0.93900  1.0000
  N   N154      1.0  0.94177  0.94276  0.86280  1.0000
  H   H4981     1.0  0.72371  0.76452  0.95381  1.0000
  H   H4982     1.0  0.51364  0.82765  0.71056  1.0000
  C   C2804     1.0  0.90912  0.98220  0.66838  1.0000
  C   C2805     1.0  0.92364  0.93813  0.93265  1.0000
  C   C2806     1.0  0.92533  0.95626  0.93825  1.0000
  C   C2807     1.0  0.94031  0.95962  0.94869  1.0000
  C   C2808     1.0  0.95392  0.94488  0.95355  1.0000
  C   C2809     1.0  0.95236  0.92679  0.94773  1.0000
  C   C2810     1.0  0.93729  0.92339  0.93741  1.0000
  H   H4983     1.0  0.91487  0.96777  0.93465  1.0000
  H   H4984     1.0  0.94132  0.97361  0.95300  1.0000
  H   H4985     1.0  0.96282  0.91529  0.95137  1.0000
  H   H4986     1.0  0.93622  0.90937  0.93324  1.0000
  C   C2811     1.0  0.89489  0.90741  0.81948  1.0000
  C   C2812     1.0  0.88903  0.91710  0.80286  1.0000
  C   C2813     1.0  0.90068  0.91613  0.78580  1.0000
  C   C2814     1.0  0.91834  0.90537  0.78515  1.0000
  C   C2815     1.0  0.92423  0.89573  0.80179  1.0000
  C   C2816     1.0  0.91262  0.89677  0.81888  1.0000
  H   H4987     1.0  0.87538  0.92542  0.80317  1.0000
  H   H4988     1.0  0.89596  0.92364  0.77314  1.0000
  H   H4989     1.0  0.93788  0.88740  0.80146  1.0000
  H   H4990     1.0  0.91731  0.88921  0.83152  1.0000
  C   C2817     1.0  0.91303  0.81677  0.90770  1.0000
  C   C2818     1.0  0.92717  0.80184  0.91098  1.0000
  C   C2819     1.0  0.92242  0.78316  0.91525  1.0000
  C   C2820     1.0  0.90342  0.77925  0.91635  1.0000
  C   C2821     1.0  0.88933  0.79416  0.91280  1.0000
  C   C2822     1.0  0.89409  0.81279  0.90843  1.0000
  H   H4991     1.0  0.94187  0.80476  0.91043  1.0000
  H   H4992     1.0  0.93341  0.77186  0.91794  1.0000
  H   H4993     1.0  0.87460  0.79128  0.91357  1.0000
  H   H4994     1.0  0.88308  0.82410  0.90585  1.0000
  C   C2823     1.0  0.80851  0.89484  0.91801  1.0000
  C   C2824     1.0  0.79146  0.88671  0.92370  1.0000
  C   C2825     1.0  0.77371  0.89646  0.92015  1.0000
  C   C2826     1.0  0.77286  0.91451  0.91094  1.0000
  C   C2827     1.0  0.78988  0.92282  0.90566  1.0000
  C   C2828     1.0  0.80760  0.91310  0.90930  1.0000
  H   H4995     1.0  0.79201  0.87265  0.93061  1.0000
  H   H4996     1.0  0.76073  0.88986  0.92420  1.0000
  H   H4997     1.0  0.78936  0.93682  0.89864  1.0000
  C   C2829     1.0  0.98343  0.85429  0.71511  1.0000
  C   C2830     1.0  0.95532  0.75054  0.75045  1.0000
  C   C2831     1.0  0.97566  0.84709  0.74939  1.0000
  H   H4998     1.0  0.96622  0.98521  0.88808  1.0000
  C   C2832     1.0  0.51168  0.77770  0.84469  1.0000
  H   H4999     1.0  0.69199  0.79939  0.97062  1.0000
  C   C2833     1.0  0.53083  0.81901  0.89613  1.0000
  H   H5000     1.0  0.52259  0.77512  0.85484  1.0000
  H   H5001     1.0  0.62151  0.96414  0.91267  1.0000
  C   C2834     1.0  0.54842  0.97288  0.73112  1.0000
  S   S653      1.0  0.63980  0.98579  0.75865  1.0000
  H   H5002     1.0  0.75575  0.87910  0.96836  1.0000
  H   H5003     1.0  0.81203  0.94593  0.66790  1.0000
  H   H5004     1.0  0.50854  0.76733  0.81750  1.0000
  H   H5005     1.0  0.52540  0.83780  0.87205  1.0000
  C   C2835     1.0  0.50629  0.76326  0.95368  1.0000
  N   N155      1.0  0.81400  0.89816  0.85114  1.0000
  C   C2836     1.0  0.79397  0.90106  0.86036  1.0000
  C   C2837     1.0  0.82612  0.91071  0.85959  1.0000
  C   C2838     1.0  0.81366  0.90290  0.83032  1.0000
  C   C2839     1.0  0.82235  0.87795  0.85427  1.0000
  C   C2840     1.0  0.82152  0.86965  0.87494  1.0000
  C   C2841     1.0  0.77985  0.88763  0.85515  1.0000
  C   C2842     1.0  0.83340  0.90418  0.81900  1.0000
  C   C2843     1.0  0.82048  0.93227  0.85649  1.0000
  C   C2844     1.0  0.83483  0.94358  0.86392  1.0000
  C   C2845     1.0  0.82901  0.84878  0.87624  1.0000
  C   C2846     1.0  0.76040  0.89143  0.86612  1.0000
  C   C2847     1.0  0.83138  0.90801  0.79803  1.0000
  H   H5006     1.0  0.78753  0.91563  0.85676  1.0000
  H   H5007     1.0  0.79397  0.90003  0.87586  1.0000
  H   H5008     1.0  0.82575  0.90750  0.87495  1.0000
  H   H5009     1.0  0.84134  0.90763  0.85453  1.0000
  H   H5010     1.0  0.80479  0.91644  0.82744  1.0000
  H   H5011     1.0  0.80657  0.89214  0.82397  1.0000
  H   H5012     1.0  0.81550  0.86849  0.84601  1.0000
  H   H5013     1.0  0.83767  0.87649  0.84893  1.0000
  H   H5014     1.0  0.80685  0.87075  0.88195  1.0000
  H   H5015     1.0  0.83051  0.87715  0.88295  1.0000
  H   H5016     1.0  0.77780  0.88974  0.84000  1.0000
  H   H5017     1.0  0.78492  0.87262  0.85845  1.0000
  H   H5018     1.0  0.84276  0.89087  0.82093  1.0000
  H   H5019     1.0  0.84073  0.91583  0.82338  1.0000
  H   H5020     1.0  0.81984  0.93680  0.84143  1.0000
  H   H5021     1.0  0.80639  0.93623  0.86402  1.0000
  H   H5022     1.0  0.83065  0.95891  0.86124  1.0000
  H   H5023     1.0  0.83524  0.94044  0.87926  1.0000
  H   H5024     1.0  0.84925  0.94021  0.85676  1.0000
  H   H5025     1.0  0.82917  0.84355  0.89123  1.0000
  H   H5026     1.0  0.81972  0.84035  0.86946  1.0000
  H   H5027     1.0  0.84377  0.84671  0.86944  1.0000
  H   H5028     1.0  0.75446  0.90631  0.86330  1.0000
  H   H5029     1.0  0.75033  0.88201  0.86192  1.0000
  H   H5030     1.0  0.76157  0.88867  0.88142  1.0000
  H   H5031     1.0  0.82472  0.89641  0.79262  1.0000
  H   H5032     1.0  0.82262  0.92160  0.79525  1.0000
  H   H5033     1.0  0.84569  0.90893  0.79037  1.0000
  N   N156      1.0  0.61511  0.89906  0.80840  1.0000
  C   C2848     1.0  0.61987  0.87945  0.81723  1.0000
  C   C2849     1.0  0.63324  0.90665  0.79956  1.0000
  C   C2850     1.0  0.60725  0.91148  0.82399  1.0000
  C   C2851     1.0  0.60059  0.89988  0.79423  1.0000
  C   C2852     1.0  0.60056  0.88224  0.78295  1.0000
  C   C2853     1.0  0.60347  0.87096  0.83002  1.0000
  C   C2854     1.0  0.60269  0.93272  0.81815  1.0000
  C   C2855     1.0  0.64456  0.89566  0.78367  1.0000
  C   C2856     1.0  0.66370  0.90347  0.77783  1.0000
  C   C2857     1.0  0.58759  0.88632  0.76707  1.0000
  C   C2858     1.0  0.60739  0.84958  0.83355  1.0000
  C   C2859     1.0  0.50019  0.83622  0.68472  1.0000
  H   H5034     1.0  0.63204  0.87934  0.82595  1.0000
  H   H5035     1.0  0.62499  0.86941  0.80645  1.0000
  H   H5036     1.0  0.63017  0.92115  0.79310  1.0000
  H   H5037     1.0  0.64301  0.90788  0.81055  1.0000
  H   H5038     1.0  0.61733  0.91044  0.83509  1.0000
  H   H5039     1.0  0.59370  0.90667  0.83091  1.0000
  H   H5040     1.0  0.58584  0.90244  0.80109  1.0000
  H   H5041     1.0  0.60221  0.91231  0.78395  1.0000
  H   H5042     1.0  0.59518  0.87036  0.79217  1.0000
  H   H5043     1.0  0.61491  0.87733  0.77672  1.0000
  H   H5044     1.0  0.60199  0.87710  0.84387  1.0000
  H   H5045     1.0  0.58967  0.87410  0.82384  1.0000
  H   H5046     1.0  0.59358  0.93473  0.80634  1.0000
  H   H5047     1.0  0.61596  0.93947  0.81393  1.0000
  H   H5048     1.0  0.64765  0.88050  0.78794  1.0000
  H   H5049     1.0  0.63654  0.89729  0.77107  1.0000
  H   H5050     1.0  0.66157  0.91847  0.77237  1.0000
  H   H5051     1.0  0.67247  0.90248  0.78991  1.0000
  H   H5052     1.0  0.67162  0.89528  0.76656  1.0000
  H   H5053     1.0  0.59264  0.89781  0.75703  1.0000
  H   H5054     1.0  0.58761  0.87349  0.75935  1.0000
  H   H5055     1.0  0.57275  0.89054  0.77275  1.0000
  H   H5056     1.0  0.60812  0.84260  0.82022  1.0000
  H   H5057     1.0  0.62100  0.84595  0.84003  1.0000
  H   H5058     1.0  0.59573  0.84408  0.84327  1.0000
  C   C2860     1.0  0.86560  0.95442  0.66294  1.0000
  H   H5059     1.0  0.96246  0.89257  0.90618  1.0000
  H   H5060     1.0  0.52225  0.90041  0.67460  1.0000
  H   H5061     1.0  0.86265  0.83039  0.93599  1.0000
  C   C2861     1.0  0.50914  0.82116  0.69841  1.0000
  C   C2862     1.0  0.97015  0.82484  0.72675  1.0000
  C   C2863     1.0  0.75349  0.77265  0.92723  1.0000
  H   H5062     1.0  0.99142  0.87699  0.73124  1.0000
  C   C2864     1.0  0.95024  0.85568  0.72877  1.0000
  H   H5063     1.0  0.63131  0.99348  0.96608  1.0000
  H   H5064     1.0  0.92936  0.99681  0.73350  1.0000
  H   H5065     1.0  0.73479  0.92725  0.97977  1.0000
  C   C2865     1.0  0.93389  0.84659  0.74114  1.0000
  C   C2866     1.0  0.96238  0.82047  0.70830  1.0000
  Fe  Fe326     1.0  0.60840  0.99487  0.76377  1.0000
  C   C2867     1.0  0.94867  0.97746  0.86719  1.0000
  S   S654      1.0  0.63285  0.76996  0.98068  1.0000
  C   C2868     1.0  0.91478  0.85818  0.73910  1.0000
  C   C2869     1.0  0.51888  0.82566  0.87985  1.0000
  H   H5066     1.0  0.50873  0.97863  0.77591  1.0000
  H   H5067     1.0  0.91437  0.98801  0.70657  1.0000
  C   C2870     1.0  0.81168  0.93552  0.95519  1.0000
  H   H5068     1.0  0.94654  0.85737  0.71401  1.0000
  H   H5069     1.0  0.94990  0.87039  0.73297  1.0000
  H   H5070     1.0  0.54600  0.97709  0.70101  1.0000
  C   C2871     1.0  0.96261  0.79921  0.70691  1.0000
  H   H5071     1.0  0.78369  0.93608  0.98236  1.0000
  C   C2872     1.0  0.75856  0.90910  0.96773  1.0000
  H   H5072     1.0  0.73329  0.75318  0.92389  1.0000
  C   C2873     1.0  0.69256  0.96189  0.66991  1.0000
  H   H5073     1.0  0.93639  0.84577  0.75618  1.0000
  H   H5074     1.0  0.93246  0.83218  0.73718  1.0000
  H   H5075     1.0  0.94752  0.82672  0.70741  1.0000
  C   C2874     1.0  0.68514  0.81750  0.90467  1.0000
  H   H5076     1.0  0.81405  0.92352  0.96582  1.0000
  H   H5077     1.0  0.86144  0.90168  0.67422  1.0000
  H   H5078     1.0  0.53276  0.80745  0.85902  1.0000
  H   H5079     1.0  0.96215  0.94205  0.80563  1.0000
  C   C2875     1.0  0.95187  0.92341  0.86725  1.0000
  H   H5080     1.0  0.88391  0.98401  0.73275  1.0000
  H   H5081     1.0  0.52185  0.80259  0.82949  1.0000
  H   H5082     1.0  0.50453  0.83092  0.88590  1.0000
  H   H5083     1.0  0.91490  0.87229  0.74450  1.0000
  H   H5084     1.0  0.91162  0.85983  0.72420  1.0000
  H   H5085     1.0  0.90328  0.85093  0.74744  1.0000
  H   H5086     1.0  0.75432  0.78805  0.92768  1.0000
  H   H5087     1.0  0.72268  0.78881  0.94571  1.0000
  H   H5088     1.0  0.65050  0.97762  0.91901  1.0000
  H   H5089     1.0  0.88954  0.97110  0.70219  1.0000
  H   H5090     1.0  0.52168  0.81313  0.69129  1.0000
  H   H5091     1.0  0.97735  0.79223  0.70702  1.0000
  C   C2876     1.0  0.53244  0.88875  0.66935  1.0000
  C   C2877     1.0  0.60689  0.83529  0.98794  1.0000
  C   C2878     1.0  0.95177  0.86211  0.67119  1.0000
  H   H5092     1.0  0.71418  0.95973  0.71016  1.0000
  C   C2879     1.0  0.94886  0.95647  0.87486  1.0000
  H   H5093     1.0  0.97123  0.82602  0.69589  1.0000
  C   C2880     1.0  0.67326  0.75808  0.92575  1.0000
  C   C2881     1.0  0.91238  0.79628  0.96039  1.0000
  C   C2882     1.0  0.86914  0.88783  0.67080  1.0000
  H   H5094     1.0  0.61642  0.98383  0.94021  1.0000
  C   C2883     1.0  0.69693  0.79971  0.91190  1.0000
  H   H5095     1.0  0.53281  0.76960  0.82185  1.0000
  C   C2884     1.0  0.86072  0.96793  0.73058  1.0000
  H   H5096     1.0  0.94713  0.92043  0.83045  1.0000
  H   H5097     1.0  0.96695  0.92274  0.86104  1.0000
  H   H5098     1.0  0.70891  0.78055  0.97813  1.0000
  C   C2885     1.0  0.94645  0.94199  0.80799  1.0000
  H   H5099     1.0  0.89723  0.82985  0.94153  1.0000
  H   H5100     1.0  0.96407  0.95229  0.87719  1.0000
  H   H5101     1.0  0.59062  0.82170  0.95839  1.0000
  C   C2886     1.0  0.90757  0.95980  0.86348  1.0000
  H   H5102     1.0  0.94522  0.91240  0.86078  1.0000
  H   H5103     1.0  0.69167  0.75675  0.96549  1.0000
  H   H5104     1.0  0.67809  0.98798  0.90933  1.0000
  H   H5105     1.0  0.51646  0.79637  0.87574  1.0000
  C   C2887     1.0  0.75274  0.97039  0.94289  1.0000
  H   H5106     1.0  0.56742  0.98477  0.70850  1.0000
  C   C2888     1.0  0.85887  0.83720  0.94937  1.0000
  H   H5107     1.0  0.52435  0.96333  0.76217  1.0000
  H   H5108     1.0  0.89751  0.77487  0.97770  1.0000
  N   N157      1.0  0.50672  0.86696  0.66429  1.0000
  C   C2889     1.0  0.94669  0.94816  0.84226  1.0000
  C   C2890     1.0  0.86856  0.88053  0.70604  1.0000
  C   C2891     1.0  0.89365  0.83628  0.95512  1.0000
  H   H5109     1.0  0.87025  0.95458  0.73018  1.0000
  H   H5110     1.0  0.56509  0.95999  0.70775  1.0000
  C   C2892     1.0  0.90590  0.84379  0.98395  1.0000
  H   H5111     1.0  0.68620  0.82939  0.91343  1.0000
  H   H5112     1.0  0.88075  0.99555  0.66708  1.0000
  C   C2893     1.0  0.94049  0.93510  0.82822  1.0000
  C   C2894     1.0  0.50853  0.79887  0.83792  1.0000
  C   C2895     1.0  0.95234  0.98996  0.88246  1.0000
  H   H5113     1.0  0.66019  0.86951  0.98756  1.0000
  H   H5114     1.0  0.53712  0.87960  0.68160  1.0000
  H   H5115     1.0  0.91587  0.93010  0.85974  1.0000
  H   H5116     1.0  0.93787  0.91681  0.89566  1.0000
  H   H5117     1.0  0.92480  0.93493  0.82954  1.0000
  C   C2896     1.0  0.68374  0.96333  0.70879  1.0000
  H   H5118     1.0  0.93576  0.84605  0.98938  1.0000
  H   H5119     1.0  0.65425  0.98178  0.96899  1.0000
  H   H5120     1.0  0.68052  0.96389  0.72378  1.0000
  H   H5121     1.0  0.60194  0.85038  0.98477  1.0000
  C   C2897     1.0  0.77842  0.94527  0.97030  1.0000
  C   C2898     1.0  0.97385  0.98891  0.70562  1.0000
  H   H5122     1.0  0.92963  0.82688  0.94342  1.0000
  H   H5123     1.0  0.90255  0.85883  0.97890  1.0000
  C   C2899     1.0  0.68850  0.77172  0.96007  1.0000
  H   H5124     1.0  0.57648  0.84281  0.96578  1.0000
  H   H5125     1.0  0.94085  0.98950  0.89415  1.0000
  H   H5126     1.0  0.91339  0.76603  0.95861  1.0000
  C   C2900     1.0  0.51565  0.97726  0.76146  1.0000
  H   H5127     1.0  0.67277  0.77398  0.95997  1.0000
  H   H5128     1.0  0.64465  0.89086  0.99042  1.0000
  Fe  Fe327     1.0  0.98136  0.97342  0.98107  1.0000
  H   H5129     1.0  0.66651  0.78633  0.99172  1.0000
  N   N158      1.0  0.52828  0.99293  0.75590  1.0000
  H   H5130     1.0  0.53284  0.77541  0.95495  1.0000
  H   H5131     1.0  0.78623  0.92633  0.94697  1.0000
  H   H5132     1.0  0.90965  0.97024  0.87350  1.0000
  C   C2901     1.0  0.53730  0.99198  0.73601  1.0000
  H   H5133     1.0  0.86770  0.98131  0.69490  1.0000
  H   H5134     1.0  0.95455  0.88660  0.88459  1.0000
  N   N159      1.0  0.69819  0.77497  0.94049  1.0000
  C   C2902     1.0  0.75029  0.89123  0.97676  1.0000
  C   C2903     1.0  0.51878  0.76563  0.82833  1.0000
  H   H5135     1.0  0.50507  0.76890  0.93898  1.0000
  C   C2904     1.0  0.92812  0.83472  0.95633  1.0000
  H   H5136     1.0  0.94041  0.82877  0.96415  1.0000
  H   H5137     1.0  0.96190  0.85194  0.94794  1.0000
  C   C2905     1.0  0.79058  0.93921  0.95213  1.0000
  H   H5138     1.0  0.78918  0.95050  0.94065  1.0000
  C   C2906     1.0  0.54422  0.99044  0.76866  1.0000
  H   H5139     1.0  0.96237  0.94875  0.83947  1.0000
  C   C2907     1.0  0.75066  0.92652  0.97853  1.0000
  H   H5140     1.0  0.92003  0.86132  0.94001  1.0000
  H   H5141     1.0  0.70943  0.98935  0.92298  1.0000
  H   H5142     1.0  0.96026  0.92605  0.89583  1.0000
  H   H5143     1.0  0.92305  0.77268  0.97904  1.0000
  C   C2908     1.0  0.92070  0.94149  0.86724  1.0000
  H   H5144     1.0  0.85804  0.87785  0.67103  1.0000
  H   H5145     1.0  0.65786  0.96599  0.93987  1.0000
  C   C2909     1.0  0.69330  0.97706  0.98517  1.0000
  H   H5146     1.0  0.67413  0.79454  0.93351  1.0000
  C   C2910     1.0  0.96225  0.89682  0.89098  1.0000
  H   H5147     1.0  0.97717  0.89623  0.88454  1.0000
  H   H5148     1.0  0.95710  0.79655  0.69353  1.0000
  H   H5149     1.0  0.51768  0.83718  0.84230  1.0000
  H   H5150     1.0  0.75501  0.91089  0.95301  1.0000
  H   H5151     1.0  0.62700  0.86665  0.98032  1.0000
  C   C2911     1.0  0.53846  0.99403  0.78960  1.0000
  C   C2912     1.0  0.88664  0.95615  0.86657  1.0000
  H   H5152     1.0  0.56258  0.76673  0.92347  1.0000
  H   H5153     1.0  0.53207  0.83105  0.90461  1.0000
  C   C2913     1.0  0.68995  0.79386  0.93239  1.0000
  H   H5154     1.0  0.59182  0.80948  0.99177  1.0000
  H   H5155     1.0  0.84892  0.96716  0.72170  1.0000
  H   H5156     1.0  0.95195  0.87219  0.93427  1.0000
  C   C2914     1.0  0.58880  0.82485  0.98847  1.0000
  H   H5157     1.0  0.69312  0.80539  0.94069  1.0000
  H   H5158     1.0  0.92278  0.80750  0.98364  1.0000
  H   H5159     1.0  0.75658  0.93994  0.94141  1.0000
  H   H5160     1.0  0.86896  0.83760  0.97641  1.0000
  H   H5161     1.0  0.83293  0.93289  0.69262  1.0000
  N   N160      1.0  0.90953  0.83144  0.96768  1.0000
  H   H5162     1.0  0.96221  0.81726  0.73870  1.0000
  C   C2915     1.0  0.50301  0.83266  0.84401  1.0000
  H   H5163     1.0  0.97815  0.85428  0.70107  1.0000
  C   C2916     1.0  0.87370  0.83083  0.96320  1.0000
  H   H5164     1.0  0.68074  0.98621  0.94474  1.0000
  H   H5165     1.0  0.73608  0.99135  0.69546  1.0000
  H   H5166     1.0  0.72904  0.77584  0.91158  1.0000
  H   H5167     1.0  0.98225  0.96738  0.72672  1.0000
  C   C2917     1.0  0.51840  0.77590  0.96257  1.0000
  C   C2918     1.0  0.95040  0.85717  0.93887  1.0000
  H   H5168     1.0  0.53885  0.96142  0.73283  1.0000
  C   C2919     1.0  0.87189  0.98477  0.72392  1.0000
  C   C2920     1.0  0.74745  0.96006  0.98334  1.0000
  H   H5169     1.0  0.70906  0.98866  0.96058  1.0000
  H   H5170     1.0  0.55594  0.90575  0.66967  1.0000
  H   H5171     1.0  0.52747  0.84359  0.67162  1.0000
  C   C2921     1.0  0.70386  0.99063  0.97498  1.0000
  H   H5172     1.0  0.97329  0.88415  0.71569  1.0000
  H   H5173     1.0  0.51811  0.85706  0.69057  1.0000
  C   C2922     1.0  0.93038  0.83735  0.67266  1.0000
  H   H5174     1.0  0.85806  0.87007  0.70596  1.0000
  C   C2923     1.0  0.71933  0.77473  0.94206  1.0000
  H   H5175     1.0  0.95195  0.84897  0.92623  1.0000
  C   C2924     1.0  0.62735  0.97155  0.94022  1.0000
  H   H5176     1.0  0.52798  0.98439  0.79602  1.0000
  H   H5177     1.0  0.82000  0.93178  0.94186  1.0000
  H   H5178     1.0  0.54725  0.75330  0.99139  1.0000
  C   C2925     1.0  0.87954  0.98409  0.70302  1.0000
  H   H5179     1.0  0.60112  0.94193  0.84649  1.0000
  H   H5180     1.0  0.64499  0.83771  0.99104  1.0000
  C   C2926     1.0  0.51410  0.85119  0.67779  1.0000
  H   H5181     1.0  0.77419  0.90651  0.96814  1.0000
  C   C2927     1.0  0.59232  0.94329  0.83441  1.0000
  H   H5182     1.0  0.95341  0.79289  0.71867  1.0000
  H   H5183     1.0  0.76632  0.97512  0.94624  1.0000
  H   H5184     1.0  0.89172  0.89143  0.68864  1.0000
  C   C2928     1.0  0.52540  0.74895  0.90604  1.0000
  H   H5185     1.0  0.50708  0.83014  0.81348  1.0000
  H   H5186     1.0  0.55146  0.97589  0.76861  1.0000
  H   H5187     1.0  0.89768  0.80857  0.98523  1.0000
  H   H5188     1.0  0.88298  0.95126  0.88144  1.0000
  C   C2929     1.0  0.74994  0.95008  0.95156  1.0000
  H   H5189     1.0  0.91750  0.93712  0.88225  1.0000
  H   H5190     1.0  0.85457  0.96932  0.74528  1.0000
  H   H5191     1.0  0.84471  0.83316  0.95538  1.0000
  H   H5192     1.0  0.85776  0.85278  0.94644  1.0000
  C   C2930     1.0  0.75250  0.97194  0.92160  1.0000
  H   H5193     1.0  0.87752  0.87629  0.71777  1.0000
  C   C2931     1.0  0.93087  0.85555  0.94959  1.0000
  H   H5194     1.0  0.94193  0.93243  0.79823  1.0000
  H   H5195     1.0  0.94031  0.96256  0.83819  1.0000
  H   H5196     1.0  0.73442  0.94848  0.95221  1.0000
  C   C2932     1.0  0.62190  0.95756  0.92720  1.0000
  C   C2933     1.0  0.55260  0.75681  0.92143  1.0000
  H   H5197     1.0  0.71188  0.80316  0.91113  1.0000
  H   H5198     1.0  0.51989  0.77100  0.97746  1.0000
  H   H5199     1.0  0.69049  0.82165  0.89003  1.0000
  H   H5200     1.0  0.60759  0.95316  0.93210  1.0000
  C   C2934     1.0  0.51829  0.80959  0.86661  1.0000
  H   H5201     1.0  0.89200  0.85171  0.95136  1.0000
  H   H5202     1.0  0.93960  0.95642  0.80465  1.0000
  C   C2935     1.0  0.53845  0.76172  0.90895  1.0000
  H   H5203     1.0  0.63225  0.94480  0.92708  1.0000
  H   H5204     1.0  0.52395  0.80794  0.90538  1.0000
  C   C2936     1.0  0.55722  0.97384  0.71082  1.0000
  N   N161      1.0  0.75706  0.94533  0.97065  1.0000
  C   C2937     1.0  0.64765  0.97761  0.93447  1.0000
  H   H5205     1.0  0.76493  0.96329  0.91504  1.0000
  H   H5206     1.0  0.96013  0.97891  0.85558  1.0000
  C   C2938     1.0  0.91152  0.77629  0.96961  1.0000
  S   S655      1.0  0.62346  0.75313  0.94173  1.0000
  C   C2939     1.0  0.88115  0.88138  0.68750  1.0000
  N   N162      1.0  0.50324  0.81265  0.85288  1.0000
  H   H5207     1.0  0.91021  0.96591  0.84889  1.0000
  H   H5208     1.0  0.87754  0.96939  0.86333  1.0000
  H   H5209     1.0  0.91682  0.83220  0.67755  1.0000
  C   C2940     1.0  0.91037  0.81106  0.97527  1.0000
  H   H5210     1.0  0.57839  0.93778  0.83887  1.0000
  H   H5211     1.0  0.54537  0.81326  0.89084  1.0000
  H   H5212     1.0  0.93508  0.98312  0.86165  1.0000
  H   H5213     1.0  0.53774  0.77543  0.90139  1.0000
  H   H5214     1.0  0.52049  0.75053  0.83354  1.0000
  H   H5215     1.0  0.62679  0.96459  0.95467  1.0000
  H   H5216     1.0  0.55142  0.99375  0.81574  1.0000
  H   H5217     1.0  0.75157  0.97431  0.97823  1.0000
  H   H5218     1.0  0.66209  0.96545  0.66857  1.0000
  H   H5219     1.0  0.56191  0.97576  0.80068  1.0000
  S   S656      1.0  0.89633  0.75628  0.92271  1.0000
  C   C2941     1.0  0.98498  0.98100  0.71986  1.0000
  H   H5220     1.0  0.81699  0.94828  0.95983  1.0000
  H   H5221     1.0  0.87372  0.81532  0.96599  1.0000
  C   C2942     1.0  0.69388  0.78418  0.97512  1.0000
  C   C2943     1.0  0.58034  0.82760  0.96958  1.0000
  H   H5222     1.0  0.74104  0.98042  0.94869  1.0000
  H   H5223     1.0  0.56021  0.96898  0.74008  1.0000
  H   H5224     1.0  0.61666  0.83093  0.97559  1.0000
  H   H5225     1.0  0.94090  0.95583  0.88909  1.0000
  C   C2944     1.0  0.69429  0.75900  0.92935  1.0000
  H   H5226     1.0  0.90457  0.96848  0.67437  1.0000
  N   N163      1.0  0.96987  0.84548  0.72999  1.0000
  C   C2945     1.0  0.73314  0.76864  0.92498  1.0000
  Fe  Fe328     1.0  0.60355  0.76341  0.99261  1.0000
  H   H5227     1.0  0.50421  0.97637  0.73400  1.0000
  H   H5228     1.0  0.75849  0.76517  0.94028  1.0000
  C   C2946     1.0  0.64675  0.99482  0.96249  1.0000
  H   H5229     1.0  0.70223  0.75952  0.91528  1.0000
  H   H5230     1.0  0.75498  0.92306  0.99293  1.0000
  H   H5231     1.0  0.51189  0.79074  0.96177  1.0000
  C   C2947     1.0  0.49925  0.97597  0.74911  1.0000
  C   C2948     1.0  0.55574  0.99070  0.80094  1.0000
  H   H5232     1.0  0.50642  0.86432  0.81871  1.0000
  H   H5233     1.0  0.75322  0.98686  0.91610  1.0000
  H   H5234     1.0  0.89297  0.84008  0.99299  1.0000
  H   H5235     1.0  0.90330  0.90223  0.66122  1.0000
  H   H5236     1.0  0.52658  0.99507  0.72572  1.0000
  H   H5237     1.0  0.96672  0.83885  0.75998  1.0000
  H   H5238     1.0  0.71372  0.99646  0.67044  1.0000
  N   N164      1.0  0.65143  0.99610  0.94144  1.0000
  C   C2949     1.0  0.98668  0.87505  0.71737  1.0000
  H   H5239     1.0  0.88049  0.95649  0.66126  1.0000
  H   H5240     1.0  0.99749  0.84574  0.71401  1.0000
  H   H5241     1.0  0.97278  0.86193  0.75344  1.0000
  C   C2950     1.0  0.94378  0.82607  0.66150  1.0000
  H   H5242     1.0  0.51417  0.74900  0.95351  1.0000
  H   H5243     1.0  0.98495  0.81792  0.72634  1.0000
  H   H5244     1.0  0.49818  0.77263  0.85128  1.0000
  H   H5245     1.0  0.99139  0.83466  0.78286  1.0000
  H   H5246     1.0  0.49855  0.81114  0.70377  1.0000
  C   C2951     1.0  0.99663  0.84011  0.75253  1.0000
  H   H5247     1.0  0.99756  0.88069  0.68816  1.0000
  H   H5248     1.0  0.86219  0.99768  0.72644  1.0000
  C   C2952     1.0  0.68154  0.78120  0.99358  1.0000
