data_image0
_chemical_formula_structural       FeSHFeS2HFeS3FeS2FeS2FeSFeS3FeSCFeS2FeSFeS2FeS2FeS2FeSFeS3C6H4C6H4C6H4C6H5CHCHCH11NH2CH7CHCH3C2HC2HCH2C2HCH6CH5CH3CSH5NC12H30C2HCHC2H2FeH6NHCHC2HCHSCHC3H8CH11NHCH3NC10H22NC12H15CHCH4C2HCH3CH4CH3CSCH2C3HC2H2CH2C3H6CH3CHCH4CH2C3SHCHSH2CSH7FeS2FeCSFeSCHS2FeS2HSFeSFeS3C4H3C6H4C3H2C6H5CH4C2Fe2C6H3CHCHC3HCH2CHCH4CH2CH4FeH2CHCHCH7CNC2HCH3C2H4NH5CH3C3H5CH2CH3CH3C2H2CHC2H4CHCHCH7SNHCHSH3CH2C2H4CHNHCHC2H3C2HCSH5C2H6CHNHC3H3CS4HCFeS2FeS2FeHFeS3FeS2FeS2FeSFeCS2C6H5CH3CH4C2H2C2HCH4C4H3C7H4C6H4C2SH3SH4C3H3C2H4C4H5C2H3CHCNH4CH2CHC2HNH2SHCH2C2H3CH3CH3C2HCHCFe2HCNCH3NHCH6NHCHCH2CH4FeCH3FeCFeHCH2SH5CHCH3CSC3H5CH2CH9CFeHCHCHCFeH2CH5C2H5CH4CH2CHCHCSCHC3FeS2FeS2FeSFeS3FeSCFeS2FeSFeS2FeS2FeS2FeSFeS3FeSFeS2FeHFeS3C6H4C6H2CHC6H4C6H4CHCHC2H7C2H5CH3CH3CH2NC10HCH16CH9CH3C2H2CH3CH4CH5CH3C2HC3HNC12H22CH6NC2H5C2H8CHC3H8SCH2CSHCH6NCHC2HC2H5C2NH2C2H4CHCH2CHCHCHCH2CH2CHCH2C3H5CHNHCH3C2HCH3CH4CH2CHC2HCHSH2NH10CH8CHC2HSH5CHCHCHC4H2C2H5CH3C2H2CH4CH3CH4CH2FeS2CH4C2S2FeSHFeSHCHFeSHSFeS2FeS2FeCFeS3FeS2FeS2FeSFeS3C6H4CH2CH2C6H7CHCH4C6H4CHC3HC3H2C2H5CHSH6C3HC5H7CHC2HC2H2CH5NH6C5H10CH2CH3C2H4CHCH4CHCH3C3H4NH2CHCHSHC2H4CHCHCH2CHCHNC3HFeC2H2NC2H9CHSH3CH2CH2CH3CH7CH2CH3CH3CH2C2H2CHNH9CHCHCHC2H2CNH3CH2C4H2CH3CFeCH2CH9CHC2H8C2H2CHCH2FeHFeS2FeSHFeS2FeS2FeS2FeS2FeSFeS3FeS2FeS2FeSFeS3C2H4C2HNH6CH2C3HC6H8CHCH2C4H2C6H8C11H8CH3CH2CH2CHC3H4C2H4C2NCH2C2HCHCH2C4H2C3H8CH5CHCHCH3CH2C3HC2FeHC2HSH5CHCH3C6H2CH3SCHCH4CHCH3NHNHC4H2SCH4C4H6C2HCH10C2H2NSHSCH2C2HSNHCH5CSH4C2H5NHFeC2H6C2H2CFeCH7SH6FeH2C3NH2CH2CH7CHCH6CH2C2HFeS2FeS2FeSFeS3FeS2FeS2FeSFeS3CSHCH3NH2C8H4C6H4C6H4CHCH6C2HCH7SC5H4C6H3N2HC3HCH2C3H3C2H3CH5CSH12C2HNCHC3HCH3CH2C3HCHCHCH2SHCHCH10CH2C3H5CH3CH8CHCSH4C6H5CH5C3H3CNCH2C2H3C2H4NC2H2CHCH3CHCHCH2C2H10CH6CH5NSH4C3H6C3NH4CH4CHCHCH3C5H12CH7CHCH4SHCH2CHCFeHCH4CHSH3CH4SH3FeS2FeS2FeSFeS3FeS2FeS2FeSFeS3C6H4C6H4C6H3C6H4C3HCHC6H11CH4CH3C2H5CH2C3H8CH2CH7CH2CHCSCHNC2H2C2H3C3H2C2H4C2H4C2NCH4C2HC3HCH2CH6FeC2H3CH6CNC5HC4HCH8CH2CH6CH3CHCH3NC7H11SH3FeHC4HCH3CHC3H9CH3CH7CHNH8S2HSCH2CH4CH6SCH3CHCH2CH5CNCSFeS2FeSFeS3HFeSCFeSHSCSCHSFeSFeSH2FeHS2HSFeSC2H2C2H6C6H4C6H4CHC2HC2H5CH3C6H4C3HCH4C7H4NC2H4NC2H2CH7C2H2C2H9SFeCH2CHCHCHCFeH4NCHSH4SCH3CHCHCNSH4CHFeH2CH2SHCFeCHCFeSCH4CH5FeH4C2H3CH5CSCFeC2SHCH5SH2CHC2HCH4C2H3SHCH2CSC2HCH2CHC2H7NHCHCH2CH2CH3CH4CHC2HCH5C2H3C2H3C2HCH3CH4CHCH3CH4C2H4CSH8SFeS2FeS2FeSFeS3FeS2FeS2FeSFeS3H3C6H4C2HC3H2CHC6H4C6H4C2HC3H4C2H2C6H6CNC6H4CNC8HCH14CH4CH4NHC4HC3H2CHFeH7C2H3CH4CHC3H4C3H12C3HCH2CHCHSCH7C2H2CH8NC2H2CH3C2HCH3FeH2C3H2CHCH3CHCHCNCHCNC11H22CHCHCH4CH5SH4C2H2CSH2CH7FeHNH3SH3CH4CH7CH2CH3SH5C2HC2H3CH4CSC3SH2C2H2CSH2CHCFeH3CHC2HFeH2FeH7SCHCH2C2H5S2H2C2H4CHCH3SC2HCSH3CH3CH2CH2CH2CNCH2CHSHCHCH2C2H3NCH2CSHCFeS2FeS2FeSFeS3FeS2FeS2FeSFeS3C4HC3HC7H4C2HC2H2SHCH2C6H8C4H2CHCHC8H6NHCHCH2CH3CHC2NH2C2H9NH10C2H3NC4H2CH6SCHC2H7CH2CH2C2H5CH2C2HFeH2CNH3FeH10SHNH5SCH6CH4C2HSCH4CH7SH2C2HCHCH2CH6CHCSC2H3NC4HC6H11CH8CH4CH2C3H4CH3CH2CH2CH5C3H2C2H4CH2CH2CNH3C2HC3HCHC3HC2HCH2C2H8CH4C2H3CHC3HC2H2CH4CHC2HCH10CH4CHCSH5CH3CH7CNH3CH2FeS2FeSCFeSFeS3HSHFeSHFeSFeHSCFeS2FeSHFeSFeS3FeCSFeCH5S2HCHCH3C2H3C6H9CH2CNCH3CH2CHCH2C6H4C6H5C2HCHCH2C2H7SH2CH3CNC9H23C2HCH9NH4C4HCHCHC2H4CH3CHCH2CH2NC12H27C2HC4H4CHC3SHCHCH3NHC3HCH5CH4C2H4CHC3H3NH4C2HC2SH2C2HC2H2C2FeH2CH2CH7CH
_chemical_formula_sum              "Fe160 S320 H2560 C1440 N80"
_cell_length_a       80.4508
_cell_length_b       80.5746
_cell_length_c       37.2044
_cell_angle_alpha    88.7185
_cell_angle_beta     88.9451
_cell_angle_gamma    79.3974

_space_group_name_H-M_alt    "P 1"
_space_group_IT_number       1

loop_
  _space_group_symop_operation_xyz
  'x, y, z'

loop_
  _atom_site_type_symbol
  _atom_site_label
  _atom_site_symmetry_multiplicity
  _atom_site_fract_x
  _atom_site_fract_y
  _atom_site_fract_z
  _atom_site_occupancy
  Fe  Fe1       1.0  0.05150  0.23238  0.68487  1.0000
  S   S1        1.0  0.05610  0.21082  0.72529  1.0000
  H   H1        1.0  0.02370  0.18279  0.25713  1.0000
  Fe  Fe2       1.0  0.04272  0.20906  0.62592  1.0000
  S   S2        1.0  0.04668  0.18590  0.66185  1.0000
  S   S3        1.0  0.03103  0.20947  0.57108  1.0000
  H   H2        1.0  0.17122  0.01296  0.22577  1.0000
  Fe  Fe3       1.0  0.06994  0.19506  0.68018  1.0000
  S   S4        1.0  0.09730  0.18021  0.68187  1.0000
  S   S5        1.0  0.02729  0.22567  0.66608  1.0000
  S   S6        1.0  0.06666  0.21733  0.64110  1.0000
  Fe  Fe4       1.0  0.19752  0.07757  0.69435  1.0000
  S   S7        1.0  0.17327  0.06834  0.70704  1.0000
  S   S8        1.0  0.21271  0.08032  0.74502  1.0000
  Fe  Fe5       1.0  0.18954  0.07862  0.61408  1.0000
  S   S9        1.0  0.16530  0.06877  0.62185  1.0000
  S   S10       1.0  0.19793  0.08697  0.55928  1.0000
  Fe  Fe6       1.0  0.16041  0.08755  0.66672  1.0000
  S   S11       1.0  0.13329  0.10230  0.67504  1.0000
  Fe  Fe7       1.0  0.18019  0.05054  0.66143  1.0000
  S   S12       1.0  0.18132  0.02295  0.67789  1.0000
  S   S13       1.0  0.18406  0.09819  0.65733  1.0000
  S   S14       1.0  0.20495  0.05904  0.65008  1.0000
  Fe  Fe8       1.0  0.05659  0.22586  0.30184  1.0000
  S   S15       1.0  0.04468  0.20333  0.28942  1.0000
  C   C1        1.0  0.19113  0.02687  0.21702  1.0000
  Fe  Fe9       1.0  0.06329  0.21337  0.37907  1.0000
  S   S16       1.0  0.05139  0.19063  0.37259  1.0000
  S   S17       1.0  0.07561  0.21674  0.43189  1.0000
  Fe  Fe10      1.0  0.06611  0.18742  0.32050  1.0000
  S   S18       1.0  0.07801  0.16038  0.30418  1.0000
  Fe  Fe11      1.0  0.03106  0.20813  0.34235  1.0000
  S   S19       1.0  0.07915  0.20946  0.32831  1.0000
  S   S20       1.0  0.04188  0.23138  0.35346  1.0000
  Fe  Fe12      1.0  0.19762  0.06863  0.29994  1.0000
  S   S21       1.0  0.17168  0.07781  0.27695  1.0000
  S   S22       1.0  0.21932  0.06976  0.25924  1.0000
  Fe  Fe13      1.0  0.18201  0.05826  0.37067  1.0000
  S   S23       1.0  0.15527  0.06670  0.35275  1.0000
  S   S24       1.0  0.18494  0.04461  0.42445  1.0000
  Fe  Fe14      1.0  0.16484  0.05405  0.30133  1.0000
  S   S25       1.0  0.14920  0.03919  0.26916  1.0000
  Fe  Fe15      1.0  0.16406  0.08977  0.33033  1.0000
  S   S26       1.0  0.15128  0.11714  0.34191  1.0000
  S   S27       1.0  0.19102  0.04404  0.32045  1.0000
  S   S28       1.0  0.19053  0.08214  0.35208  1.0000
  C   C2        1.0  0.09838  0.14851  0.31546  1.0000
  C   C3        1.0  0.10281  0.13156  0.30481  1.0000
  C   C4        1.0  0.11879  0.12172  0.31294  1.0000
  C   C5        1.0  0.13067  0.12872  0.33169  1.0000
  C   C6        1.0  0.12627  0.14567  0.34227  1.0000
  C   C7        1.0  0.11024  0.15548  0.33438  1.0000
  H   H3        1.0  0.09386  0.12602  0.28992  1.0000
  H   H4        1.0  0.12195  0.10876  0.30438  1.0000
  H   H5        1.0  0.13533  0.15132  0.35658  1.0000
  H   H6        1.0  0.10712  0.16849  0.34265  1.0000
  C   C8        1.0  0.19466  0.07481  0.52219  1.0000
  C   C9        1.0  0.19860  0.08020  0.48746  1.0000
  C   C10       1.0  0.19560  0.07106  0.45728  1.0000
  C   C11       1.0  0.18878  0.05637  0.46173  1.0000
  C   C12       1.0  0.18501  0.05087  0.49646  1.0000
  C   C13       1.0  0.18782  0.06013  0.52663  1.0000
  H   H7        1.0  0.20406  0.09145  0.48393  1.0000
  H   H8        1.0  0.19878  0.07524  0.43067  1.0000
  H   H9        1.0  0.17986  0.03944  0.50010  1.0000
  H   H10       1.0  0.18486  0.05581  0.55331  1.0000
  C   C14       1.0  0.04370  0.21105  0.53269  1.0000
  C   C15       1.0  0.03638  0.21183  0.49867  1.0000
  C   C16       1.0  0.04615  0.21336  0.46754  1.0000
  C   C17       1.0  0.06328  0.21420  0.47037  1.0000
  C   C18       1.0  0.07066  0.21318  0.50440  1.0000
  C   C19       1.0  0.06089  0.21152  0.53551  1.0000
  H   H11       1.0  0.24298  0.06943  0.31923  1.0000
  H   H12       1.0  0.04036  0.21416  0.44136  1.0000
  H   H13       1.0  0.08393  0.21378  0.50664  1.0000
  H   H14       1.0  0.06664  0.21059  0.56163  1.0000
  C   C20       1.0  0.10684  0.15844  0.67835  1.0000
  C   C21       1.0  0.12449  0.15415  0.67286  1.0000
  C   C22       1.0  0.13277  0.13712  0.67120  1.0000
  C   C23       1.0  0.12353  0.12408  0.67539  1.0000
  C   C24       1.0  0.10587  0.12837  0.68043  1.0000
  C   C25       1.0  0.09755  0.14541  0.68168  1.0000
  H   H15       1.0  0.13180  0.16411  0.66992  1.0000
  H   H16       1.0  0.14632  0.13408  0.66711  1.0000
  H   H17       1.0  0.09856  0.11841  0.68374  1.0000
  H   H18       1.0  0.08401  0.14843  0.68608  1.0000
  H   H19       1.0  0.10726  0.14473  0.41000  1.0000
  C   C26       1.0  0.19249  0.03034  0.79738  1.0000
  H   H20       1.0  0.03274  0.19195  0.19792  1.0000
  C   C27       1.0  0.23511  0.07730  0.75085  1.0000
  H   H21       1.0  0.20014  0.02121  0.74427  1.0000
  C   C28       1.0  0.02620  0.15915  0.31617  1.0000
  H   H22       1.0  0.16348  0.02177  0.60960  1.0000
  H   H23       1.0  0.16686  0.04303  0.80957  1.0000
  H   H24       1.0  0.23290  0.07853  0.80861  1.0000
  H   H25       1.0  0.16649  0.10496  0.58862  1.0000
  H   H26       1.0  0.08659  0.24815  0.54645  1.0000
  H   H27       1.0  0.16704  0.00879  0.30843  1.0000
  H   H28       1.0  0.03951  0.15972  0.32289  1.0000
  H   H29       1.0  0.15552  0.12490  0.60496  1.0000
  H   H30       1.0  0.15175  0.11219  0.26023  1.0000
  H   H31       1.0  0.06080  0.13188  0.27927  1.0000
  H   H32       1.0  0.09722  0.10651  0.57503  1.0000
  N   N1        1.0  0.22317  0.01922  0.77482  1.0000
  H   H33       1.0  0.18947  0.00618  0.25334  1.0000
  H   H34       1.0  0.22096  0.03447  0.70034  1.0000
  C   C29       1.0  0.15280  0.12144  0.54784  1.0000
  H   H35       1.0  0.14112  0.13120  0.54725  1.0000
  H   H36       1.0  0.14381  0.12503  0.22186  1.0000
  H   H37       1.0  0.02450  0.23456  0.78998  1.0000
  H   H38       1.0  0.22534  0.04382  0.79554  1.0000
  H   H39       1.0  0.00203  0.12414  0.27560  1.0000
  H   H40       1.0  0.22204  0.11607  0.15941  1.0000
  H   H41       1.0  0.16380  0.12759  0.54160  1.0000
  C   C30       1.0  0.10705  0.18547  0.58803  1.0000
  H   H42       1.0  0.23657  0.02839  0.23018  1.0000
  C   C31       1.0  0.06053  0.16304  0.45506  1.0000
  H   H43       1.0  0.11732  0.19105  0.57494  1.0000
  H   H44       1.0  0.03822  0.14677  0.23089  1.0000
  H   H45       1.0  0.20514  0.02505  0.21627  1.0000
  C   C32       1.0  0.18521  0.01024  0.22583  1.0000
  C   C33       1.0  0.02702  0.17307  0.23645  1.0000
  H   H46       1.0  0.07278  0.14147  0.48541  1.0000
  C   C34       1.0  0.08943  0.14052  0.55041  1.0000
  C   C35       1.0  0.23073  0.03017  0.80021  1.0000
  H   H47       1.0  0.07225  0.16618  0.44255  1.0000
  C   C36       1.0  0.03888  0.17946  0.20902  1.0000
  H   H48       1.0  0.24366  0.07381  0.20403  1.0000
  H   H49       1.0  0.10513  0.22596  0.58108  1.0000
  C   C37       1.0  0.05959  0.10857  0.30677  1.0000
  C   C38       1.0  0.16507  0.00949  0.62279  1.0000
  H   H50       1.0  0.09612  0.23472  0.62276  1.0000
  C   C39       1.0  0.17307  0.00693  0.65607  1.0000
  H   H51       1.0  0.05885  0.10147  0.28176  1.0000
  H   H52       1.0  0.17144  0.15916  0.25516  1.0000
  H   H53       1.0  0.18745  0.16037  0.22076  1.0000
  H   H54       1.0  0.20975  0.13348  0.33554  1.0000
  H   H55       1.0  0.17901  0.05546  0.78261  1.0000
  H   H56       1.0  0.20564  0.04097  0.75411  1.0000
  C   C40       1.0  0.24655  0.07546  0.72178  1.0000
  H   H57       1.0  0.05219  0.15096  0.50220  1.0000
  H   H58       1.0  0.09983  0.14225  0.53134  1.0000
  H   H59       1.0  0.07380  0.18093  0.57938  1.0000
  H   H60       1.0  0.08459  0.16633  0.50298  1.0000
  H   H61       1.0  0.05086  0.18097  0.22189  1.0000
  C   C41       1.0  0.06430  0.15366  0.49100  1.0000
  H   H62       1.0  0.20209  0.00046  0.60246  1.0000
  H   H63       1.0  0.21508  0.00447  0.81906  1.0000
  H   H64       1.0  0.23485  0.11114  0.34185  1.0000
  C   C42       1.0  0.14468  0.01879  0.27834  1.0000
  S   S29       1.0  0.00977  0.19883  0.73665  1.0000
  H   H65       1.0  0.10949  0.16425  0.55350  1.0000
  H   H66       1.0  0.19958  0.12894  0.67096  1.0000
  H   H67       1.0  0.22783  0.00677  0.72379  1.0000
  H   H68       1.0  0.04186  0.17052  0.18650  1.0000
  H   H69       1.0  0.14656  0.13493  0.26366  1.0000
  N   N2        1.0  0.16638  0.13379  0.76177  1.0000
  C   C43       1.0  0.17889  0.12699  0.73243  1.0000
  C   C44       1.0  0.15246  0.12347  0.76521  1.0000
  C   C45       1.0  0.15835  0.15160  0.75069  1.0000
  C   C46       1.0  0.17487  0.13453  0.79738  1.0000
  C   C47       1.0  0.18539  0.11775  0.81192  1.0000
  C   C48       1.0  0.19414  0.13617  0.72673  1.0000
  C   C49       1.0  0.14315  0.16023  0.77424  1.0000
  C   C50       1.0  0.15731  0.10423  0.75886  1.0000
  C   C51       1.0  0.14304  0.09510  0.77092  1.0000
  C   C52       1.0  0.19593  0.12080  0.84406  1.0000
  C   C53       1.0  0.20612  0.12795  0.69716  1.0000
  C   C54       1.0  0.13589  0.17792  0.75960  1.0000
  H   H70       1.0  0.17221  0.12733  0.70637  1.0000
  H   H71       1.0  0.18441  0.11348  0.73719  1.0000
  H   H72       1.0  0.14607  0.12533  0.79203  1.0000
  H   H73       1.0  0.14237  0.12796  0.74518  1.0000
  H   H74       1.0  0.15383  0.15185  0.72249  1.0000
  H   H75       1.0  0.16777  0.16011  0.75083  1.0000
  H   H76       1.0  0.18312  0.14422  0.79616  1.0000
  H   H77       1.0  0.16532  0.13891  0.81872  1.0000
  H   H78       1.0  0.19429  0.11125  0.79144  1.0000
  H   H79       1.0  0.17680  0.10922  0.82143  1.0000
  H   H80       1.0  0.18991  0.14957  0.71857  1.0000
  H   H81       1.0  0.20163  0.13559  0.75161  1.0000
  H   H82       1.0  0.14709  0.16158  0.80226  1.0000
  H   H83       1.0  0.13269  0.15297  0.77475  1.0000
  H   H84       1.0  0.15956  0.10217  0.72966  1.0000
  H   H85       1.0  0.16892  0.09821  0.77292  1.0000
  H   H86       1.0  0.14647  0.08151  0.76438  1.0000
  H   H87       1.0  0.14084  0.09616  0.80039  1.0000
  H   H88       1.0  0.13115  0.10049  0.75677  1.0000
  H   H89       1.0  0.20300  0.10852  0.85442  1.0000
  H   H90       1.0  0.20526  0.12882  0.83588  1.0000
  H   H91       1.0  0.18767  0.12699  0.86602  1.0000
  H   H92       1.0  0.21705  0.09514  0.16157  1.0000
  H   H93       1.0  0.22204  0.09508  0.33850  1.0000
  H   H94       1.0  0.18728  0.00207  0.17128  1.0000
  H   H95       1.0  0.14564  0.18606  0.75921  1.0000
  H   H96       1.0  0.13107  0.17727  0.73197  1.0000
  H   H97       1.0  0.12514  0.18384  0.77695  1.0000
  H   H98       1.0  0.22357  0.00287  0.59158  1.0000
  H   H99       1.0  0.21919  0.10902  0.37616  1.0000
  C   C55       1.0  0.05276  0.12738  0.30054  1.0000
  C   C56       1.0  0.14113  0.02841  0.46414  1.0000
  H   H100      1.0  0.14385  0.10857  0.59471  1.0000
  C   C57       1.0  0.23292  0.03192  0.71554  1.0000
  H   H101      1.0  0.09633  0.18327  0.53674  1.0000
  C   C58       1.0  0.15474  0.11451  0.58634  1.0000
  C   C59       1.0  0.13006  0.01499  0.26326  1.0000
  H   H102      1.0  0.20025  0.11318  0.15658  1.0000
  H   H103      1.0  0.19779  0.03531  0.82137  1.0000
  Fe  Fe16      1.0  0.03253  0.20329  0.70321  1.0000
  H   H104      1.0  0.19819  0.18189  0.25621  1.0000
  H   H105      1.0  0.04116  0.17103  0.54515  1.0000
  H   H106      1.0  0.05120  0.17492  0.45885  1.0000
  H   H107      1.0  0.02308  0.21139  0.49635  1.0000
  H   H108      1.0  0.18214  0.18061  0.29047  1.0000
  H   H109      1.0  0.12870  0.02991  0.47833  1.0000
  N   N3        1.0  0.07663  0.15664  0.55395  1.0000
  H   H110      1.0  0.18611  0.03212  0.19069  1.0000
  C   C60       1.0  0.08341  0.16924  0.57635  1.0000
  H   H111      1.0  0.11609  0.11379  0.55929  1.0000
  C   C61       1.0  0.06098  0.15237  0.57225  1.0000
  C   C62       1.0  0.04518  0.16663  0.57262  1.0000
  H   H112      1.0  0.03551  0.15901  0.38842  1.0000
  C   C63       1.0  0.09766  0.13289  0.58599  1.0000
  H   H113      1.0  0.16237  0.01491  0.41006  1.0000
  S   S30       1.0  0.00311  0.20951  0.35694  1.0000
  C   C64       1.0  0.03013  0.16083  0.59143  1.0000
  H   H114      1.0  0.17611  0.18819  0.24583  1.0000
  C   C65       1.0  0.10652  0.11462  0.58124  1.0000
  C   C66       1.0  0.20546  0.02810  0.76565  1.0000
  C   C67       1.0  0.09952  0.17508  0.56097  1.0000
  H   H115      1.0  0.12161  0.02469  0.24855  1.0000
  H   H116      1.0  0.08583  0.16437  0.60442  1.0000
  H   H117      1.0  0.05432  0.13387  0.32591  1.0000
  H   H118      1.0  0.13961  0.03611  0.43889  1.0000
  H   H119      1.0  0.05727  0.14113  0.56003  1.0000
  H   H120      1.0  0.06355  0.14875  0.60092  1.0000
  H   H121      1.0  0.09727  0.19587  0.59850  1.0000
  H   H122      1.0  0.04793  0.17746  0.58748  1.0000
  C   C68       1.0  0.07278  0.16426  0.51694  1.0000
  H   H123      1.0  0.08346  0.13063  0.53811  1.0000
  H   H124      1.0  0.08820  0.13292  0.60801  1.0000
  H   H125      1.0  0.10720  0.14027  0.59482  1.0000
  H   H126      1.0  0.04800  0.15761  0.26323  1.0000
  H   H127      1.0  0.22709  0.02754  0.82850  1.0000
  H   H128      1.0  0.06480  0.17706  0.51877  1.0000
  H   H129      1.0  0.05517  0.15495  0.43637  1.0000
  H   H130      1.0  0.07306  0.10675  0.31474  1.0000
  H   H131      1.0  0.03325  0.15668  0.61958  1.0000
  H   H132      1.0  0.23354  0.04323  0.73148  1.0000
  H   H133      1.0  0.02635  0.15029  0.57674  1.0000
  N   N4        1.0  0.02561  0.14870  0.28315  1.0000
  H   H134      1.0  0.02040  0.14003  0.35590  1.0000
  C   C69       1.0  0.17631  0.04254  0.78731  1.0000
  H   H135      1.0  0.11256  0.17727  0.61075  1.0000
  H   H136      1.0  0.11293  0.10973  0.60654  1.0000
  H   H137      1.0  0.22337  0.10375  0.22163  1.0000
  N   N5        1.0  0.15052  0.11245  0.48180  1.0000
  C   C70       1.0  0.15053  0.09677  0.46034  1.0000
  C   C71       1.0  0.16594  0.12008  0.47220  1.0000
  C   C72       1.0  0.15181  0.10714  0.52104  1.0000
  C   C73       1.0  0.13443  0.12529  0.47715  1.0000
  C   C74       1.0  0.12868  0.13009  0.43817  1.0000
  C   C75       1.0  0.13601  0.08698  0.46911  1.0000
  C   C76       1.0  0.17250  0.11863  0.43270  1.0000
  C   C77       1.0  0.18654  0.12882  0.42609  1.0000
  C   C78       1.0  0.11114  0.14136  0.43811  1.0000
  C   C79       1.0  0.13516  0.07375  0.44083  1.0000
  H   H138      1.0  0.16261  0.08773  0.46451  1.0000
  H   H139      1.0  0.15025  0.09965  0.43100  1.0000
  H   H140      1.0  0.16375  0.13366  0.47933  1.0000
  H   H141      1.0  0.17700  0.11398  0.48852  1.0000
  H   H142      1.0  0.16309  0.09699  0.52521  1.0000
  H   H143      1.0  0.14082  0.10147  0.52988  1.0000
  H   H144      1.0  0.12376  0.12099  0.49184  1.0000
  H   H145      1.0  0.13560  0.13737  0.48989  1.0000
  H   H146      1.0  0.12783  0.11887  0.42208  1.0000
  H   H147      1.0  0.13747  0.13738  0.42461  1.0000
  H   H148      1.0  0.13820  0.08017  0.49539  1.0000
  H   H149      1.0  0.12353  0.09550  0.47002  1.0000
  H   H150      1.0  0.17785  0.10526  0.42653  1.0000
  H   H151      1.0  0.16235  0.12320  0.41343  1.0000
  H   H152      1.0  0.18183  0.14241  0.43126  1.0000
  H   H153      1.0  0.19748  0.12404  0.44369  1.0000
  H   H154      1.0  0.19089  0.12757  0.39766  1.0000
  H   H155      1.0  0.11127  0.15323  0.45264  1.0000
  H   H156      1.0  0.10160  0.13462  0.45076  1.0000
  H   H157      1.0  0.14751  0.06496  0.43851  1.0000
  H   H158      1.0  0.12524  0.06637  0.44860  1.0000
  H   H159      1.0  0.13187  0.07996  0.41429  1.0000
  N   N6        1.0  0.19879  0.12964  0.26121  1.0000
  C   C80       1.0  0.20550  0.12779  0.22304  1.0000
  C   C81       1.0  0.19708  0.14786  0.27186  1.0000
  C   C82       1.0  0.21197  0.11924  0.28511  1.0000
  C   C83       1.0  0.18216  0.12361  0.26666  1.0000
  C   C84       1.0  0.16996  0.12576  0.23418  1.0000
  C   C85       1.0  0.21086  0.10934  0.21027  1.0000
  C   C86       1.0  0.20875  0.12072  0.32624  1.0000
  C   C87       1.0  0.18460  0.16105  0.24999  1.0000
  C   C88       1.0  0.18537  0.17900  0.26143  1.0000
  C   C89       1.0  0.15196  0.12435  0.24582  1.0000
  C   C90       1.0  0.24763  0.02952  0.68846  1.0000
  C   C91       1.0  0.22202  0.10822  0.34685  1.0000
  H   H160      1.0  0.21683  0.13388  0.21973  1.0000
  H   H161      1.0  0.19632  0.13462  0.20359  1.0000
  H   H162      1.0  0.19243  0.14951  0.30011  1.0000
  H   H163      1.0  0.20972  0.15169  0.27079  1.0000
  H   H164      1.0  0.22469  0.12241  0.27926  1.0000
  H   H165      1.0  0.21316  0.10557  0.27934  1.0000
  H   H166      1.0  0.18435  0.10992  0.27403  1.0000
  H   H167      1.0  0.17517  0.12989  0.29030  1.0000
  H   H168      1.0  0.17433  0.11575  0.21431  1.0000
  H   H169      1.0  0.16922  0.13805  0.21996  1.0000
  H   H170      1.0  0.01922  0.17153  0.59215  1.0000
  H   H171      1.0  0.20166  0.10136  0.21932  1.0000
  H   H172      1.0  0.19602  0.11813  0.33357  1.0000
  H   H173      1.0  0.04684  0.23478  0.78823  1.0000
  H   H174      1.0  0.03319  0.12326  0.26431  1.0000
  C   C92       1.0  0.02174  0.16252  0.38359  1.0000
  H   H175      1.0  0.24187  0.07567  0.69467  1.0000
  C   C93       1.0  0.03547  0.15583  0.25338  1.0000
  H   H176      1.0  0.02712  0.12419  0.31010  1.0000
  H   H177      1.0  0.24718  0.01860  0.67109  1.0000
  H   H178      1.0  0.18630  0.03624  0.23796  1.0000
  H   H179      1.0  0.21758  0.02025  0.27773  1.0000
  C   C94       1.0  0.15562  0.00600  0.29708  1.0000
  C   C95       1.0  0.23086  0.02100  0.28390  1.0000
  H   H180      1.0  0.02035  0.17255  0.31085  1.0000
  C   C96       1.0  0.03393  0.13048  0.28928  1.0000
  H   H181      1.0  0.21088  0.01700  0.62245  1.0000
  H   H182      1.0  0.01527  0.17204  0.22217  1.0000
  H   H183      1.0  0.05236  0.10338  0.32866  1.0000
  C   C97       1.0  0.16466  0.00746  0.43560  1.0000
  H   H184      1.0  0.21097  0.11443  0.70388  1.0000
  H   H185      1.0  0.21711  0.13446  0.69438  1.0000
  H   H186      1.0  0.17079  0.03832  0.76267  1.0000
  H   H187      1.0  0.10800  0.24671  0.59367  1.0000
  C   C98       1.0  0.03485  0.23957  0.80295  1.0000
  H   H188      1.0  0.23107  0.03369  0.29483  1.0000
  H   H189      1.0  0.24638  0.01005  0.74467  1.0000
  H   H190      1.0  0.15021  0.03313  0.48171  1.0000
  C   C99       1.0  0.24172  0.01821  0.24972  1.0000
  S   S31       1.0  0.05733  0.24517  0.25575  1.0000
  C   C100      1.0  0.24157  0.07705  0.78587  1.0000
  H   H191      1.0  0.03618  0.23480  0.83118  1.0000
  H   H192      1.0  0.18886  0.01804  0.80472  1.0000
  C   C101      1.0  0.08280  0.24542  0.57447  1.0000
  C   C102      1.0  0.24109  0.07145  0.26163  1.0000
  C   C103      1.0  0.21264  0.10847  0.16938  1.0000
  H   H193      1.0  0.01826  0.17642  0.38026  1.0000
  C   C104      1.0  0.23303  0.01607  0.73996  1.0000
  C   C105      1.0  0.01707  0.15376  0.35028  1.0000
  H   H194      1.0  0.07464  0.23583  0.57445  1.0000
  H   H195      1.0  0.23550  0.01119  0.30463  1.0000
  C   C106      1.0  0.09898  0.23779  0.59431  1.0000
  H   H196      1.0  0.01480  0.15864  0.40747  1.0000
  H   H197      1.0  0.17315  0.01408  0.45095  1.0000
  C   C107      1.0  0.21383  0.00373  0.61332  1.0000
  C   C108      1.0  0.22171  0.00248  0.79256  1.0000
  C   C109      1.0  0.14738  0.00983  0.45553  1.0000
  H   H198      1.0  0.18474  0.01194  0.37547  1.0000
  H   H199      1.0  0.14811  0.00260  0.48133  1.0000
  H   H200      1.0  0.24677  0.04105  0.67111  1.0000
  H   H201      1.0  0.06307  0.24838  0.51684  1.0000
  H   H202      1.0  0.00451  0.18903  0.66331  1.0000
  H   H203      1.0  0.00317  0.15748  0.34707  1.0000
  C   C110      1.0  0.00761  0.14975  0.27085  1.0000
  H   H204      1.0  0.13777  0.00601  0.43814  1.0000
  H   H205      1.0  0.00740  0.14775  0.24131  1.0000
  H   H206      1.0  0.24020  0.00591  0.23876  1.0000
  C   C111      1.0  0.25009  0.07334  0.22941  1.0000
  H   H207      1.0  0.04768  0.24642  0.56873  1.0000
  C   C112      1.0  0.24963  0.07094  0.29419  1.0000
  H   H208      1.0  0.01536  0.24427  0.59597  1.0000
  H   H209      1.0  0.01889  0.24515  0.54775  1.0000
  H   H210      1.0  0.21566  0.00658  0.38211  1.0000
  H   H211      1.0  0.24928  0.04879  0.83828  1.0000
  C   C113      1.0  0.25021  0.02906  0.79849  1.0000
  H   H212      1.0  0.20982  0.00435  0.33618  1.0000
  H   H213      1.0  0.03914  0.29672  0.69716  1.0000
  C   C114      1.0  0.01464  0.25274  0.57189  1.0000
  C   C115      1.0  0.00712  0.29129  0.25421  1.0000
  C   C116      1.0  0.00797  0.41673  0.27531  1.0000
  S   S32       1.0  0.04924  0.26110  0.68813  1.0000
  H   H214      1.0  0.07340  0.29408  0.61709  1.0000
  C   C117      1.0  0.04596  0.29292  0.88957  1.0000
  H   H215      1.0  0.03015  0.40150  0.70030  1.0000
  S   S33       1.0  0.03712  0.48202  0.26092  1.0000
  H   H216      1.0  0.04228  0.25986  0.50928  1.0000
  H   H217      1.0  0.02018  0.27400  0.59980  1.0000
  C   C118      1.0  0.06116  0.41272  0.98998  1.0000
  S   S34       1.0  0.03645  0.47361  0.73818  1.0000
  H   H218      1.0  0.01702  0.40141  0.66296  1.0000
  H   H219      1.0  0.11564  0.39068  0.97193  1.0000
  H   H220      1.0  0.05740  0.27040  0.19986  1.0000
  H   H221      1.0  0.01329  0.49475  0.57103  1.0000
  H   H222      1.0  0.00287  0.49394  0.33271  1.0000
  H   H223      1.0  0.02372  0.48336  0.47026  1.0000
  H   H224      1.0  0.03841  0.29271  0.58703  1.0000
  Fe  Fe17      1.0  0.05080  0.38403  0.20279  1.0000
  S   S35       1.0  0.03484  0.38710  0.15310  1.0000
  S   S36       1.0  0.06381  0.40377  0.22851  1.0000
  Fe  Fe18      1.0  0.04676  0.34646  0.21582  1.0000
  C   C119      1.0  0.04704  0.29195  0.71968  1.0000
  S   S37       1.0  0.05081  0.32567  0.25969  1.0000
  Fe  Fe19      1.0  0.04868  0.36106  0.13870  1.0000
  S   S38       1.0  0.05975  0.35263  0.08354  1.0000
  C   C120      1.0  0.02054  0.43300  0.31868  1.0000
  H   H225      1.0  0.06527  0.45700  0.29000  1.0000
  S   S39       1.0  0.06612  0.35883  0.18637  1.0000
  S   S40       1.0  0.03283  0.37151  0.23568  1.0000
  Fe  Fe20      1.0  0.03827  0.36568  0.87149  1.0000
  S   S41       1.0  0.06329  0.35914  0.84153  1.0000
  S   S42       1.0  0.03084  0.37534  0.92806  1.0000
  H   H226      1.0  0.03762  0.44641  0.65674  1.0000
  S   S43       1.0  0.04154  0.35514  0.76929  1.0000
  Fe  Fe21      1.0  0.05196  0.33855  0.81564  1.0000
  S   S44       1.0  0.06458  0.31087  0.80987  1.0000
  Fe  Fe22      1.0  0.05068  0.37633  0.79690  1.0000
  S   S45       1.0  0.06228  0.39420  0.75961  1.0000
  S   S46       1.0  0.02806  0.34396  0.84892  1.0000
  S   S47       1.0  0.02669  0.38425  0.82836  1.0000
  C   C121      1.0  0.06412  0.26863  0.75153  1.0000
  C   C122      1.0  0.06746  0.27994  0.77776  1.0000
  C   C123      1.0  0.06048  0.29728  0.77535  1.0000
  C   C124      1.0  0.05016  0.30321  0.74619  1.0000
  H   H227      1.0  0.00312  0.40490  0.27049  1.0000
  H   H228      1.0  0.01993  0.29171  0.89875  1.0000
  H   H229      1.0  0.04469  0.31650  0.74395  1.0000
  C   C125      1.0  0.05020  0.35782  0.04107  1.0000
  C   C126      1.0  0.03645  0.37107  0.03665  1.0000
  C   C127      1.0  0.03036  0.37588  0.00192  1.0000
  C   C128      1.0  0.03789  0.36749  0.97125  1.0000
  C   C129      1.0  0.05126  0.35387  0.97579  1.0000
  C   C130      1.0  0.05741  0.34912  0.01052  1.0000
  H   H230      1.0  0.03081  0.37791  0.05987  1.0000
  H   H231      1.0  0.01999  0.38642  0.99872  1.0000
  H   H232      1.0  0.05714  0.34727  0.95250  1.0000
  H   H233      1.0  0.06801  0.33881  0.01367  1.0000
  C   C131      1.0  0.05309  0.30325  0.25772  1.0000
  C   C132      1.0  0.05473  0.29464  0.22522  1.0000
  C   C133      1.0  0.05292  0.29385  0.29005  1.0000
  H   H234      1.0  0.05508  0.30163  0.20014  1.0000
  H   H235      1.0  0.05173  0.30033  0.31538  1.0000
  C   C134      1.0  0.05574  0.41646  0.75518  1.0000
  C   C135      1.0  0.06203  0.42512  0.72618  1.0000
  C   C136      1.0  0.05667  0.44270  0.72096  1.0000
  C   C137      1.0  0.04486  0.45178  0.74466  1.0000
  C   C138      1.0  0.03889  0.44317  0.77410  1.0000
  C   C139      1.0  0.04432  0.42565  0.77944  1.0000
  H   H236      1.0  0.07104  0.41818  0.70751  1.0000
  H   H237      1.0  0.06154  0.44918  0.69847  1.0000
  H   H238      1.0  0.02993  0.45012  0.79287  1.0000
  H   H239      1.0  0.03964  0.41924  0.80226  1.0000
  H   H240      1.0  0.07155  0.40721  0.05868  1.0000
  C   C140      1.0  0.02224  0.40197  0.32768  1.0000
  H   H241      1.0  0.04310  0.47414  0.52823  1.0000
  H   H242      1.0  0.08654  0.36429  0.03366  1.0000
  H   H243      1.0  0.03281  0.27259  0.88151  1.0000
  H   H244      1.0  0.03284  0.42449  0.37051  1.0000
  C   C141      1.0  0.05427  0.27612  0.29001  1.0000
  C   C142      1.0  0.05588  0.26750  0.25752  1.0000
  Fe  Fe23      1.0  0.01849  0.36205  0.80414  1.0000
  Fe  Fe24      1.0  0.04045  0.49425  0.69726  1.0000
  C   C143      1.0  0.04417  0.45998  0.25429  1.0000
  C   C144      1.0  0.03560  0.45165  0.22965  1.0000
  C   C145      1.0  0.04119  0.43441  0.22201  1.0000
  C   C146      1.0  0.05560  0.42528  0.23862  1.0000
  C   C147      1.0  0.06411  0.43357  0.26341  1.0000
  C   C148      1.0  0.05839  0.45076  0.27138  1.0000
  H   H245      1.0  0.02469  0.45867  0.21599  1.0000
  H   H246      1.0  0.03464  0.42832  0.20254  1.0000
  H   H247      1.0  0.07533  0.42669  0.27625  1.0000
  C   C149      1.0  0.05579  0.26103  0.51018  1.0000
  H   H248      1.0  0.06264  0.32447  0.61546  1.0000
  C   C150      1.0  0.10659  0.40264  0.97623  1.0000
  H   H249      1.0  0.02074  0.42560  0.64117  1.0000
  C   C151      1.0  0.00413  0.35104  0.29330  1.0000
  C   C152      1.0  0.07371  0.26179  0.59240  1.0000
  C   C153      1.0  0.04077  0.39830  0.31352  1.0000
  H   H250      1.0  0.05371  0.27816  0.46350  1.0000
  C   C154      1.0  0.02449  0.29270  0.84074  1.0000
  H   H251      1.0  0.06963  0.42200  0.98536  1.0000
  H   H252      1.0  0.10656  0.37043  0.02918  1.0000
  C   C155      1.0  0.05002  0.38099  0.32655  1.0000
  H   H253      1.0  0.09506  0.37514  0.08741  1.0000
  C   C156      1.0  0.00717  0.28667  0.29500  1.0000
  H   H254      1.0  0.04246  0.26310  0.81306  1.0000
  H   H255      1.0  0.05412  0.26911  0.31512  1.0000
  H   H256      1.0  0.07626  0.39161  0.96346  1.0000
  H   H257      1.0  0.01398  0.46795  0.41957  1.0000
  C   C157      1.0  0.01276  0.38422  0.70637  1.0000
  H   H258      1.0  0.03179  0.43171  0.30044  1.0000
  H   H259      1.0  0.02061  0.28758  0.24555  1.0000
  C   C158      1.0  0.01498  0.26619  0.82253  1.0000
  H   H260      1.0  0.03983  0.45265  0.38497  1.0000
  H   H261      1.0  0.02261  0.31381  0.21358  1.0000
  H   H262      1.0  0.04802  0.40783  0.32274  1.0000
  H   H263      1.0  0.04110  0.39833  0.28385  1.0000
  Fe  Fe25      1.0  0.01799  0.37281  0.18523  1.0000
  H   H264      1.0  0.01989  0.41535  0.25915  1.0000
  H   H265      1.0  0.03249  0.30457  0.15217  1.0000
  C   C159      1.0  0.03745  0.44921  0.35704  1.0000
  H   H266      1.0  0.01399  0.31845  0.13488  1.0000
  C   C160      1.0  0.07716  0.39366  0.05528  1.0000
  H   H267      1.0  0.02035  0.28952  0.77101  1.0000
  C   C161      1.0  0.06111  0.26575  0.47224  1.0000
  H   H268      1.0  0.01901  0.46179  0.66764  1.0000
  H   H269      1.0  0.06955  0.25534  0.75384  1.0000
  H   H270      1.0  0.05067  0.38044  0.35635  1.0000
  H   H271      1.0  0.09219  0.41532  0.02093  1.0000
  H   H272      1.0  0.03151  0.46078  0.34198  1.0000
  H   H273      1.0  0.05486  0.41243  0.93309  1.0000
  H   H274      1.0  0.01846  0.31843  0.27634  1.0000
  C   C162      1.0  0.08693  0.49718  0.48591  1.0000
  N   N7        1.0  0.01054  0.28523  0.82446  1.0000
  C   C163      1.0  0.02175  0.36960  0.68366  1.0000
  C   C164      1.0  0.05386  0.27459  0.72233  1.0000
  H   H275      1.0  0.01900  0.35752  0.69509  1.0000
  C   C165      1.0  0.10638  0.34607  0.98192  1.0000
  H   H276      1.0  0.02255  0.40126  0.35757  1.0000
  H   H277      1.0  0.01822  0.41186  0.75778  1.0000
  H   H278      1.0  0.03624  0.47013  0.57344  1.0000
  C   C166      1.0  0.02407  0.45083  0.65049  1.0000
  C   C167      1.0  0.09571  0.36382  0.97959  1.0000
  H   H279      1.0  0.06940  0.38344  0.12488  1.0000
  H   H280      1.0  0.10703  0.34013  0.95515  1.0000
  H   H281      1.0  0.04136  0.42833  0.95891  1.0000
  H   H282      1.0  0.10059  0.33806  0.00142  1.0000
  N   N8        1.0  0.05677  0.26989  0.57731  1.0000
  H   H283      1.0  0.02558  0.43085  0.70892  1.0000
  H   H284      1.0  0.01724  0.38177  0.73436  1.0000
  H   H285      1.0  0.00307  0.49210  0.65356  1.0000
  H   H286      1.0  0.08783  0.38806  0.14630  1.0000
  H   H287      1.0  0.04868  0.31377  0.64181  1.0000
  C   C168      1.0  0.08902  0.38867  0.08786  1.0000
  H   H288      1.0  0.06645  0.38667  0.05846  1.0000
  H   H289      1.0  0.05388  0.41571  0.01535  1.0000
  H   H290      1.0  0.12660  0.41532  0.99444  1.0000
  C   C169      1.0  0.05359  0.31562  0.61416  1.0000
  C   C170      1.0  0.02554  0.26614  0.57668  1.0000
  C   C171      1.0  0.01276  0.43220  0.69723  1.0000
  H   H291      1.0  0.01245  0.48173  0.53302  1.0000
  H   H292      1.0  0.01735  0.29179  0.30835  1.0000
  H   H293      1.0  0.04397  0.30694  0.88747  1.0000
  H   H294      1.0  0.00714  0.34396  0.23840  1.0000
  H   H295      1.0  0.09802  0.49074  0.53777  1.0000
  C   C172      1.0  0.07137  0.39440  0.99114  1.0000
  H   H296      1.0  0.10159  0.37117  0.95920  1.0000
  H   H297      1.0  0.00340  0.32596  0.19769  1.0000
  C   C173      1.0  0.00818  0.29205  0.78632  1.0000
  H   H298      1.0  0.04980  0.44398  0.34413  1.0000
  H   H299      1.0  0.03911  0.40657  0.96370  1.0000
  H   H300      1.0  0.04573  0.48837  0.56340  1.0000
  C   C174      1.0  0.09803  0.40217  0.01373  1.0000
  H   H301      1.0  0.07296  0.40496  0.12592  1.0000
  H   H302      1.0  0.07095  0.27804  0.53232  1.0000
  H   H303      1.0  0.08313  0.36255  0.96948  1.0000
  C   C175      1.0  0.05054  0.28581  0.59816  1.0000
  C   C176      1.0  0.05837  0.27452  0.53788  1.0000
  H   H304      1.0  0.12315  0.41668  0.94664  1.0000
  H   H305      1.0  0.06313  0.37866  0.31532  1.0000
  C   C177      1.0  0.06260  0.29878  0.59910  1.0000
  H   H306      1.0  0.07545  0.27522  0.80020  1.0000
  C   C178      1.0  0.04430  0.25821  0.58418  1.0000
  C   C179      1.0  0.04838  0.41510  0.95953  1.0000
  H   H307      1.0  0.05676  0.28753  0.87177  1.0000
  H   H308      1.0  0.08290  0.27049  0.58974  1.0000
  H   H309      1.0  0.04481  0.25373  0.61277  1.0000
  H   H310      1.0  0.11944  0.34658  0.99038  1.0000
  C   C180      1.0  0.09380  0.37226  0.01696  1.0000
  H   H311      1.0  0.00300  0.44111  0.76675  1.0000
  C   C181      1.0  0.02999  0.28654  0.87909  1.0000
  H   H312      1.0  0.04903  0.28606  0.53067  1.0000
  C   C182      1.0  0.11677  0.41689  0.97341  1.0000
  H   H313      1.0  0.02075  0.30664  0.84244  1.0000
  H   H314      1.0  0.10831  0.42937  0.97636  1.0000
  H   H315      1.0  0.06221  0.38580  0.99609  1.0000
  H   H316      1.0  0.03587  0.29073  0.82289  1.0000
  H   H317      1.0  0.06758  0.30116  0.57182  1.0000
  H   H318      1.0  0.04767  0.28260  0.62661  1.0000
  H   H319      1.0  0.01638  0.49666  0.43248  1.0000
  S   S48       1.0  0.03614  0.49412  0.36393  1.0000
  N   N9        1.0  0.08529  0.39066  0.01844  1.0000
  H   H320      1.0  0.04928  0.28903  0.91774  1.0000
  C   C183      1.0  0.01418  0.43650  0.65670  1.0000
  H   H321      1.0  0.09906  0.39642  0.08820  1.0000
  S   S49       1.0  0.03044  0.34696  0.16743  1.0000
  H   H322      1.0  0.09728  0.40473  0.95426  1.0000
  H   H323      1.0  0.10856  0.39850  0.03294  1.0000
  H   H324      1.0  0.01457  0.44111  0.37406  1.0000
  C   C184      1.0  0.07915  0.39152  0.12333  1.0000
  H   H325      1.0  0.07237  0.25915  0.62181  1.0000
  H   H326      1.0  0.02316  0.45510  0.62194  1.0000
  C   C185      1.0  0.00506  0.41508  0.74762  1.0000
  C   C186      1.0  0.05609  0.27690  0.22516  1.0000
  H   H327      1.0  0.00682  0.42275  0.82059  1.0000
  H   H328      1.0  0.04359  0.37082  0.31720  1.0000
  H   H329      1.0  0.04295  0.32142  0.59669  1.0000
  H   H330      1.0  0.01649  0.39106  0.31971  1.0000
  C   C187      1.0  0.03725  0.48019  0.55310  1.0000
  H   H331      1.0  0.09731  0.48949  0.47163  1.0000
  N   N10       1.0  0.01154  0.41833  0.31465  1.0000
  H   H332      1.0  0.00320  0.42518  0.20275  1.0000
  C   C188      1.0  0.01678  0.40140  0.69272  1.0000
  H   H333      1.0  0.03566  0.36904  0.68396  1.0000
  C   C189      1.0  0.01903  0.30544  0.14487  1.0000
  C   C190      1.0  0.00911  0.31328  0.20854  1.0000
  H   H334      1.0  0.01236  0.44499  0.30978  1.0000
  H   H335      1.0  0.01405  0.28767  0.18527  1.0000
  H   H336      1.0  0.01109  0.31302  0.72693  1.0000
  C   C191      1.0  0.02591  0.43614  0.35737  1.0000
  C   C192      1.0  0.00868  0.30088  0.17727  1.0000
  H   H337      1.0  0.02437  0.27437  0.55221  1.0000
  C   C193      1.0  0.01969  0.49049  0.54522  1.0000
  S   S50       1.0  0.03643  0.49490  0.63751  1.0000
  H   H338      1.0  0.05878  0.25602  0.45316  1.0000
  H   H339      1.0  0.01639  0.26024  0.84970  1.0000
  H   H340      1.0  0.01073  0.31870  0.79261  1.0000
  H   H341      1.0  0.07482  0.26624  0.47110  1.0000
  H   H342      1.0  0.01152  0.26456  0.33052  1.0000
  C   C194      1.0  0.03139  0.25887  0.80145  1.0000
  C   C195      1.0  0.00508  0.47454  0.44002  1.0000
  H   H343      1.0  0.00440  0.26126  0.81008  1.0000
  H   H344      1.0  0.01841  0.29654  0.12280  1.0000
  H   H345      1.0  0.01790  0.34798  0.29891  1.0000
  H   H346      1.0  0.00331  0.46538  0.46183  1.0000
  H   H347      1.0  0.03038  0.26265  0.77264  1.0000
  H   H348      1.0  0.01728  0.37105  0.65552  1.0000
  C   C196      1.0  0.01059  0.26752  0.30124  1.0000
  H   H349      1.0  0.02269  0.26164  0.28814  1.0000
  N   N11       1.0  0.00523  0.41683  0.70705  1.0000
  H   H350      1.0  0.00515  0.44379  0.70892  1.0000
  C   C197      1.0  0.00464  0.32131  0.27125  1.0000
  C   C198      1.0  0.08733  0.49787  0.52356  1.0000
  C   C199      1.0  0.01230  0.48914  0.45519  1.0000
  H   H351      1.0  0.00136  0.44088  0.64586  1.0000
  H   H352      1.0  0.00125  0.25890  0.56819  1.0000
  H   H353      1.0  0.00145  0.44329  0.25669  1.0000
  C   C200      1.0  0.00159  0.31134  0.78196  1.0000
  S   S51       1.0  0.03725  0.56690  0.30963  1.0000
  S   S52       1.0  0.03385  0.53458  0.37949  1.0000
  S   S53       1.0  0.03679  0.53645  0.63886  1.0000
  S   S54       1.0  0.04017  0.55223  0.74212  1.0000
  H   H354      1.0  0.08011  0.71221  0.35841  1.0000
  C   C201      1.0  0.06601  0.71567  0.90342  1.0000
  Fe  Fe26      1.0  0.04578  0.64575  0.17454  1.0000
  S   S55       1.0  0.03136  0.65521  0.12422  1.0000
  S   S56       1.0  0.05245  0.61682  0.18221  1.0000
  Fe  Fe27      1.0  0.04881  0.68200  0.19603  1.0000
  S   S57       1.0  0.03529  0.69370  0.14714  1.0000
  S   S58       1.0  0.05521  0.69799  0.24223  1.0000
  Fe  Fe28      1.0  0.01760  0.67593  0.15875  1.0000
  H   H355      1.0  0.07483  0.61300  0.28177  1.0000
  Fe  Fe29      1.0  0.05025  0.67224  0.11577  1.0000
  S   S59       1.0  0.05947  0.67984  0.06047  1.0000
  S   S60       1.0  0.02995  0.66512  0.20979  1.0000
  S   S61       1.0  0.06581  0.66180  0.16408  1.0000
  Fe  Fe30      1.0  0.05021  0.64656  0.77543  1.0000
  S   S62       1.0  0.03164  0.64648  0.82091  1.0000
  S   S63       1.0  0.05524  0.62694  0.73132  1.0000
  Fe  Fe31      1.0  0.05773  0.68104  0.79615  1.0000
  S   S64       1.0  0.03955  0.68355  0.84340  1.0000
  S   S65       1.0  0.07486  0.70021  0.78577  1.0000
  Fe  Fe32      1.0  0.05014  0.65630  0.85556  1.0000
  S   S66       1.0  0.05276  0.64396  0.91149  1.0000
  Fe  Fe33      1.0  0.02251  0.67363  0.80559  1.0000
  C   C202      1.0  0.01014  0.60227  0.16388  1.0000
  S   S67       1.0  0.06981  0.65419  0.81099  1.0000
  S   S68       1.0  0.03968  0.67332  0.75744  1.0000
  C   C203      1.0  0.05632  0.67008  0.01937  1.0000
  C   C204      1.0  0.05301  0.65364  0.01845  1.0000
  C   C205      1.0  0.05194  0.64586  0.98520  1.0000
  C   C206      1.0  0.05369  0.65456  0.95254  1.0000
  C   C207      1.0  0.05648  0.67117  0.95341  1.0000
  C   C208      1.0  0.05799  0.67880  0.98666  1.0000
  H   H356      1.0  0.05188  0.64673  0.04337  1.0000
  H   H357      1.0  0.04996  0.63295  0.98479  1.0000
  H   H358      1.0  0.05799  0.67792  0.92848  1.0000
  H   H359      1.0  0.06066  0.69147  0.98711  1.0000
  H   H360      1.0  0.13297  0.50926  0.71798  1.0000
  C   C209      1.0  0.00434  0.65441  0.93214  1.0000
  H   H361      1.0  0.00179  0.65065  0.78253  1.0000
  H   H362      1.0  0.11783  0.55953  0.30273  1.0000
  H   H363      1.0  0.09687  0.57645  0.26856  1.0000
  C   C210      1.0  0.11187  0.53999  0.69886  1.0000
  H   H364      1.0  0.07395  0.53123  0.24188  1.0000
  H   H365      1.0  0.10779  0.59283  0.31275  1.0000
  H   H366      1.0  0.01753  0.72166  0.27898  1.0000
  H   H367      1.0  0.06935  0.54376  0.36033  1.0000
  C   C211      1.0  0.05400  0.72022  0.23900  1.0000
  C   C212      1.0  0.05490  0.72866  0.20593  1.0000
  H   H368      1.0  0.10098  0.52968  0.76946  1.0000
  H   H369      1.0  0.00416  0.63707  0.86996  1.0000
  C   C213      1.0  0.06059  0.51719  0.52384  1.0000
  C   C214      1.0  0.05281  0.72957  0.27072  1.0000
  H   H370      1.0  0.05582  0.72164  0.18128  1.0000
  C   C215      1.0  0.09282  0.54570  0.25850  1.0000
  H   H371      1.0  0.00683  0.72665  0.73846  1.0000
  H   H372      1.0  0.05192  0.72319  0.29636  1.0000
  H   H373      1.0  0.09813  0.72217  0.78177  1.0000
  H   H374      1.0  0.00109  0.71771  0.66372  1.0000
  C   C216      1.0  0.08771  0.72769  0.76474  1.0000
  C   C217      1.0  0.07418  0.71926  0.76053  1.0000
  C   C218      1.0  0.06078  0.72658  0.73814  1.0000
  C   C219      1.0  0.01474  0.58870  0.13455  1.0000
  H   H375      1.0  0.14012  0.56323  0.38770  1.0000
  H   H376      1.0  0.09335  0.52763  0.21584  1.0000
  H   H377      1.0  0.05044  0.72001  0.73410  1.0000
  C   C220      1.0  0.02001  0.60502  0.85305  1.0000
  C   C221      1.0  0.04220  0.57372  0.73787  1.0000
  C   C222      1.0  0.04500  0.58119  0.70459  1.0000
  C   C223      1.0  0.04856  0.59769  0.70291  1.0000
  C   C224      1.0  0.04904  0.60695  0.73437  1.0000
  C   C225      1.0  0.04571  0.59965  0.76753  1.0000
  C   C226      1.0  0.04239  0.58308  0.76925  1.0000
  H   H378      1.0  0.04485  0.57411  0.68028  1.0000
  H   H379      1.0  0.05115  0.60325  0.67715  1.0000
  H   H380      1.0  0.04622  0.60659  0.79192  1.0000
  H   H381      1.0  0.04034  0.57735  0.79513  1.0000
  C   C227      1.0  0.04196  0.58030  0.27376  1.0000
  C   C228      1.0  0.04829  0.57416  0.24040  1.0000
  C   C229      1.0  0.05196  0.58547  0.21312  1.0000
  C   C230      1.0  0.04904  0.60304  0.21857  1.0000
  C   C231      1.0  0.04306  0.60908  0.25218  1.0000
  C   C232      1.0  0.03960  0.59777  0.27959  1.0000
  H   H382      1.0  0.05033  0.56074  0.23557  1.0000
  H   H383      1.0  0.05682  0.58061  0.18739  1.0000
  H   H384      1.0  0.04099  0.62250  0.25696  1.0000
  H   H385      1.0  0.03496  0.60263  0.30548  1.0000
  C   C233      1.0  0.00188  0.63213  0.26100  1.0000
  C   C234      1.0  0.08791  0.74326  0.74754  1.0000
  S   S69       1.0  0.06119  0.50970  0.69318  1.0000
  H   H386      1.0  0.12517  0.53623  0.75109  1.0000
  H   H387      1.0  0.09734  0.56717  0.65749  1.0000
  H   H388      1.0  0.02872  0.60347  0.09936  1.0000
  S   S70       1.0  0.07437  0.50520  0.41874  1.0000
  H   H389      1.0  0.10232  0.73839  0.40502  1.0000
  H   H390      1.0  0.11243  0.54275  0.32909  1.0000
  H   H391      1.0  0.13542  0.54698  0.71698  1.0000
  H   H392      1.0  0.05770  0.56419  0.40752  1.0000
  C   C235      1.0  0.13952  0.52005  0.71219  1.0000
  C   C236      1.0  0.07745  0.53831  0.79657  1.0000
  C   C237      1.0  0.10385  0.74179  0.37617  1.0000
  H   H393      1.0  0.11431  0.57295  0.70554  1.0000
  H   H394      1.0  0.02690  0.61356  0.02015  1.0000
  H   H395      1.0  0.02426  0.54020  0.51120  1.0000
  C   C238      1.0  0.08543  0.54840  0.73478  1.0000
  C   C239      1.0  0.01992  0.55499  0.46251  1.0000
  H   H396      1.0  0.00958  0.62212  0.27767  1.0000
  H   H397      1.0  0.02118  0.56705  0.47516  1.0000
  H   H398      1.0  0.04628  0.74769  0.43810  1.0000
  H   H399      1.0  0.08499  0.73224  0.29814  1.0000
  C   C240      1.0  0.00622  0.72333  0.26163  1.0000
  C   C241      1.0  0.13568  0.55860  0.36233  1.0000
  C   C242      1.0  0.09198  0.54180  0.77220  1.0000
  C   C243      1.0  0.00190  0.70398  0.66923  1.0000
  H   H400      1.0  0.00720  0.64386  0.26269  1.0000
  H   H401      1.0  0.04158  0.74182  0.39342  1.0000
  H   H402      1.0  0.07078  0.52899  0.78421  1.0000
  H   H403      1.0  0.02436  0.71205  0.75727  1.0000
  H   H404      1.0  0.03222  0.50269  0.50244  1.0000
  C   C244      1.0  0.08014  0.56654  0.35035  1.0000
  C   C245      1.0  0.04270  0.73620  0.87225  1.0000
  H   H405      1.0  0.01242  0.61463  0.15266  1.0000
  H   H406      1.0  0.12575  0.73858  0.33847  1.0000
  H   H407      1.0  0.03398  0.58094  0.09346  1.0000
  C   C246      1.0  0.01346  0.72220  0.76377  1.0000
  H   H408      1.0  0.11651  0.54196  0.67091  1.0000
  C   C247      1.0  0.10969  0.55678  0.32583  1.0000
  N   N12       1.0  0.09161  0.73459  0.35354  1.0000
  H   H409      1.0  0.07029  0.54467  0.66862  1.0000
  H   H410      1.0  0.07427  0.55851  0.73875  1.0000
  H   H411      1.0  0.09028  0.54212  0.37763  1.0000
  H   H412      1.0  0.05051  0.74824  0.70407  1.0000
  C   C248      1.0  0.06833  0.74098  0.40329  1.0000
  H   H413      1.0  0.07569  0.58203  0.28463  1.0000
  H   H414      1.0  0.09294  0.62119  0.29596  1.0000
  C   C249      1.0  0.08107  0.54850  0.65364  1.0000
  H   H415      1.0  0.06882  0.54699  0.60263  1.0000
  C   C250      1.0  0.09234  0.58462  0.73648  1.0000
  C   C251      1.0  0.08794  0.52980  0.24338  1.0000
  H   H416      1.0  0.09290  0.51856  0.26049  1.0000
  N   N13       1.0  0.09796  0.55449  0.70946  1.0000
  H   H417      1.0  0.00968  0.70022  0.69348  1.0000
  H   H418      1.0  0.00511  0.66349  0.87589  1.0000
  S   S71       1.0  0.02043  0.51731  0.70600  1.0000
  H   H419      1.0  0.06456  0.73912  0.34594  1.0000
  C   C252      1.0  0.04968  0.74866  0.40915  1.0000
  H   H420      1.0  0.08244  0.53313  0.82293  1.0000
  H   H421      1.0  0.06922  0.72861  0.85352  1.0000
  C   C253      1.0  0.07393  0.74339  0.36356  1.0000
  C   C254      1.0  0.00901  0.61106  0.88585  1.0000
  H   H422      1.0  0.05647  0.70963  0.91813  1.0000
  H   H423      1.0  0.08464  0.56012  0.60118  1.0000
  H   H424      1.0  0.01055  0.55783  0.44061  1.0000
  C   C255      1.0  0.11644  0.56355  0.36041  1.0000
  H   H425      1.0  0.01746  0.64277  0.99603  1.0000
  H   H426      1.0  0.11307  0.57744  0.36210  1.0000
  H   H427      1.0  0.01722  0.57593  0.14752  1.0000
  C   C256      1.0  0.07802  0.55083  0.37372  1.0000
  H   H428      1.0  0.00834  0.69693  0.64601  1.0000
  H   H429      1.0  0.00502  0.61181  0.02896  1.0000
  H   H430      1.0  0.04153  0.59028  0.13206  1.0000
  C   C257      1.0  0.06088  0.74251  0.72099  1.0000
  C   C258      1.0  0.01401  0.62072  0.02617  1.0000
  H   H431      1.0  0.04136  0.72218  0.80589  1.0000
  C   C259      1.0  0.03071  0.59102  0.11363  1.0000
  H   H432      1.0  0.05772  0.74376  0.80707  1.0000
  C   C260      1.0  0.09387  0.59466  0.30968  1.0000
  Fe  Fe34      1.0  0.03875  0.53852  0.32033  1.0000
  Fe  Fe35      1.0  0.04072  0.53280  0.69842  1.0000
  H   H433      1.0  0.08802  0.55625  0.23948  1.0000
  C   C261      1.0  0.09425  0.73773  0.31383  1.0000
  N   N14       1.0  0.00566  0.51375  0.49990  1.0000
  C   C262      1.0  0.07416  0.50771  0.54294  1.0000
  H   H434      1.0  0.02710  0.74266  0.76147  1.0000
  H   H435      1.0  0.15120  0.51824  0.72840  1.0000
  H   H436      1.0  0.09473  0.60767  0.25758  1.0000
  N   N15       1.0  0.03468  0.74457  0.83843  1.0000
  H   H437      1.0  0.09047  0.53697  0.64757  1.0000
  C   C263      1.0  0.13357  0.74583  0.38944  1.0000
  H   H438      1.0  0.07749  0.70588  0.89894  1.0000
  H   H439      1.0  0.02187  0.52113  0.45764  1.0000
  H   H440      1.0  0.00793  0.74642  0.78782  1.0000
  H   H441      1.0  0.13148  0.74365  0.41865  1.0000
  H   H442      1.0  0.02327  0.63102  0.89418  1.0000
  H   H443      1.0  0.02477  0.51553  0.53911  1.0000
  N   N16       1.0  0.09125  0.56298  0.31719  1.0000
  H   H444      1.0  0.06948  0.72571  0.92018  1.0000
  C   C264      1.0  0.05296  0.74705  0.26947  1.0000
  H   H445      1.0  0.05003  0.52407  0.47102  1.0000
  C   C265      1.0  0.01939  0.73695  0.78159  1.0000
  H   H446      1.0  0.09153  0.60867  0.76206  1.0000
  H   H447      1.0  0.09815  0.55104  0.78601  1.0000
  C   C266      1.0  0.06020  0.51649  0.48571  1.0000
  H   H448      1.0  0.01765  0.74018  0.22892  1.0000
  H   H449      1.0  0.05079  0.52543  0.53843  1.0000
  H   H450      1.0  0.01522  0.62449  0.21194  1.0000
  H   H451      1.0  0.08752  0.59782  0.33596  1.0000
  Fe  Fe36      1.0  0.01650  0.51769  0.36246  1.0000
  C   C267      1.0  0.08905  0.57870  0.29353  1.0000
  H   H452      1.0  0.11281  0.56439  0.74938  1.0000
  H   H453      1.0  0.08731  0.53726  0.31191  1.0000
  H   H454      1.0  0.02193  0.62020  0.95350  1.0000
  Fe  Fe37      1.0  0.05545  0.51214  0.63349  1.0000
  C   C268      1.0  0.09273  0.71587  0.36143  1.0000
  Fe  Fe38      1.0  0.05399  0.51158  0.37635  1.0000
  H   H455      1.0  0.14319  0.52010  0.68325  1.0000
  C   C269      1.0  0.08875  0.56135  0.67569  1.0000
  H   H456      1.0  0.11064  0.60154  0.73650  1.0000
  H   H457      1.0  0.01999  0.59852  0.18460  1.0000
  S   S72       1.0  0.01947  0.52330  0.30400  1.0000
  H   H458      1.0  0.10683  0.54387  0.25908  1.0000
  H   H459      1.0  0.00202  0.56059  0.71996  1.0000
  H   H460      1.0  0.01928  0.70852  0.21774  1.0000
  H   H461      1.0  0.08464  0.57564  0.36797  1.0000
  H   H462      1.0  0.09385  0.68136  0.35312  1.0000
  C   C270      1.0  0.08497  0.54946  0.29652  1.0000
  H   H463      1.0  0.01819  0.65389  0.93493  1.0000
  C   C271      1.0  0.10643  0.68520  0.35178  1.0000
  H   H464      1.0  0.00457  0.58890  0.11493  1.0000
  H   H465      1.0  0.05683  0.71218  0.85136  1.0000
  H   H466      1.0  0.06846  0.54432  0.42603  1.0000
  C   C272      1.0  0.10525  0.56870  0.72520  1.0000
  S   S73       1.0  0.06023  0.51608  0.31760  1.0000
  C   C273      1.0  0.00194  0.62678  0.22180  1.0000
  C   C274      1.0  0.10109  0.59738  0.75484  1.0000
  C   C275      1.0  0.12808  0.53671  0.72196  1.0000
  H   H467      1.0  0.11206  0.68396  0.37897  1.0000
  H   H468      1.0  0.10682  0.52800  0.69810  1.0000
  H   H469      1.0  0.04592  0.74559  0.89095  1.0000
  H   H470      1.0  0.08031  0.53789  0.72282  1.0000
  H   H471      1.0  0.07104  0.55274  0.29324  1.0000
  C   C276      1.0  0.05536  0.74609  0.20477  1.0000
  H   H472      1.0  0.03343  0.72981  0.88722  1.0000
  H   H473      1.0  0.00191  0.61449  0.96245  1.0000
  C   C277      1.0  0.00176  0.68475  0.90998  1.0000
  H   H474      1.0  0.10729  0.59185  0.77991  1.0000
  H   H475      1.0  0.08271  0.58135  0.75573  1.0000
  H   H476      1.0  0.07006  0.72745  0.41140  1.0000
  H   H477      1.0  0.09621  0.71283  0.39000  1.0000
  H   H478      1.0  0.11478  0.67650  0.33353  1.0000
  H   H479      1.0  0.00270  0.55024  0.50404  1.0000
  H   H480      1.0  0.01358  0.60250  0.90876  1.0000
  H   H481      1.0  0.14179  0.56433  0.33936  1.0000
  H   H482      1.0  0.06821  0.55016  0.80129  1.0000
  C   C278      1.0  0.07025  0.55584  0.41057  1.0000
  Fe  Fe39      1.0  0.01819  0.51909  0.64647  1.0000
  H   H483      1.0  0.08583  0.59123  0.71276  1.0000
  C   C279      1.0  0.02989  0.73088  0.81571  1.0000
  H   H484      1.0  0.12691  0.72257  0.37378  1.0000
  C   C280      1.0  0.12286  0.73617  0.36714  1.0000
  H   H485      1.0  0.10680  0.73105  0.30440  1.0000
  C   C281      1.0  0.01053  0.52675  0.47379  1.0000
  Fe  Fe40      1.0  0.04039  0.50027  0.30565  1.0000
  H   H486      1.0  0.11108  0.55810  0.38470  1.0000
  H   H487      1.0  0.13964  0.54464  0.36194  1.0000
  C   C282      1.0  0.07429  0.55636  0.61781  1.0000
  H   H488      1.0  0.14719  0.74143  0.38301  1.0000
  H   H489      1.0  0.03243  0.54933  0.45095  1.0000
  H   H490      1.0  0.07869  0.56242  0.42601  1.0000
  H   H491      1.0  0.07797  0.57161  0.68207  1.0000
  H   H492      1.0  0.06422  0.56758  0.62238  1.0000
  C   C283      1.0  0.08878  0.61001  0.28464  1.0000
  C   C284      1.0  0.10479  0.70333  0.33732  1.0000
  H   H493      1.0  0.09965  0.70363  0.30971  1.0000
  H   H494      1.0  0.11763  0.70640  0.33529  1.0000
  H   H495      1.0  0.02261  0.72290  0.83232  1.0000
  H   H496      1.0  0.06720  0.57298  0.34262  1.0000
  H   H497      1.0  0.01915  0.59172  0.84747  1.0000
  C   C285      1.0  0.05916  0.72295  0.86719  1.0000
  H   H498      1.0  0.01565  0.61288  0.82891  1.0000
  H   H499      1.0  0.01094  0.69636  0.25252  1.0000
  H   H500      1.0  0.00456  0.71692  0.78191  1.0000
  H   H501      1.0  0.01551  0.68418  0.91412  1.0000
  C   C286      1.0  0.01422  0.54312  0.49082  1.0000
  H   H502      1.0  0.01438  0.62716  0.05217  1.0000
  H   H503      1.0  0.03346  0.60568  0.85793  1.0000
  C   C287      1.0  0.07337  0.50636  0.46659  1.0000
  H   H504      1.0  0.00289  0.56195  0.32692  1.0000
  C   C288      1.0  0.00972  0.62975  0.89389  1.0000
  H   H505      1.0  0.00235  0.55087  0.67645  1.0000
  C   C289      1.0  0.00842  0.70832  0.23651  1.0000
  S   S74       1.0  0.07624  0.50861  0.59046  1.0000
  C   C290      1.0  0.00834  0.62556  0.95920  1.0000
  H   H506      1.0  0.07569  0.74738  0.42175  1.0000
  C   C291      1.0  0.00465  0.74026  0.24004  1.0000
  C   C292      1.0  0.00841  0.63389  0.99651  1.0000
  C   C293      1.0  0.02114  0.50608  0.52089  1.0000
  Fe  Fe41      1.0  0.17350  0.90156  0.59734  1.0000
  S   S75       1.0  0.14725  0.91621  0.60342  1.0000
  S   S76       1.0  0.17758  0.88708  0.54566  1.0000
  Fe  Fe42      1.0  0.18387  0.91158  0.67105  1.0000
  S   S77       1.0  0.15768  0.92651  0.68198  1.0000
  S   S78       1.0  0.20236  0.91428  0.71565  1.0000
  Fe  Fe43      1.0  0.14779  0.90453  0.65849  1.0000
  S   S79       1.0  0.12503  0.89382  0.68125  1.0000
  Fe  Fe44      1.0  0.15959  0.93660  0.62560  1.0000
  S   S80       1.0  0.15288  0.96355  0.60325  1.0000
  S   S81       1.0  0.17383  0.88885  0.65204  1.0000
  S   S82       1.0  0.18595  0.92267  0.61542  1.0000
  Fe  Fe45      1.0  0.02970  0.81908  0.66620  1.0000
  S   S83       1.0  0.03306  0.79193  0.65127  1.0000
  C   C294      1.0  0.22589  0.93532  0.62313  1.0000
  Fe  Fe46      1.0  0.06467  0.82397  0.63484  1.0000
  S   S84       1.0  0.06994  0.79696  0.61653  1.0000
  S   S85       1.0  0.08567  0.83870  0.61739  1.0000
  Fe  Fe47      1.0  0.04292  0.80126  0.59902  1.0000
  S   S86       1.0  0.03144  0.79497  0.54733  1.0000
  Fe  Fe48      1.0  0.05965  0.79010  0.67050  1.0000
  S   S87       1.0  0.03820  0.82867  0.61296  1.0000
  S   S88       1.0  0.05571  0.81685  0.68974  1.0000
  Fe  Fe49      1.0  0.17454  0.92370  0.35308  1.0000
  S   S89       1.0  0.14679  0.92424  0.34544  1.0000
  S   S90       1.0  0.18408  0.93162  0.40550  1.0000
  Fe  Fe50      1.0  0.18353  0.92041  0.27266  1.0000
  S   S91       1.0  0.15620  0.92066  0.25947  1.0000
  S   S92       1.0  0.20059  0.92334  0.22362  1.0000
  Fe  Fe51      1.0  0.15016  0.94169  0.29893  1.0000
  S   S93       1.0  0.13158  0.96554  0.28609  1.0000
  Fe  Fe52      1.0  0.15513  0.90295  0.30704  1.0000
  S   S94       1.0  0.14421  0.87834  0.30337  1.0000
  S   S95       1.0  0.17710  0.94256  0.30900  1.0000
  S   S96       1.0  0.18319  0.90120  0.31780  1.0000
  Fe  Fe53      1.0  0.05569  0.79396  0.28250  1.0000
  S   S97       1.0  0.04107  0.82083  0.28103  1.0000
  Fe  Fe54      1.0  0.06460  0.79610  0.36045  1.0000
  S   S98       1.0  0.05016  0.82236  0.36516  1.0000
  S   S99       1.0  0.07853  0.78369  0.40861  1.0000
  Fe  Fe55      1.0  0.03000  0.81339  0.33371  1.0000
  H   H507      1.0  0.15338  0.77787  0.76960  1.0000
  Fe  Fe56      1.0  0.06283  0.82756  0.31273  1.0000
  S   S100      1.0  0.07290  0.85279  0.31217  1.0000
  S   S101      1.0  0.04368  0.78651  0.33358  1.0000
  S   S102      1.0  0.07825  0.80129  0.30942  1.0000
  C   C295      1.0  0.12441  0.87125  0.30861  1.0000
  C   C296      1.0  0.10950  0.88187  0.31967  1.0000
  C   C297      1.0  0.09400  0.87590  0.32124  1.0000
  C   C298      1.0  0.09313  0.85916  0.31235  1.0000
  C   C299      1.0  0.10813  0.84839  0.30237  1.0000
  C   C300      1.0  0.12360  0.85441  0.30049  1.0000
  H   H508      1.0  0.10986  0.89478  0.32641  1.0000
  H   H509      1.0  0.08252  0.88440  0.32903  1.0000
  H   H510      1.0  0.10777  0.83553  0.29516  1.0000
  H   H511      1.0  0.13501  0.84599  0.29204  1.0000
  C   C301      1.0  0.04487  0.79218  0.50929  1.0000
  C   C302      1.0  0.03785  0.79529  0.47508  1.0000
  C   C303      1.0  0.04818  0.79285  0.44418  1.0000
  C   C304      1.0  0.06556  0.78690  0.44730  1.0000
  C   C305      1.0  0.07259  0.78352  0.48147  1.0000
  C   C306      1.0  0.06229  0.78639  0.51249  1.0000
  H   H512      1.0  0.02440  0.79981  0.47247  1.0000
  H   H513      1.0  0.04259  0.79540  0.41796  1.0000
  C   C307      1.0  0.05171  0.85914  0.41703  1.0000
  H   H514      1.0  0.06774  0.78377  0.53882  1.0000
  C   C308      1.0  0.17949  0.89941  0.50669  1.0000
  C   C309      1.0  0.17652  0.89326  0.47284  1.0000
  C   C310      1.0  0.17763  0.90314  0.44155  1.0000
  C   C311      1.0  0.18229  0.91896  0.44398  1.0000
  C   C312      1.0  0.18558  0.92493  0.47772  1.0000
  C   C313      1.0  0.18389  0.91534  0.50906  1.0000
  H   H515      1.0  0.17333  0.88086  0.47081  1.0000
  H   H516      1.0  0.17524  0.89838  0.41555  1.0000
  H   H517      1.0  0.18937  0.93705  0.47970  1.0000
  H   H518      1.0  0.18628  0.92014  0.53498  1.0000
  C   C314      1.0  0.11405  0.87870  0.66270  1.0000
  C   C315      1.0  0.11843  0.87140  0.62925  1.0000
  C   C316      1.0  0.10935  0.85953  0.61561  1.0000
  C   C317      1.0  0.09593  0.85452  0.63539  1.0000
  C   C318      1.0  0.09150  0.86185  0.66879  1.0000
  C   C319      1.0  0.10048  0.87386  0.68226  1.0000
  H   H519      1.0  0.12890  0.87487  0.61401  1.0000
  H   H520      1.0  0.11292  0.85399  0.58975  1.0000
  H   H521      1.0  0.08113  0.85832  0.68425  1.0000
  H   H522      1.0  0.09690  0.87945  0.70808  1.0000
  C   C320      1.0  0.13716  0.98584  0.28460  1.0000
  H   H523      1.0  0.19694  0.96092  0.08365  1.0000
  C   C321      1.0  0.22399  0.97334  0.63340  1.0000
  H   H524      1.0  0.09851  0.74953  0.75145  1.0000
  C   C322      1.0  0.01806  0.76640  0.88364  1.0000
  C   C323      1.0  0.22023  0.99200  0.64499  1.0000
  H   H525      1.0  0.16373  0.79524  0.75603  1.0000
  H   H526      1.0  0.02939  0.77208  0.88745  1.0000
  H   H527      1.0  0.23167  0.99612  0.65494  1.0000
  H   H528      1.0  0.10305  0.90180  0.39076  1.0000
  H   H529      1.0  0.01955  0.76862  0.24641  1.0000
  H   H530      1.0  0.22904  0.90716  0.26875  1.0000
  H   H531      1.0  0.06245  0.77781  0.78524  1.0000
  C   C324      1.0  0.16100  0.98005  0.62358  1.0000
  C   C325      1.0  0.16920  0.97749  0.65657  1.0000
  H   H532      1.0  0.23962  0.93307  0.10368  1.0000
  H   H533      1.0  0.04513  0.84851  0.42416  1.0000
  H   H534      1.0  0.24846  0.89860  0.13126  1.0000
  H   H535      1.0  0.17067  0.96526  0.66996  1.0000
  H   H536      1.0  0.00730  0.78073  0.31021  1.0000
  C   C326      1.0  0.08795  0.82207  0.48782  1.0000
  H   H537      1.0  0.06598  0.86643  0.22468  1.0000
  H   H538      1.0  0.15544  0.95252  0.52061  1.0000
  H   H539      1.0  0.20546  0.95695  0.67282  1.0000
  C   C327      1.0  0.19069  0.97081  0.13700  1.0000
  H   H540      1.0  0.02048  0.76168  0.35987  1.0000
  H   H541      1.0  0.08074  0.92288  0.59228  1.0000
  H   H542      1.0  0.02525  0.78400  0.18949  1.0000
  C   C328      1.0  0.18468  0.97407  0.52692  1.0000
  H   H543      1.0  0.24241  0.92505  0.57868  1.0000
  H   H544      1.0  0.22539  0.91390  0.58904  1.0000
  N   N17       1.0  0.11731  0.91449  0.50866  1.0000
  C   C329      1.0  0.10424  0.91184  0.48183  1.0000
  C   C330      1.0  0.10848  0.91913  0.54424  1.0000
  C   C331      1.0  0.12481  0.92947  0.49545  1.0000
  C   C332      1.0  0.13140  0.89931  0.51285  1.0000
  C   C333      1.0  0.12677  0.88155  0.50836  1.0000
  C   C334      1.0  0.11057  0.90999  0.44215  1.0000
  C   C335      1.0  0.13765  0.93541  0.52057  1.0000
  C   C336      1.0  0.10026  0.90541  0.56358  1.0000
  C   C337      1.0  0.09109  0.91206  0.59818  1.0000
  C   C338      1.0  0.14089  0.86757  0.52185  1.0000
  H   H545      1.0  0.17101  0.77448  0.73835  1.0000
  C   C339      1.0  0.00568  0.77043  0.24171  1.0000
  H   H546      1.0  0.09339  0.92267  0.48225  1.0000
  H   H547      1.0  0.09856  0.90070  0.48936  1.0000
  H   H548      1.0  0.11745  0.92230  0.56401  1.0000
  H   H549      1.0  0.09864  0.93074  0.54093  1.0000
  H   H550      1.0  0.24023  0.84451  0.11029  1.0000
  H   H551      1.0  0.11474  0.99622  0.25519  1.0000
  H   H552      1.0  0.14181  0.89998  0.49302  1.0000
  H   H553      1.0  0.13745  0.89951  0.53950  1.0000
  H   H554      1.0  0.12485  0.87925  0.47961  1.0000
  H   H555      1.0  0.11503  0.88004  0.52291  1.0000
  H   H556      1.0  0.09619  0.89055  0.42892  1.0000
  H   H557      1.0  0.13033  0.75960  0.38324  1.0000
  H   H558      1.0  0.14778  0.92470  0.52817  1.0000
  H   H559      1.0  0.13133  0.94121  0.54520  1.0000
  H   H560      1.0  0.09094  0.90093  0.54642  1.0000
  H   H561      1.0  0.11020  0.89465  0.57173  1.0000
  C   C340      1.0  0.20144  0.95838  0.11163  1.0000
  H   H562      1.0  0.19658  0.96980  0.76741  1.0000
  H   H563      1.0  0.22002  0.96451  0.23118  1.0000
  H   H564      1.0  0.15279  0.86780  0.50640  1.0000
  H   H565      1.0  0.14323  0.86916  0.55082  1.0000
  H   H566      1.0  0.13726  0.85506  0.51859  1.0000
  H   H567      1.0  0.10087  0.75583  0.37521  1.0000
  H   H568      1.0  0.09765  0.76999  0.64116  1.0000
  H   H569      1.0  0.15285  0.94383  0.47739  1.0000
  H   H570      1.0  0.17261  0.97221  0.38449  1.0000
  C   C341      1.0  0.19146  0.99863  0.37548  1.0000
  H   H571      1.0  0.13264  0.77852  0.65463  1.0000
  H   H572      1.0  0.23199  0.88262  0.09309  1.0000
  H   H573      1.0  0.12725  0.84104  0.68179  1.0000
  C   C342      1.0  0.08056  0.83996  0.41600  1.0000
  C   C343      1.0  0.11035  0.79322  0.68330  1.0000
  H   H574      1.0  0.22095  0.94304  0.69696  1.0000
  H   H575      1.0  0.08740  0.85675  0.23478  1.0000
  C   C344      1.0  0.22297  0.92141  0.21962  1.0000
  H   H576      1.0  0.09742  0.79878  0.67368  1.0000
  H   H577      1.0  0.07464  0.82478  0.47891  1.0000
  H   H578      1.0  0.07506  0.86728  0.42650  1.0000
  C   C345      1.0  0.23878  0.94419  0.64216  1.0000
  H   H579      1.0  0.11168  0.83087  0.72366  1.0000
  H   H580      1.0  0.12916  0.84587  0.45471  1.0000
  H   H581      1.0  0.08065  0.84226  0.38643  1.0000
  H   H582      1.0  0.06812  0.85447  0.46206  1.0000
  C   C346      1.0  0.08194  0.83021  0.75711  1.0000
  H   H583      1.0  0.21493  0.95974  0.11239  1.0000
  H   H584      1.0  0.14060  0.83645  0.61961  1.0000
  H   H585      1.0  0.11184  0.82985  0.47953  1.0000
  H   H586      1.0  0.13505  0.81059  0.74136  1.0000
  H   H587      1.0  0.08555  0.90186  0.61170  1.0000
  C   C347      1.0  0.21511  0.96350  0.28775  1.0000
  H   H588      1.0  0.15584  0.95979  0.42581  1.0000
  H   H589      1.0  0.10059  0.82037  0.53967  1.0000
  H   H590      1.0  0.07375  0.82919  0.41994  1.0000
  C   C348      1.0  0.23420  0.89941  0.68971  1.0000
  C   C349      1.0  0.06951  0.85589  0.43250  1.0000
  H   H591      1.0  0.04423  0.87087  0.42838  1.0000
  C   C350      1.0  0.09870  0.83427  0.47006  1.0000
  C   C351      1.0  0.21765  0.95629  0.68702  1.0000
  C   C352      1.0  0.09452  0.81507  0.74305  1.0000
  H   H592      1.0  0.10820  0.78441  0.70572  1.0000
  N   N18       1.0  0.10764  0.90076  0.20959  1.0000
  C   C353      1.0  0.10287  0.88370  0.21671  1.0000
  C   C354      1.0  0.12660  0.89907  0.21210  1.0000
  C   C355      1.0  0.09986  0.91231  0.23934  1.0000
  C   C356      1.0  0.10139  0.90860  0.17385  1.0000
  C   C357      1.0  0.10020  0.89636  0.14270  1.0000
  C   C358      1.0  0.08369  0.88380  0.22244  1.0000
  C   C359      1.0  0.10488  0.93003  0.23962  1.0000
  C   C360      1.0  0.13763  0.88644  0.18671  1.0000
  C   C361      1.0  0.15638  0.88472  0.19543  1.0000
  C   C362      1.0  0.09665  0.90598  0.10697  1.0000
  C   C363      1.0  0.21131  0.97192  0.25085  1.0000
  C   C364      1.0  0.09421  0.94144  0.26696  1.0000
  H   H593      1.0  0.10934  0.87765  0.24114  1.0000
  H   H594      1.0  0.10750  0.87480  0.19492  1.0000
  H   H595      1.0  0.13052  0.91140  0.20629  1.0000
  H   H596      1.0  0.13059  0.89546  0.24015  1.0000
  H   H597      1.0  0.10319  0.90624  0.26604  1.0000
  H   H598      1.0  0.08581  0.91451  0.23819  1.0000
  H   H599      1.0  0.08844  0.91630  0.17686  1.0000
  H   H600      1.0  0.10941  0.91776  0.16434  1.0000
  H   H601      1.0  0.08968  0.88939  0.14795  1.0000
  H   H602      1.0  0.11189  0.88687  0.13927  1.0000
  H   H603      1.0  0.07986  0.88768  0.25032  1.0000
  H   H604      1.0  0.07592  0.89279  0.20365  1.0000
  H   H605      1.0  0.10319  0.93637  0.21281  1.0000
  H   H606      1.0  0.11827  0.92900  0.24756  1.0000
  H   H607      1.0  0.13451  0.87363  0.18921  1.0000
  H   H608      1.0  0.13611  0.89109  0.15848  1.0000
  H   H609      1.0  0.16056  0.89708  0.19209  1.0000
  H   H610      1.0  0.15880  0.87997  0.22349  1.0000
  H   H611      1.0  0.16407  0.87561  0.17698  1.0000
  H   H612      1.0  0.10719  0.91263  0.09950  1.0000
  H   H613      1.0  0.09543  0.89699  0.08540  1.0000
  H   H614      1.0  0.08465  0.91533  0.10874  1.0000
  C   C365      1.0  0.19071  0.99009  0.41325  1.0000
  H   H615      1.0  0.04719  0.76224  0.40108  1.0000
  H   H616      1.0  0.07139  0.78435  0.82544  1.0000
  H   H617      1.0  0.08060  0.94348  0.26009  1.0000
  H   H618      1.0  0.09598  0.93578  0.29446  1.0000
  H   H619      1.0  0.09824  0.95391  0.26692  1.0000
  H   H620      1.0  0.05223  0.86069  0.38728  1.0000
  N   N19       1.0  0.18750  0.97952  0.20396  1.0000
  C   C366      1.0  0.19256  0.97250  0.24088  1.0000
  C   C367      1.0  0.16860  0.98106  0.20080  1.0000
  H   H621      1.0  0.09116  0.75082  0.24453  1.0000
  H   H622      1.0  0.21187  0.97057  0.62321  1.0000
  H   H623      1.0  0.21052  0.96833  0.17589  1.0000
  H   H624      1.0  0.01561  0.76652  0.82547  1.0000
  H   H625      1.0  0.23953  0.87321  0.13482  1.0000
  C   C368      1.0  0.16181  0.96423  0.20418  1.0000
  C   C369      1.0  0.14345  0.96657  0.19220  1.0000
  H   H626      1.0  0.22916  0.97664  0.84556  1.0000
  H   H627      1.0  0.14122  0.97895  0.43405  1.0000
  H   H628      1.0  0.15878  0.82348  0.64033  1.0000
  H   H629      1.0  0.19030  0.95931  0.24368  1.0000
  H   H630      1.0  0.18437  0.97958  0.26199  1.0000
  H   H631      1.0  0.21959  0.85766  0.10737  1.0000
  H   H632      1.0  0.21721  0.98574  0.36338  1.0000
  H   H633      1.0  0.00477  0.77909  0.37472  1.0000
  C   C370      1.0  0.12620  0.99879  0.26691  1.0000
  H   H634      1.0  0.24495  0.91009  0.82637  1.0000
  C   C371      1.0  0.09849  0.75770  0.26214  1.0000
  C   C372      1.0  0.20971  0.99878  0.36370  1.0000
  C   C373      1.0  0.13901  0.96820  0.38260  1.0000
  H   H635      1.0  0.13178  0.92651  0.46956  1.0000
  H   H636      1.0  0.08566  0.91189  0.41854  1.0000
  H   H637      1.0  0.24341  0.91130  0.61802  1.0000
  H   H638      1.0  0.13655  0.96028  0.49538  1.0000
  H   H639      1.0  0.16919  0.95409  0.18773  1.0000
  H   H640      1.0  0.16233  0.95973  0.23266  1.0000
  H   H641      1.0  0.13851  0.95476  0.19783  1.0000
  H   H642      1.0  0.05913  0.76330  0.86171  1.0000
  S   S103      1.0  0.00305  0.81790  0.35619  1.0000
  C   C374      1.0  0.17503  0.99091  0.67278  1.0000
  H   H643      1.0  0.22837  0.96384  0.29504  1.0000
  H   H644      1.0  0.01884  0.75068  0.29761  1.0000
  C   C375      1.0  0.09806  0.90312  0.41878  1.0000
  S   S104      1.0  0.07588  0.77108  0.70727  1.0000
  H   H645      1.0  0.20650  0.97014  0.30867  1.0000
  C   C376      1.0  0.13132  0.80006  0.72643  1.0000
  H   H646      1.0  0.22528  0.91811  0.10471  1.0000
  H   H647      1.0  0.09761  0.82156  0.35896  1.0000
  H   H648      1.0  0.10274  0.86099  0.42965  1.0000
  H   H649      1.0  0.10646  0.85136  0.38749  1.0000
  H   H650      1.0  0.09797  0.80899  0.42137  1.0000
  H   H651      1.0  0.12976  0.79550  0.37548  1.0000
  N   N20       1.0  0.09843  0.83534  0.42953  1.0000
  C   C377      1.0  0.10807  0.84882  0.41691  1.0000
  H   H652      1.0  0.09473  0.84700  0.48178  1.0000
  C   C378      1.0  0.10627  0.81830  0.41500  1.0000
  C   C379      1.0  0.10957  0.81766  0.37378  1.0000
  H   H653      1.0  0.09344  0.80881  0.48119  1.0000
  C   C380      1.0  0.16371  0.98178  0.40015  1.0000
  C   C381      1.0  0.11743  0.79982  0.36218  1.0000
  H   H654      1.0  0.11845  0.82605  0.36519  1.0000
  H   H655      1.0  0.08156  0.83633  0.53683  1.0000
  H   H656      1.0  0.13583  0.85781  0.37760  1.0000
  H   H657      1.0  0.14940  0.85691  0.41573  1.0000
  H   H658      1.0  0.08008  0.81437  0.54077  1.0000
  C   C382      1.0  0.08761  0.82340  0.52871  1.0000
  C   C383      1.0  0.14608  0.94888  0.50216  1.0000
  N   N21       1.0  0.11918  0.80690  0.69687  1.0000
  H   H659      1.0  0.11835  0.81314  0.42873  1.0000
  H   H660      1.0  0.12969  0.87175  0.41484  1.0000
  C   C384      1.0  0.13600  0.85884  0.40730  1.0000
  C   C385      1.0  0.12724  0.84545  0.42530  1.0000
  H   H661      1.0  0.13377  0.83300  0.41560  1.0000
  H   H662      1.0  0.10884  0.79086  0.36904  1.0000
  H   H663      1.0  0.11957  0.79976  0.33260  1.0000
  H   H664      1.0  0.18090  0.98900  0.69873  1.0000
  C   C386      1.0  0.13672  0.82953  0.67587  1.0000
  H   H665      1.0  0.08152  0.86246  0.18882  1.0000
  C   C387      1.0  0.11887  0.78257  0.65135  1.0000
  H   H666      1.0  0.15291  0.84551  0.65123  1.0000
  H   H667      1.0  0.14491  0.82637  0.69957  1.0000
  C   C388      1.0  0.24544  0.96551  0.68203  1.0000
  H   H668      1.0  0.22624  0.92487  0.76189  1.0000
  C   C389      1.0  0.12773  0.81477  0.66611  1.0000
  H   H669      1.0  0.13726  0.80528  0.65226  1.0000
  C   C390      1.0  0.10584  0.82064  0.71248  1.0000
  H   H670      1.0  0.09725  0.82670  0.69084  1.0000
  C   C391      1.0  0.14757  0.78772  0.71520  1.0000
  H   H671      1.0  0.12973  0.96047  0.39257  1.0000
  H   H672      1.0  0.15460  0.79304  0.69324  1.0000
  C   C392      1.0  0.14792  0.83396  0.64477  1.0000
  H   H673      1.0  0.11827  0.81965  0.64507  1.0000
  H   H674      1.0  0.11682  0.79024  0.62604  1.0000
  C   C393      1.0  0.19210  0.99669  0.19768  1.0000
  H   H675      1.0  0.19896  0.98360  0.48466  1.0000
  C   C394      1.0  0.23338  0.91697  0.74176  1.0000
  H   H676      1.0  0.08600  0.77880  0.48402  1.0000
  H   H677      1.0  0.12498  0.79302  0.74695  1.0000
  C   C395      1.0  0.07945  0.86628  0.21729  1.0000
  C   C396      1.0  0.15196  0.98945  0.29982  1.0000
  C   C397      1.0  0.14977  0.97206  0.41362  1.0000
  H   H678      1.0  0.18807  0.96235  0.72762  1.0000
  H   H679      1.0  0.19823  0.97702  0.41156  1.0000
  H   H680      1.0  0.15802  0.99159  0.38011  1.0000
  H   H681      1.0  0.22147  0.93491  0.16877  1.0000
  H   H682      1.0  0.20325  0.94824  0.75394  1.0000
  C   C398      1.0  0.15961  0.78362  0.74683  1.0000
  H   H683      1.0  0.16410  0.98773  0.17528  1.0000
  N   N22       1.0  0.23134  0.96026  0.66141  1.0000
  H   H684      1.0  0.14714  0.96097  0.36171  1.0000
  C   C399      1.0  0.19682  0.96771  0.17631  1.0000
  H   H685      1.0  0.22540  0.96440  0.73910  1.0000
  H   H686      1.0  0.21361  0.95006  0.28722  1.0000
  H   H687      1.0  0.15260  0.99821  0.58125  1.0000
  C   C400      1.0  0.00678  0.76709  0.35975  1.0000
  C   C401      1.0  0.23406  0.91265  0.24505  1.0000
  H   H688      1.0  0.01722  0.75746  0.90654  1.0000
  C   C402      1.0  0.22479  0.90977  0.71532  1.0000
  H   H689      1.0  0.14256  0.96950  0.16292  1.0000
  H   H690      1.0  0.11458  0.94055  0.48991  1.0000
  H   H691      1.0  0.08873  0.83929  0.76997  1.0000
  C   C403      1.0  0.00305  0.77262  0.20046  1.0000
  H   H692      1.0  0.20608  0.99567  0.19577  1.0000
  H   H693      1.0  0.19221  0.97853  0.54822  1.0000
  H   H694      1.0  0.22776  0.89373  0.66934  1.0000
  H   H695      1.0  0.10215  0.80946  0.76627  1.0000
  C   C404      1.0  0.22982  0.92832  0.18889  1.0000
  H   H696      1.0  0.07331  0.82583  0.77738  1.0000
  H   H697      1.0  0.18989  0.96055  0.52204  1.0000
  C   C405      1.0  0.24942  0.90939  0.07722  1.0000
  H   H698      1.0  0.20038  0.94520  0.11927  1.0000
  C   C406      1.0  0.05355  0.76748  0.83528  1.0000
  C   C407      1.0  0.24744  0.92657  0.18360  1.0000
  H   H699      1.0  0.21770  0.93024  0.64327  1.0000
  C   C408      1.0  0.19962  0.96146  0.74393  1.0000
  H   H700      1.0  0.24590  0.93475  0.66140  1.0000
  S   S105      1.0  0.05655  0.77698  0.23403  1.0000
  H   H701      1.0  0.21770  0.94411  0.60471  1.0000
  H   H702      1.0  0.00604  0.79903  0.19857  1.0000
  N   N23       1.0  0.17321  0.98955  0.42819  1.0000
  H   H703      1.0  0.19159  0.98375  0.12745  1.0000
  H   H704      1.0  0.16051  0.97955  0.31364  1.0000
  H   H705      1.0  0.10009  0.91606  0.61708  1.0000
  H   H706      1.0  0.18161  0.96555  0.45513  1.0000
  H   H707      1.0  0.17143  0.97530  0.53697  1.0000
  H   H708      1.0  0.12310  0.90157  0.44002  1.0000
  H   H709      1.0  0.08724  0.80564  0.73344  1.0000
  H   H710      1.0  0.22859  0.92958  0.06380  1.0000
  H   H711      1.0  0.00908  0.78852  0.15601  1.0000
  H   H712      1.0  0.21031  0.99393  0.66609  1.0000
  C   C409      1.0  0.21409  0.96671  0.72178  1.0000
  H   H713      1.0  0.11217  0.75238  0.25897  1.0000
  H   H714      1.0  0.07419  0.83686  0.73492  1.0000
  H   H715      1.0  0.18577  0.99178  0.35480  1.0000
  H   H716      1.0  0.11188  0.92254  0.43059  1.0000
  H   H717      1.0  0.04318  0.77850  0.83880  1.0000
  H   H718      1.0  0.17741  0.96906  0.13455  1.0000
  H   H719      1.0  0.16286  0.97722  0.47375  1.0000
  H   H720      1.0  0.24538  0.98634  0.77455  1.0000
  C   C410      1.0  0.18543  0.98471  0.49257  1.0000
  H   H721      1.0  0.23248  0.97268  0.60929  1.0000
  C   C411      1.0  0.17528  0.97863  0.46195  1.0000
  C   C412      1.0  0.11139  0.76666  0.64659  1.0000
  H   H722      1.0  0.13199  0.98006  0.37027  1.0000
  S   S106      1.0  0.00612  0.83231  0.69519  1.0000
  H   H723      1.0  0.19636  0.95437  0.18373  1.0000
  H   H724      1.0  0.21424  0.98482  0.25184  1.0000
  H   H725      1.0  0.16191  0.98919  0.22230  1.0000
  H   H726      1.0  0.14433  0.77561  0.70680  1.0000
  H   H727      1.0  0.13541  0.97694  0.20705  1.0000
  C   C413      1.0  0.23489  0.92050  0.60090  1.0000
  H   H728      1.0  0.21076  0.98038  0.71588  1.0000
  C   C414      1.0  0.23482  0.92336  0.08824  1.0000
  H   H729      1.0  0.24449  0.90083  0.05892  1.0000
  C   C415      1.0  0.15898  0.99610  0.60672  1.0000
  H   H730      1.0  0.22678  0.96752  0.80239  1.0000
  C   C416      1.0  0.23283  0.85595  0.09705  1.0000
  C   C417      1.0  0.23512  0.97384  0.81867  1.0000
  C   C418      1.0  0.24031  0.87152  0.10540  1.0000
  C   C419      1.0  0.06729  0.77356  0.81235  1.0000
  H   H731      1.0  0.23278  0.85405  0.06756  1.0000
  H   H732      1.0  0.05658  0.75236  0.17910  1.0000
  C   C420      1.0  0.23842  0.99004  0.79998  1.0000
  C   C421      1.0  0.01864  0.75692  0.84758  1.0000
  H   H733      1.0  0.19770  0.99704  0.43155  1.0000
  H   H734      1.0  0.24815  0.94662  0.62125  1.0000
  H   H735      1.0  0.11767  0.75942  0.62349  1.0000
  H   H736      1.0  0.04068  0.75897  0.79165  1.0000
  H   H737      1.0  0.24648  0.99564  0.81824  1.0000
  C   C422      1.0  0.05471  0.75532  0.23655  1.0000
  H   H738      1.0  0.24074  0.97711  0.69746  1.0000
  H   H739      1.0  0.07950  0.76314  0.30334  1.0000
  H   H740      1.0  0.21377  0.99575  0.77586  1.0000
  C   C423      1.0  0.04677  0.75317  0.81664  1.0000
  C   C424      1.0  0.01136  0.78694  0.18534  1.0000
  H   H741      1.0  0.05203  0.75409  0.29397  1.0000
  H   H742      1.0  0.09629  0.77116  0.25317  1.0000
  C   C425      1.0  0.07451  0.75090  0.72591  1.0000
  H   H743      1.0  0.00872  0.76101  0.18597  1.0000
  H   H744      1.0  0.18032  0.99802  0.49941  1.0000
  H   H745      1.0  0.07246  0.75726  0.35900  1.0000
  H   H746      1.0  0.00314  0.77999  0.45842  1.0000
  C   C426      1.0  0.09281  0.75644  0.30139  1.0000
  H   H747      1.0  0.11327  0.75844  0.67112  1.0000
  H   H748      1.0  0.07846  0.76326  0.80941  1.0000
  H   H749      1.0  0.10077  0.76318  0.31766  1.0000
  C   C427      1.0  0.00482  0.75468  0.29817  1.0000
  H   H750      1.0  0.24734  0.96498  0.82238  1.0000
  H   H751      1.0  0.25028  0.95561  0.70268  1.0000
  H   H752      1.0  0.00218  0.78675  0.91229  1.0000
  H   H753      1.0  0.00309  0.79019  0.86432  1.0000
  C   C428      1.0  0.00254  0.78052  0.88588  1.0000
  H   H754      1.0  0.00128  0.82620  0.61214  1.0000
  H   H755      1.0  0.00763  0.75027  0.84949  1.0000
  Fe  Fe57      1.0  0.46501  0.06956  0.32804  1.0000
  S   S107      1.0  0.47545  0.04759  0.36460  1.0000
  S   S108      1.0  0.43628  0.07092  0.32286  1.0000
  C   C429      1.0  0.48540  0.00033  0.56595  1.0000
  H   H756      1.0  0.46302  0.04975  0.87721  1.0000
  H   H757      1.0  0.42290  0.00226  0.82326  1.0000
  H   H758      1.0  0.35154  0.10375  0.05901  1.0000
  H   H759      1.0  0.39373  0.02444  0.19620  1.0000
  C   C430      1.0  0.25916  0.07508  0.79179  1.0000
  C   C431      1.0  0.31585  0.16827  0.08553  1.0000
  S   S109      1.0  0.48488  0.06197  0.28524  1.0000
  S   S110      1.0  0.48010  0.08683  0.35557  1.0000
  Fe  Fe58      1.0  0.49150  0.04669  0.69230  1.0000
  S   S111      1.0  0.48459  0.05715  0.74663  1.0000
  H   H760      1.0  0.38561  0.03970  0.27711  1.0000
  Fe  Fe59      1.0  0.48551  0.08011  0.65400  1.0000
  S   S112      1.0  0.47900  0.09374  0.70640  1.0000
  H   H761      1.0  0.47226  0.01455  0.77248  1.0000
  C   C432      1.0  0.26735  0.07471  0.22964  1.0000
  H   H762      1.0  0.32873  0.00218  0.77543  1.0000
  Fe  Fe60      1.0  0.46313  0.07393  0.71895  1.0000
  S   S113      1.0  0.43686  0.08296  0.74373  1.0000
  H   H763      1.0  0.26797  0.10768  0.09620  1.0000
  S   S114      1.0  0.46848  0.06144  0.66549  1.0000
  Fe  Fe61      1.0  0.35551  0.07305  0.19790  1.0000
  S   S115      1.0  0.35655  0.05348  0.15495  1.0000
  S   S116      1.0  0.37920  0.08500  0.20170  1.0000
  Fe  Fe62      1.0  0.31909  0.06990  0.22207  1.0000
  S   S117      1.0  0.31810  0.05013  0.18169  1.0000
  S   S118      1.0  0.29757  0.07635  0.26392  1.0000
  Fe  Fe63      1.0  0.34464  0.03930  0.19736  1.0000
  C   C433      1.0  0.34011  0.01709  0.99235  1.0000
  Fe  Fe64      1.0  0.33001  0.06590  0.14183  1.0000
  S   S119      1.0  0.31735  0.06616  0.08725  1.0000
  S   S120      1.0  0.34518  0.05773  0.24123  1.0000
  S   S121      1.0  0.32942  0.08693  0.18151  1.0000
  Fe  Fe65      1.0  0.35202  0.05243  0.81014  1.0000
  S   S122      1.0  0.35219  0.04479  0.86849  1.0000
  S   S123      1.0  0.37596  0.04377  0.77606  1.0000
  Fe  Fe66      1.0  0.31295  0.06444  0.81142  1.0000
  S   S124      1.0  0.31044  0.05801  0.87063  1.0000
  S   S125      1.0  0.29281  0.07275  0.76802  1.0000
  Fe  Fe67      1.0  0.33402  0.06890  0.87813  1.0000
  S   S126      1.0  0.34174  0.08146  0.92810  1.0000
  Fe  Fe68      1.0  0.32895  0.03448  0.85778  1.0000
  S   S127      1.0  0.32708  0.00929  0.88233  1.0000
  S   S128      1.0  0.33528  0.07764  0.81973  1.0000
  S   S129      1.0  0.33007  0.03978  0.79865  1.0000
  C   C434      1.0  0.32554  0.06834  0.04309  1.0000
  C   C435      1.0  0.31507  0.06714  0.01381  1.0000
  C   C436      1.0  0.32032  0.07018  0.97835  1.0000
  C   C437      1.0  0.33595  0.07498  0.97178  1.0000
  C   C438      1.0  0.34657  0.07598  0.00102  1.0000
  C   C439      1.0  0.34154  0.07234  0.03647  1.0000
  H   H764      1.0  0.30263  0.06419  0.01861  1.0000
  H   H765      1.0  0.31196  0.06950  0.95619  1.0000
  H   H766      1.0  0.35862  0.07981  0.99626  1.0000
  H   H767      1.0  0.34978  0.07317  0.05873  1.0000
  C   C440      1.0  0.40053  0.07316  0.86942  1.0000
  H   H768      1.0  0.41322  0.06136  0.95541  1.0000
  H   H769      1.0  0.30332  0.02373  0.82820  1.0000
  C   C441      1.0  0.43527  0.09769  0.59904  1.0000
  H   H770      1.0  0.38227  0.07649  0.69305  1.0000
  H   H771      1.0  0.38896  0.04624  0.90702  1.0000
  C   C442      1.0  0.42000  0.07179  0.75109  1.0000
  C   C443      1.0  0.40469  0.08047  0.76570  1.0000
  C   C444      1.0  0.39092  0.07222  0.77240  1.0000
  C   C445      1.0  0.39233  0.05512  0.76476  1.0000
  C   C446      1.0  0.40750  0.04650  0.74925  1.0000
  C   C447      1.0  0.42135  0.05474  0.74273  1.0000
  H   H772      1.0  0.40345  0.09371  0.77187  1.0000
  H   H773      1.0  0.37918  0.07909  0.78338  1.0000
  H   H774      1.0  0.40865  0.03332  0.74275  1.0000
  H   H775      1.0  0.43300  0.04792  0.73119  1.0000
  H   H776      1.0  0.48054  0.00053  0.59380  1.0000
  H   H777      1.0  0.45819  0.05258  0.43474  1.0000
  H   H778      1.0  0.26821  0.04174  0.21289  1.0000
  C   C448      1.0  0.48669  0.08380  0.55787  1.0000
  H   H779      1.0  0.45825  0.06516  0.47390  1.0000
  C   C449      1.0  0.49317  0.06823  0.49005  1.0000
  H   H780      1.0  0.29469  0.00785  0.99293  1.0000
  H   H781      1.0  0.41415  0.02233  0.26662  1.0000
  H   H782      1.0  0.26387  0.07517  0.81881  1.0000
  H   H783      1.0  0.32849  0.09721  0.09550  1.0000
  C   C450      1.0  0.42103  0.07440  0.28784  1.0000
  C   C451      1.0  0.42393  0.08206  0.25471  1.0000
  C   C452      1.0  0.41103  0.08528  0.22876  1.0000
  C   C453      1.0  0.39516  0.08063  0.23521  1.0000
  C   C454      1.0  0.39234  0.07286  0.26815  1.0000
  C   C455      1.0  0.40513  0.06983  0.29425  1.0000
  H   H784      1.0  0.43596  0.08589  0.24946  1.0000
  H   H785      1.0  0.41334  0.09149  0.20358  1.0000
  H   H786      1.0  0.38009  0.06964  0.27397  1.0000
  H   H787      1.0  0.40262  0.06411  0.31987  1.0000
  C   C456      1.0  0.41679  0.03535  0.15622  1.0000
  H   H788      1.0  0.30305  0.09949  0.05960  1.0000
  C   C457      1.0  0.48429  0.00939  0.67974  1.0000
  C   C458      1.0  0.46804  0.01693  0.69115  1.0000
  C   C459      1.0  0.29377  0.10887  0.11172  1.0000
  H   H789      1.0  0.46602  0.02894  0.70447  1.0000
  C   C460      1.0  0.27592  0.07414  0.26214  1.0000
  C   C461      1.0  0.45437  0.00884  0.68533  1.0000
  C   C462      1.0  0.47121  0.01510  0.29697  1.0000
  H   H790      1.0  0.41168  0.06151  0.17532  1.0000
  H   H791      1.0  0.46908  0.02756  0.30806  1.0000
  C   C463      1.0  0.40043  0.06029  0.94614  1.0000
  C   C464      1.0  0.39122  0.05291  0.97720  1.0000
  H   H792      1.0  0.39329  0.07318  0.94037  1.0000
  H   H793      1.0  0.39799  0.04008  0.98492  1.0000
  H   H794      1.0  0.39055  0.06115  0.00092  1.0000
  H   H795      1.0  0.37809  0.05222  0.96943  1.0000
  H   H796      1.0  0.44508  0.08693  0.60865  1.0000
  C   C465      1.0  0.36123  0.00121  0.32223  1.0000
  H   H797      1.0  0.44012  0.05541  0.18091  1.0000
  S   S130      1.0  0.35236  0.01130  0.20470  1.0000
  H   H798      1.0  0.36269  0.00790  0.78789  1.0000
  H   H799      1.0  0.27400  0.07648  0.20475  1.0000
  H   H800      1.0  0.31460  0.01718  0.29231  1.0000
  H   H801      1.0  0.28438  0.04561  0.05184  1.0000
  H   H802      1.0  0.46812  0.05378  0.20545  1.0000
  H   H803      1.0  0.46384  0.06338  0.83837  1.0000
  C   C466      1.0  0.40089  0.13072  0.64367  1.0000
  C   C467      1.0  0.26883  0.02946  0.19963  1.0000
  C   C468      1.0  0.33787  0.00294  0.17934  1.0000
  H   H804      1.0  0.25938  0.00031  0.19346  1.0000
  C   C469      1.0  0.40781  0.06211  0.11824  1.0000
  C   C470      1.0  0.28110  0.02873  0.16685  1.0000
  C   C471      1.0  0.31309  0.02675  0.27011  1.0000
  C   C472      1.0  0.39930  0.09070  0.66537  1.0000
  C   C473      1.0  0.40685  0.05373  0.15526  1.0000
  H   H805      1.0  0.31606  0.03869  0.28045  1.0000
  H   H806      1.0  0.44001  0.04859  0.83393  1.0000
  H   H807      1.0  0.35048  0.12393  0.07880  1.0000
  H   H808      1.0  0.45434  0.00745  0.18839  1.0000
  H   H809      1.0  0.27275  0.07278  0.70488  1.0000
  H   H810      1.0  0.40461  0.01681  0.80749  1.0000
  H   H811      1.0  0.38632  0.00010  0.87347  1.0000
  C   C474      1.0  0.30266  0.00632  0.01727  1.0000
  H   H812      1.0  0.29438  0.02723  0.17538  1.0000
  C   C475      1.0  0.38715  0.02605  0.27154  1.0000
  C   C476      1.0  0.44448  0.00401  0.17097  1.0000
  H   H813      1.0  0.43802  0.02679  0.23592  1.0000
  C   C477      1.0  0.48641  0.08548  0.49190  1.0000
  C   C478      1.0  0.34560  0.02706  0.96023  1.0000
  H   H814      1.0  0.42448  0.04650  0.23088  1.0000
  H   H815      1.0  0.32584  0.17613  0.08410  1.0000
  C   C479      1.0  0.34802  0.11104  0.08387  1.0000
  H   H816      1.0  0.43851  0.01742  0.51992  1.0000
  H   H817      1.0  0.45321  0.05508  0.24249  1.0000
  H   H818      1.0  0.29416  0.04000  0.23507  1.0000
  H   H819      1.0  0.35607  0.01415  0.31193  1.0000
  H   H820      1.0  0.39785  0.04276  0.21765  1.0000
  N   N24       1.0  0.42002  0.02752  0.19325  1.0000
  H   H821      1.0  0.45648  0.00170  0.76537  1.0000
  H   H822      1.0  0.37330  0.00142  0.33608  1.0000
  H   H823      1.0  0.28651  0.03478  0.27876  1.0000
  H   H824      1.0  0.42108  0.06308  0.11125  1.0000
  H   H825      1.0  0.27331  0.07210  0.31975  1.0000
  H   H826      1.0  0.38861  0.10045  0.65597  1.0000
  C   C480      1.0  0.26410  0.07378  0.72768  1.0000
  C   C481      1.0  0.48341  0.09324  0.52565  1.0000
  C   C482      1.0  0.26688  0.07239  0.29439  1.0000
  C   C483      1.0  0.40344  0.02006  0.25020  1.0000
  C   C484      1.0  0.44571  0.04333  0.19450  1.0000
  H   H827      1.0  0.29263  0.00395  0.26305  1.0000
  H   H828      1.0  0.46638  0.03508  0.23160  1.0000
  H   H829      1.0  0.44467  0.01394  0.29646  1.0000
  H   H830      1.0  0.32710  0.11529  0.12248  1.0000
  H   H831      1.0  0.42837  0.00249  0.21599  1.0000
  H   H832      1.0  0.42264  0.11038  0.68406  1.0000
  H   H833      1.0  0.33527  0.02278  0.13890  1.0000
  H   H834      1.0  0.43996  0.09506  0.67091  1.0000
  H   H835      1.0  0.44230  0.10806  0.59233  1.0000
  H   H836      1.0  0.40455  0.00624  0.24681  1.0000
  C   C485      1.0  0.40317  0.02920  0.21292  1.0000
  H   H837      1.0  0.40777  0.08420  0.61245  1.0000
  H   H838      1.0  0.41765  0.10219  0.55326  1.0000
  C   C486      1.0  0.42779  0.05616  0.88630  1.0000
  H   H839      1.0  0.48337  0.01508  0.51786  1.0000
  H   H840      1.0  0.37513  0.07210  0.89242  1.0000
  H   H841      1.0  0.45278  0.08036  0.54139  1.0000
  C   C487      1.0  0.40955  0.11807  0.61500  1.0000
  C   C488      1.0  0.30294  0.01045  0.83128  1.0000
  H   H842      1.0  0.42874  0.03507  0.14079  1.0000
  H   H843      1.0  0.27858  0.05600  0.15946  1.0000
  H   H844      1.0  0.43675  0.08672  0.50810  1.0000
  H   H845      1.0  0.42409  0.08027  0.56586  1.0000
  C   C489      1.0  0.39221  0.07450  0.67164  1.0000
  H   H846      1.0  0.42335  0.07701  0.64555  1.0000
  C   C490      1.0  0.41371  0.08810  0.63678  1.0000
  H   H847      1.0  0.28219  0.08744  0.09790  1.0000
  H   H848      1.0  0.48379  0.09289  0.46736  1.0000
  H   H849      1.0  0.27986  0.01803  0.14951  1.0000
  H   H850      1.0  0.27497  0.03267  0.02215  1.0000
  C   C491      1.0  0.31761  0.00616  0.13104  1.0000
  H   H851      1.0  0.32516  0.10588  0.02366  1.0000
  C   C492      1.0  0.44275  0.12036  0.65578  1.0000
  H   H852      1.0  0.39646  0.12440  0.66772  1.0000
  H   H853      1.0  0.42872  0.02386  0.63639  1.0000
  H   H854      1.0  0.38647  0.07089  0.64673  1.0000
  C   C493      1.0  0.33075  0.01166  0.14876  1.0000
  C   C494      1.0  0.44477  0.12932  0.69083  1.0000
  C   C495      1.0  0.29503  0.02994  0.25609  1.0000
  H   H855      1.0  0.39945  0.11370  0.59965  1.0000
  H   H856      1.0  0.28654  0.04395  0.12090  1.0000
  H   H857      1.0  0.41564  0.12577  0.59525  1.0000
  H   H858      1.0  0.30360  0.10078  0.12796  1.0000
  N   N25       1.0  0.31567  0.12041  0.07003  1.0000
  H   H859      1.0  0.31977  0.01099  0.96042  1.0000
  H   H860      1.0  0.44175  0.01463  0.69393  1.0000
  C   C496      1.0  0.32373  0.14983  0.07872  1.0000
  H   H861      1.0  0.45552  0.11421  0.64623  1.0000
  C   C497      1.0  0.27059  0.07358  0.76267  1.0000
  H   H862      1.0  0.37584  0.13566  0.61984  1.0000
  S   S131      1.0  0.48202  0.09398  0.59975  1.0000
  H   H863      1.0  0.35730  0.10974  0.13893  1.0000
  C   C498      1.0  0.40786  0.04402  0.84879  1.0000
  C   C499      1.0  0.48558  0.00307  0.40832  1.0000
  H   H864      1.0  0.40270  0.05482  0.09745  1.0000
  H   H865      1.0  0.32832  0.13188  0.96298  1.0000
  H   H866      1.0  0.47932  0.00081  0.43432  1.0000
  H   H867      1.0  0.43474  0.00402  0.57795  1.0000
  C   C500      1.0  0.42838  0.09254  0.56293  1.0000
  H   H868      1.0  0.38013  0.15199  0.64868  1.0000
  C   C501      1.0  0.32925  0.11086  0.09432  1.0000
  H   H869      1.0  0.43766  0.13007  0.63527  1.0000
  C   C502      1.0  0.25666  0.03608  0.83233  1.0000
  H   H870      1.0  0.32983  0.14935  0.05174  1.0000
  H   H871      1.0  0.33348  0.14599  0.09949  1.0000
  C   C503      1.0  0.41697  0.02539  0.85362  1.0000
  H   H872      1.0  0.33338  0.12460  0.02726  1.0000
  C   C504      1.0  0.28446  0.03244  0.04355  1.0000
  H   H873      1.0  0.38966  0.14985  0.60439  1.0000
  N   N26       1.0  0.46001  0.02366  0.54775  1.0000
  C   C505      1.0  0.45491  0.02829  0.58608  1.0000
  C   C506      1.0  0.47887  0.01724  0.54606  1.0000
  C   C507      1.0  0.45646  0.03970  0.52505  1.0000
  H   H874      1.0  0.35100  0.00308  0.73165  1.0000
  Fe  Fe69      1.0  0.49592  0.04125  0.32330  1.0000
  C   C508      1.0  0.43656  0.03822  0.59111  1.0000
  C   C509      1.0  0.46162  0.03803  0.48468  1.0000
  H   H875      1.0  0.38776  0.01913  0.29770  1.0000
  H   H876      1.0  0.28606  0.01050  0.78712  1.0000
  N   N27       1.0  0.42219  0.10301  0.62832  1.0000
  C   C510      1.0  0.43003  0.03706  0.62966  1.0000
  C   C511      1.0  0.45397  0.05392  0.46324  1.0000
  H   H877      1.0  0.46352  0.03621  0.59729  1.0000
  H   H878      1.0  0.45655  0.01698  0.60413  1.0000
  H   H879      1.0  0.26433  0.04654  0.13268  1.0000
  H   H880      1.0  0.48566  0.02698  0.55657  1.0000
  H   H881      1.0  0.46289  0.04951  0.53643  1.0000
  H   H882      1.0  0.44271  0.04510  0.52549  1.0000
  H   H883      1.0  0.42765  0.03356  0.57312  1.0000
  H   H884      1.0  0.28091  0.02514  0.06727  1.0000
  H   H885      1.0  0.35359  0.03594  0.96951  1.0000
  C   C512      1.0  0.27729  0.04482  0.14363  1.0000
  H   H886      1.0  0.43629  0.05178  0.58453  1.0000
  S   S132      1.0  0.49768  0.05764  0.44860  1.0000
  H   H887      1.0  0.47554  0.03641  0.48145  1.0000
  H   H888      1.0  0.45738  0.02713  0.47241  1.0000
  H   H889      1.0  0.43259  0.13730  0.69904  1.0000
  C   C513      1.0  0.49323  0.06650  0.55599  1.0000
  H   H890      1.0  0.40374  0.09437  0.69153  1.0000
  H   H891      1.0  0.37601  0.02375  0.25654  1.0000
  C   C514      1.0  0.26047  0.01864  0.25790  1.0000
  H   H892      1.0  0.30626  0.17309  0.06487  1.0000
  H   H893      1.0  0.45953  0.00908  0.80971  1.0000
  C   C515      1.0  0.29048  0.01358  0.24092  1.0000
  H   H894      1.0  0.41736  0.04518  0.63244  1.0000
  H   H895      1.0  0.37325  0.10282  0.10520  1.0000
  H   H896      1.0  0.43872  0.04133  0.64885  1.0000
  C   C516      1.0  0.30211  0.02463  0.02973  1.0000
  H   H897      1.0  0.37768  0.01590  0.84039  1.0000
  H   H898      1.0  0.31980  0.11278  0.95808  1.0000
  H   H899      1.0  0.40940  0.02776  0.14021  1.0000
  H   H900      1.0  0.39330  0.05383  0.16152  1.0000
  H   H901      1.0  0.43993  0.05595  0.46413  1.0000
  H   H902      1.0  0.45224  0.03482  0.17371  1.0000
  H   H903      1.0  0.30744  0.13291  0.94526  1.0000
  C   C517      1.0  0.40177  0.04890  0.91274  1.0000
  H   H904      1.0  0.40931  0.03647  0.92115  1.0000
  H   H905      1.0  0.35950  0.09599  0.85774  1.0000
  C   C518      1.0  0.38098  0.07583  0.86707  1.0000
  H   H906      1.0  0.37631  0.10232  0.88206  1.0000
  H   H907      1.0  0.29732  0.12279  0.00290  1.0000
  H   H908      1.0  0.30548  0.14204  0.00818  1.0000
  C   C519      1.0  0.37346  0.09441  0.85972  1.0000
  H   H909      1.0  0.43019  0.02443  0.86241  1.0000
  H   H910      1.0  0.41010  0.01883  0.87400  1.0000
  H   H911      1.0  0.28945  0.11950  0.05858  1.0000
  C   C520      1.0  0.35992  0.10276  0.11340  1.0000
  H   H912      1.0  0.40372  0.08252  0.88848  1.0000
  H   H913      1.0  0.37712  0.06835  0.84510  1.0000
  C   C521      1.0  0.30896  0.12832  0.00298  1.0000
  C   C522      1.0  0.31666  0.12634  0.96509  1.0000
  H   H914      1.0  0.40012  0.07506  0.11867  1.0000
  H   H915      1.0  0.44664  0.10241  0.52844  1.0000
  C   C523      1.0  0.38571  0.14276  0.62804  1.0000
  H   H916      1.0  0.45438  0.13751  0.68697  1.0000
  N   N28       1.0  0.40947  0.05554  0.87939  1.0000
  H   H917      1.0  0.43422  0.04436  0.89997  1.0000
  H   H918      1.0  0.42867  0.06633  0.90557  1.0000
  H   H919      1.0  0.44496  0.01022  0.14421  1.0000
  H   H920      1.0  0.37855  0.09891  0.83408  1.0000
  H   H921      1.0  0.29884  0.14465  0.06695  1.0000
  H   H922      1.0  0.25604  0.03000  0.18835  1.0000
  H   H923      1.0  0.30517  0.03255  0.00659  1.0000
  H   H924      1.0  0.31179  0.01324  0.10819  1.0000
  H   H925      1.0  0.45794  0.00381  0.51074  1.0000
  C   C524      1.0  0.45914  0.04703  0.22014  1.0000
  H   H926      1.0  0.44894  0.12001  0.71279  1.0000
  C   C525      1.0  0.44201  0.09039  0.53350  1.0000
  H   H927      1.0  0.40232  0.06398  0.68033  1.0000
  C   C526      1.0  0.43174  0.03585  0.21518  1.0000
  H   H928      1.0  0.40988  0.13855  0.65302  1.0000
  C   C527      1.0  0.41751  0.01582  0.81847  1.0000
  C   C528      1.0  0.49947  0.01314  0.41529  1.0000
  H   H929      1.0  0.41238  0.04920  0.82330  1.0000
  H   H930      1.0  0.40512  0.07711  0.84278  1.0000
  C   C529      1.0  0.30037  0.11194  0.07301  1.0000
  N   N29       1.0  0.27278  0.01512  0.22673  1.0000
  H   H931      1.0  0.35847  0.08944  0.11826  1.0000
  H   H932      1.0  0.49386  0.02499  0.42885  1.0000
  H   H933      1.0  0.33438  0.03457  0.94672  1.0000
  C   C530      1.0  0.43147  0.10675  0.66116  1.0000
  H   H934      1.0  0.39433  0.04354  0.84419  1.0000
  H   H935      1.0  0.42561  0.02098  0.79823  1.0000
  C   C531      1.0  0.42690  0.00890  0.18932  1.0000
  C   C532      1.0  0.32165  0.11937  0.03128  1.0000
  C   C533      1.0  0.31026  0.13841  0.08182  1.0000
  C   C534      1.0  0.43861  0.05933  0.85261  1.0000
  H   H936      1.0  0.43283  0.07097  0.83767  1.0000
  H   H937      1.0  0.45591  0.07238  0.88057  1.0000
  C   C535      1.0  0.45642  0.06131  0.86304  1.0000
  H   H938      1.0  0.33349  0.02633  0.01168  1.0000
  H   H939      1.0  0.30979  0.16961  0.11266  1.0000
  H   H940      1.0  0.26054  0.03144  0.26858  1.0000
  C   C536      1.0  0.37610  0.00379  0.85365  1.0000
  Fe  Fe70      1.0  0.49170  0.06401  0.38926  1.0000
  C   C537      1.0  0.27861  0.09989  0.11097  1.0000
  H   H941      1.0  0.28966  0.12093  0.12583  1.0000
  H   H942      1.0  0.27431  0.09766  0.13892  1.0000
  C   C538      1.0  0.45733  0.00749  0.28974  1.0000
  H   H943      1.0  0.31104  0.02538  0.05159  1.0000
  H   H944      1.0  0.25990  0.02753  0.70263  1.0000
  H   H945      1.0  0.30621  0.13873  0.11056  1.0000
  H   H946      1.0  0.37613  0.00441  0.71166  1.0000
  H   H947      1.0  0.35298  0.01840  0.94047  1.0000
  H   H948      1.0  0.26447  0.00976  0.28080  1.0000
  H   H949      1.0  0.41771  0.00286  0.17458  1.0000
  H   H950      1.0  0.25711  0.01601  0.79563  1.0000
  H   H951      1.0  0.33241  0.00477  0.05458  1.0000
  C   C539      1.0  0.49662  0.05884  0.52228  1.0000
  H   H952      1.0  0.25575  0.02746  0.85571  1.0000
  C   C540      1.0  0.45042  0.01091  0.53279  1.0000
  C   C541      1.0  0.48769  0.00644  0.29043  1.0000
  H   H953      1.0  0.47602  0.01105  0.39102  1.0000
  H   H954      1.0  0.32223  0.02234  0.24815  1.0000
  H   H955      1.0  0.47844  0.10664  0.52678  1.0000
  H   H956      1.0  0.49594  0.05910  0.58051  1.0000
  H   H957      1.0  0.36377  0.00559  0.86828  1.0000
  H   H958      1.0  0.27014  0.03719  0.82831  1.0000
  H   H959      1.0  0.25376  0.03652  0.77505  1.0000
  H   H960      1.0  0.30008  0.00873  0.21995  1.0000
  C   C542      1.0  0.31294  0.00054  0.85696  1.0000
  C   C543      1.0  0.29282  0.00305  0.80855  1.0000
  H   H961      1.0  0.49922  0.02238  0.77760  1.0000
  H   H962      1.0  0.40583  0.00659  0.70249  1.0000
  C   C544      1.0  0.32905  0.00435  0.98021  1.0000
  H   H963      1.0  0.35172  0.01030  0.00555  1.0000
  C   C545      1.0  0.46609  0.00442  0.78437  1.0000
  H   H964      1.0  0.38600  0.00670  0.75394  1.0000
  H   H965      1.0  0.31990  0.00809  0.71184  1.0000
  Fe  Fe71      1.0  0.50098  0.07724  0.31482  1.0000
  H   H966      1.0  0.29592  0.99958  0.03781  1.0000
  Fe  Fe72      1.0  0.43892  0.92057  0.25228  1.0000
  S   S133      1.0  0.43880  0.93577  0.30241  1.0000
  S   S134      1.0  0.41542  0.90899  0.24455  1.0000
  Fe  Fe73      1.0  0.45129  0.95299  0.26741  1.0000
  S   S135      1.0  0.44267  0.98106  0.27063  1.0000
  H   H967      1.0  0.40599  0.94502  0.55963  1.0000
  Fe  Fe74      1.0  0.44585  0.92279  0.64583  1.0000
  S   S136      1.0  0.43326  0.94397  0.61079  1.0000
  S   S137      1.0  0.42878  0.90785  0.67735  1.0000
  Fe  Fe75      1.0  0.45096  0.95853  0.63497  1.0000
  S   S138      1.0  0.44008  0.98409  0.65622  1.0000
  S   S139      1.0  0.46278  0.93795  0.67286  1.0000
  Fe  Fe76      1.0  0.29503  0.92337  0.15379  1.0000
  S   S140      1.0  0.28167  0.94030  0.11077  1.0000
  S   S141      1.0  0.28077  0.91297  0.20025  1.0000
  Fe  Fe77      1.0  0.33053  0.92691  0.12428  1.0000
  S   S142      1.0  0.31907  0.94382  0.07857  1.0000
  S   S143      1.0  0.35910  0.92581  0.12370  1.0000
  Fe  Fe78      1.0  0.30105  0.95631  0.12028  1.0000
  S   S144      1.0  0.29565  0.98463  0.12030  1.0000
  Fe  Fe79      1.0  0.30102  0.92606  0.07267  1.0000
  S   S145      1.0  0.28971  0.91987  0.01998  1.0000
  S   S146      1.0  0.31320  0.94052  0.16626  1.0000
  S   S147      1.0  0.31359  0.90783  0.11538  1.0000
  Fe  Fe80      1.0  0.29750  0.95009  0.77451  1.0000
  S   S148      1.0  0.30323  0.93852  0.72064  1.0000
  S   S149      1.0  0.28190  0.97598  0.78045  1.0000
  Fe  Fe81      1.0  0.31785  0.92052  0.81469  1.0000
  S   S150      1.0  0.32543  0.90616  0.76364  1.0000
  S   S151      1.0  0.32865  0.91121  0.86903  1.0000
  Fe  Fe82      1.0  0.33002  0.93087  0.73979  1.0000
  S   S152      1.0  0.35050  0.93846  0.70297  1.0000
  Fe  Fe83      1.0  0.29806  0.91497  0.74832  1.0000
  S   S153      1.0  0.28293  0.89828  0.71934  1.0000
  S   S154      1.0  0.32449  0.94447  0.79179  1.0000
  S   S155      1.0  0.29030  0.92722  0.80119  1.0000
  C   C546      1.0  0.29245  0.98582  0.81204  1.0000
  C   C547      1.0  0.30175  0.97612  0.83902  1.0000
  H   H968      1.0  0.36010  0.99271  0.07984  1.0000
  H   H969      1.0  0.33765  0.99474  0.96414  1.0000
  H   H970      1.0  0.47597  0.91814  0.49587  1.0000
  H   H971      1.0  0.30120  0.96287  0.84237  1.0000
  C   C548      1.0  0.46139  0.88167  0.50337  1.0000
  C   C549      1.0  0.43824  0.98401  0.54008  1.0000
  H   H972      1.0  0.45548  0.99153  0.57687  1.0000
  N   N30       1.0  0.37236  0.95708  0.27727  1.0000
  H   H973      1.0  0.32029  0.84920  0.79455  1.0000
  H   H974      1.0  0.28150  0.99599  0.18769  1.0000
  H   H975      1.0  0.32748  0.86888  0.79210  1.0000
  H   H976      1.0  0.48168  0.92184  0.79756  1.0000
  H   H977      1.0  0.37545  0.97826  0.84051  1.0000
  H   H978      1.0  0.30056  0.83573  0.81229  1.0000
  C   C550      1.0  0.39504  0.93856  0.56397  1.0000
  H   H979      1.0  0.30364  0.88217  0.91022  1.0000
  H   H980      1.0  0.38633  0.94568  0.58414  1.0000
  C   C551      1.0  0.34979  0.99014  0.74088  1.0000
  C   C552      1.0  0.31908  0.98290  0.17363  1.0000
  C   C553      1.0  0.44902  0.98494  0.16556  1.0000
  H   H981      1.0  0.31410  0.97234  0.18450  1.0000
  C   C554      1.0  0.30080  0.91856  0.97825  1.0000
  C   C555      1.0  0.29162  0.92090  0.94615  1.0000
  C   C556      1.0  0.30000  0.91948  0.91245  1.0000
  C   C557      1.0  0.31764  0.91511  0.91058  1.0000
  C   C558      1.0  0.32680  0.91272  0.94268  1.0000
  C   C559      1.0  0.31846  0.91466  0.97637  1.0000
  H   H982      1.0  0.27796  0.92400  0.94737  1.0000
  H   H983      1.0  0.29280  0.92148  0.88799  1.0000
  H   H984      1.0  0.34045  0.90929  0.94149  1.0000
  H   H985      1.0  0.32568  0.91277  0.00085  1.0000
  H   H986      1.0  0.47644  0.95312  0.42661  1.0000
  H   H987      1.0  0.28919  0.85486  0.19502  1.0000
  H   H988      1.0  0.35361  0.96001  0.75901  1.0000
  H   H989      1.0  0.28762  0.86409  0.12987  1.0000
  C   C560      1.0  0.38027  0.98125  0.74597  1.0000
  H   H990      1.0  0.27453  0.88947  0.04730  1.0000
  C   C561      1.0  0.25173  0.91040  0.23910  1.0000
  H   H991      1.0  0.41867  0.86227  0.60513  1.0000
  H   H992      1.0  0.30451  0.85962  0.91097  1.0000
  C   C562      1.0  0.31263  0.86988  0.85930  1.0000
  C   C563      1.0  0.27310  0.98289  0.23311  1.0000
  C   C564      1.0  0.47338  0.98557  0.65809  1.0000
  C   C565      1.0  0.47913  0.98843  0.79213  1.0000
  H   H993      1.0  0.47560  0.97348  0.64541  1.0000
  H   H994      1.0  0.38008  0.97289  0.72254  1.0000
  C   C566      1.0  0.40724  0.91679  0.68677  1.0000
  C   C567      1.0  0.40020  0.93320  0.67534  1.0000
  C   C568      1.0  0.38288  0.93956  0.68080  1.0000
  C   C569      1.0  0.37238  0.92985  0.69878  1.0000
  C   C570      1.0  0.37946  0.91366  0.71153  1.0000
  C   C571      1.0  0.39679  0.90712  0.70525  1.0000
  H   H995      1.0  0.40802  0.94098  0.66186  1.0000
  H   H996      1.0  0.37755  0.95209  0.67082  1.0000
  H   H997      1.0  0.37152  0.90604  0.72544  1.0000
  H   H998      1.0  0.40209  0.89446  0.71448  1.0000
  H   H999      1.0  0.26359  0.98448  0.25528  1.0000
  H   H1000     1.0  0.46815  0.97352  0.44220  1.0000
  H   H1001     1.0  0.31131  0.88452  0.03276  1.0000
  H   H1002     1.0  0.32016  0.95615  0.93919  1.0000
  C   C572      1.0  0.47629  0.98321  0.26644  1.0000
  C   C573      1.0  0.46889  0.92102  0.47136  1.0000
  C   C574      1.0  0.47616  0.91525  0.43809  1.0000
  C   C575      1.0  0.37103  0.93590  0.80387  1.0000
  C   C576      1.0  0.39275  0.91781  0.33569  1.0000
  C   C577      1.0  0.39978  0.91422  0.21099  1.0000
  C   C578      1.0  0.38491  0.90740  0.21405  1.0000
  C   C579      1.0  0.37204  0.91131  0.18834  1.0000
  C   C580      1.0  0.37405  0.92187  0.15885  1.0000
  C   C581      1.0  0.38893  0.92871  0.15583  1.0000
  C   C582      1.0  0.40164  0.92508  0.18196  1.0000
  H   H1003     1.0  0.38337  0.89897  0.23639  1.0000
  H   H1004     1.0  0.36079  0.90578  0.19076  1.0000
  H   H1005     1.0  0.39069  0.93674  0.13292  1.0000
  H   H1006     1.0  0.41302  0.93039  0.17921  1.0000
  H   H1007     1.0  0.26259  0.91750  0.84554  1.0000
  H   H1008     1.0  0.39721  0.94441  0.29384  1.0000
  H   H1009     1.0  0.37796  0.95154  0.22120  1.0000
  H   H1010     1.0  0.29631  0.87632  0.00577  1.0000
  C   C583      1.0  0.33354  0.93623  0.25451  1.0000
  H   H1011     1.0  0.27660  0.85629  0.83103  1.0000
  H   H1012     1.0  0.39096  0.98580  0.19605  1.0000
  H   H1013     1.0  0.34597  0.96509  0.26433  1.0000
  C   C584      1.0  0.39610  0.96606  0.23748  1.0000
  H   H1014     1.0  0.26597  0.98993  0.69031  1.0000
  H   H1015     1.0  0.28969  0.85860  0.05902  1.0000
  C   C585      1.0  0.31218  0.98343  0.86116  1.0000
  H   H1016     1.0  0.37228  0.99396  0.27057  1.0000
  H   H1017     1.0  0.45449  0.96248  0.34721  1.0000
  C   C586      1.0  0.29524  0.87003  0.06321  1.0000
  H   H1018     1.0  0.48059  0.98322  0.73499  1.0000
  C   C587      1.0  0.38527  0.99795  0.73168  1.0000
  C   C588      1.0  0.44942  0.88920  0.53360  1.0000
  C   C589      1.0  0.26882  0.87259  0.16940  1.0000
  H   H1019     1.0  0.27124  0.89498  0.79950  1.0000
  H   H1020     1.0  0.41436  0.89252  0.61501  1.0000
  H   H1021     1.0  0.38606  0.93176  0.26913  1.0000
  H   H1022     1.0  0.44159  0.85228  0.64816  1.0000
  C   C590      1.0  0.30495  0.87356  0.02898  1.0000
  C   C591      1.0  0.36409  0.98901  0.29091  1.0000
  H   H1023     1.0  0.33730  0.98196  0.21558  1.0000
  H   H1024     1.0  0.39453  0.88567  0.57683  1.0000
  H   H1025     1.0  0.25702  0.97685  0.63526  1.0000
  H   H1026     1.0  0.46178  0.98170  0.15285  1.0000
  C   C592      1.0  0.45704  0.99335  0.66791  1.0000
  C   C593      1.0  0.28445  0.88642  0.84993  1.0000
  N   N31       1.0  0.50015  0.96482  0.75982  1.0000
  C   C594      1.0  0.37798  0.96198  0.24023  1.0000
  H   H1027     1.0  0.44833  0.97662  0.52306  1.0000
  H   H1028     1.0  0.32050  0.98570  0.70563  1.0000
  C   C595      1.0  0.31862  0.99599  0.72552  1.0000
  C   C596      1.0  0.45064  0.92823  0.40757  1.0000
  H   H1029     1.0  0.30974  0.98741  0.94099  1.0000
  C   C597      1.0  0.31740  0.86169  0.74305  1.0000
  H   H1030     1.0  0.40536  0.92135  0.33878  1.0000
  C   C598      1.0  0.28054  0.86692  0.20102  1.0000
  H   H1031     1.0  0.41259  0.98876  0.73213  1.0000
  H   H1032     1.0  0.40566  0.95433  0.24136  1.0000
  C   C599      1.0  0.44499  0.99780  0.55975  1.0000
  C   C600      1.0  0.25867  0.86990  0.09011  1.0000
  C   C601      1.0  0.27140  0.99891  0.20852  1.0000
  C   C602      1.0  0.26812  0.89140  0.82742  1.0000
  H   H1033     1.0  0.43507  0.89405  0.60120  1.0000
  H   H1034     1.0  0.45512  0.88411  0.55943  1.0000
  C   C603      1.0  0.25852  0.91722  0.20819  1.0000
  C   C604      1.0  0.42987  0.86850  0.60468  1.0000
  C   C605      1.0  0.48695  0.99372  0.66348  1.0000
  H   H1035     1.0  0.25769  0.96946  0.20060  1.0000
  H   H1036     1.0  0.29979  0.88538  0.79057  1.0000
  H   H1037     1.0  0.46566  0.98832  0.35098  1.0000
  H   H1038     1.0  0.25868  0.91545  0.06164  1.0000
  H   H1039     1.0  0.43974  0.98064  0.14788  1.0000
  H   H1040     1.0  0.43307  0.98980  0.34546  1.0000
  H   H1041     1.0  0.28326  0.85630  0.87588  1.0000
  H   H1042     1.0  0.28778  0.89595  0.07950  1.0000
  C   C606      1.0  0.25822  0.89965  0.11032  1.0000
  H   H1043     1.0  0.47213  0.97879  0.80320  1.0000
  H   H1044     1.0  0.38574  0.97159  0.31148  1.0000
  H   H1045     1.0  0.42735  0.98956  0.52304  1.0000
  H   H1046     1.0  0.34933  0.95199  0.30288  1.0000
  H   H1047     1.0  0.48624  0.95150  0.79791  1.0000
  C   C607      1.0  0.43163  0.88468  0.52946  1.0000
  H   H1048     1.0  0.28382  0.97913  0.66470  1.0000
  C   C608      1.0  0.26058  0.90344  0.71726  1.0000
  H   H1049     1.0  0.43391  0.97521  0.56003  1.0000
  C   C609      1.0  0.37947  0.93329  0.32578  1.0000
  H   H1050     1.0  0.31109  0.83619  0.85486  1.0000
  H   H1051     1.0  0.33531  0.87735  0.90898  1.0000
  H   H1052     1.0  0.28023  0.88527  0.87839  1.0000
  C   C610      1.0  0.33212  0.98847  0.19157  1.0000
  H   H1053     1.0  0.31859  0.88084  0.85109  1.0000
  H   H1054     1.0  0.31539  0.87464  0.73112  1.0000
  C   C611      1.0  0.32823  0.86745  0.91854  1.0000
  C   C612      1.0  0.35188  0.93884  0.25216  1.0000
  C   C613      1.0  0.48822  0.95266  0.76832  1.0000
  H   H1055     1.0  0.43071  0.94133  0.44159  1.0000
  C   C614      1.0  0.29868  0.83794  0.84153  1.0000
  C   C615      1.0  0.31732  0.97897  0.99625  1.0000
  Fe  Fe84      1.0  0.47527  0.92474  0.23144  1.0000
  H   H1056     1.0  0.30557  0.99722  0.73665  1.0000
  C   C616      1.0  0.30597  0.97922  0.96284  1.0000
  C   C617      1.0  0.30706  0.96145  0.94826  1.0000
  H   H1057     1.0  0.49533  0.98973  0.36065  1.0000
  S   S156      1.0  0.47048  0.95223  0.59117  1.0000
  H   H1058     1.0  0.28590  0.97991  0.24491  1.0000
  H   H1059     1.0  0.49222  0.93498  0.72390  1.0000
  H   H1060     1.0  0.31179  0.97193  0.01822  1.0000
  H   H1061     1.0  0.32970  0.97102  0.98893  1.0000
  H   H1062     1.0  0.28725  0.88533  0.14263  1.0000
  C   C618      1.0  0.36287  0.99471  0.79774  1.0000
  H   H1063     1.0  0.42703  0.88893  0.50206  1.0000
  C   C619      1.0  0.45252  0.93056  0.47272  1.0000
  H   H1064     1.0  0.29249  0.98383  0.97006  1.0000
  H   H1065     1.0  0.35470  0.94126  0.22342  1.0000
  H   H1066     1.0  0.48459  0.91051  0.75601  1.0000
  C   C620      1.0  0.34627  0.97979  0.04271  1.0000
  C   C621      1.0  0.37700  0.99001  0.82580  1.0000
  C   C622      1.0  0.49272  0.98631  0.38916  1.0000
  C   C623      1.0  0.31191  0.99162  0.14310  1.0000
  C   C624      1.0  0.45128  0.97003  0.37184  1.0000
  C   C625      1.0  0.35450  0.95386  0.27543  1.0000
  H   H1067     1.0  0.38247  0.92622  0.80942  1.0000
  H   H1068     1.0  0.34352  0.96681  0.04098  1.0000
  C   C626      1.0  0.37628  0.95182  0.78776  1.0000
  H   H1069     1.0  0.38947  0.91446  0.57956  1.0000
  H   H1070     1.0  0.44894  0.90299  0.53248  1.0000
  H   H1071     1.0  0.28759  0.82540  0.88610  1.0000
  S   S157      1.0  0.47675  0.91187  0.36462  1.0000
  C   C627      1.0  0.48098  0.92324  0.76783  1.0000
  H   H1072     1.0  0.35198  0.99745  0.34189  1.0000
  C   C628      1.0  0.46429  0.98171  0.37714  1.0000
  H   H1073     1.0  0.35071  0.99534  0.81292  1.0000
  H   H1074     1.0  0.50025  0.88565  0.30448  1.0000
  H   H1075     1.0  0.33576  0.85483  0.91227  1.0000
  H   H1076     1.0  0.42813  0.87139  0.66287  1.0000
  C   C629      1.0  0.49021  0.99055  0.27478  1.0000
  H   H1077     1.0  0.35997  0.92687  0.26109  1.0000
  C   C630      1.0  0.47936  0.96609  0.42812  1.0000
  H   H1078     1.0  0.32002  0.97570  0.88075  1.0000
  H   H1079     1.0  0.25184  0.90313  0.87094  1.0000
  H   H1080     1.0  0.38706  0.84969  0.52319  1.0000
  N   N32       1.0  0.48145  0.97324  0.39063  1.0000
  H   H1081     1.0  0.27712  0.96945  0.70513  1.0000
  N   N33       1.0  0.26891  0.88265  0.10236  1.0000
  H   H1082     1.0  0.29856  0.96186  0.92494  1.0000
  C   C631      1.0  0.29992  0.87196  0.79873  1.0000
  C   C632      1.0  0.27261  0.97737  0.68124  1.0000
  C   C633      1.0  0.44342  0.93404  0.44074  1.0000
  C   C634      1.0  0.40198  0.88547  0.55122  1.0000
  H   H1083     1.0  0.41221  0.85793  0.54923  1.0000
  H   H1084     1.0  0.41169  0.91425  0.52416  1.0000
  S   S158      1.0  0.44282  0.93854  0.51339  1.0000
  C   C635      1.0  0.37256  0.97099  0.30366  1.0000
  H   H1085     1.0  0.37859  0.94229  0.34816  1.0000
  H   H1086     1.0  0.47543  0.95755  0.75710  1.0000
  H   H1087     1.0  0.44348  0.93099  0.38318  1.0000
  H   H1088     1.0  0.26617  0.90800  0.12232  1.0000
  C   C636      1.0  0.40314  0.86772  0.53485  1.0000
  C   C637      1.0  0.45989  0.99135  0.27525  1.0000
  C   C638      1.0  0.35640  0.98019  0.07696  1.0000
  C   C639      1.0  0.38594  0.86220  0.53588  1.0000
  H   H1089     1.0  0.39375  0.89420  0.53242  1.0000
  H   H1090     1.0  0.32151  0.98818  0.06519  1.0000
  H   H1091     1.0  0.35423  0.98206  0.01910  1.0000
  H   H1092     1.0  0.25968  0.88391  0.17779  1.0000
  H   H1093     1.0  0.26556  0.85685  0.09612  1.0000
  H   H1094     1.0  0.33006  0.93319  0.28260  1.0000
  C   C640      1.0  0.40263  0.99454  0.71302  1.0000
  C   C641      1.0  0.31716  0.86231  0.78409  1.0000
  H   H1095     1.0  0.49746  0.99207  0.75190  1.0000
  C   C642      1.0  0.36061  0.96570  0.77953  1.0000
  H   H1096     1.0  0.30467  0.86736  0.08499  1.0000
  H   H1097     1.0  0.35164  0.98920  0.27853  1.0000
  H   H1098     1.0  0.37645  0.87143  0.52090  1.0000
  H   H1099     1.0  0.44881  0.87214  0.64364  1.0000
  H   H1100     1.0  0.38146  0.86107  0.56411  1.0000
  H   H1101     1.0  0.32221  0.85866  0.85224  1.0000
  H   H1102     1.0  0.42635  0.91598  0.55828  1.0000
  H   H1103     1.0  0.35217  0.96695  0.80382  1.0000
  H   H1104     1.0  0.28955  0.86814  0.78322  1.0000
  H   H1105     1.0  0.26847  0.95656  0.65003  1.0000
  C   C643      1.0  0.41491  0.91065  0.55268  1.0000
  C   C644      1.0  0.31090  0.86991  0.90093  1.0000
  H   H1106     1.0  0.38346  0.94808  0.76251  1.0000
  H   H1107     1.0  0.36311  0.93054  0.78467  1.0000
  N   N34       1.0  0.29648  0.87060  0.83877  1.0000
  S   S159      1.0  0.49546  0.92017  0.18693  1.0000
  H   H1108     1.0  0.25922  0.88766  0.67175  1.0000
  S   S160      1.0  0.46467  0.90473  0.26318  1.0000
  C   C645      1.0  0.43339  0.98020  0.36745  1.0000
  H   H1109     1.0  0.26203  0.86208  0.16455  1.0000
  H   H1110     1.0  0.40730  0.86803  0.50620  1.0000
  C   C646      1.0  0.38435  0.94153  0.29002  1.0000
  C   C647      1.0  0.43757  0.86597  0.64211  1.0000
  H   H1111     1.0  0.36615  0.96818  0.32924  1.0000
  S   S161      1.0  0.46546  0.91283  0.60316  1.0000
  N   N35       1.0  0.31991  0.99595  0.00928  1.0000
  H   H1112     1.0  0.33201  0.92552  0.23733  1.0000
  C   C648      1.0  0.28948  0.82422  0.85654  1.0000
  H   H1113     1.0  0.29108  0.89741  0.84889  1.0000
  H   H1114     1.0  0.36720  0.92901  0.32364  1.0000
  H   H1115     1.0  0.44929  0.97804  0.19178  1.0000
  H   H1116     1.0  0.43945  0.86207  0.58537  1.0000
  H   H1117     1.0  0.32987  0.85479  0.73344  1.0000
  C   C649      1.0  0.46710  0.91894  0.40603  1.0000
  S   S162      1.0  0.44938  0.93915  0.21660  1.0000
  H   H1118     1.0  0.26096  0.88094  0.82617  1.0000
  H   H1119     1.0  0.39738  0.96464  0.17899  1.0000
  H   H1120     1.0  0.47829  0.97129  0.25303  1.0000
  H   H1121     1.0  0.46287  0.86769  0.50356  1.0000
  C   C650      1.0  0.26093  0.96873  0.65921  1.0000
  C   C651      1.0  0.39944  0.97341  0.20043  1.0000
  H   H1122     1.0  0.32905  0.98009  0.76946  1.0000
  H   H1123     1.0  0.38491  0.95617  0.80676  1.0000
  H   H1124     1.0  0.41279  0.97521  0.19865  1.0000
  H   H1125     1.0  0.30738  0.85509  0.73350  1.0000
  H   H1126     1.0  0.45827  0.99167  0.39596  1.0000
  N   N36       1.0  0.41840  0.89165  0.55733  1.0000
  H   H1127     1.0  0.39824  0.97525  0.25781  1.0000
  Fe  Fe85      1.0  0.46508  0.92137  0.31104  1.0000
  C   C652      1.0  0.42445  0.88748  0.59515  1.0000
  C   C653      1.0  0.40083  0.92039  0.57751  1.0000
  H   H1128     1.0  0.40581  0.92084  0.60501  1.0000
  H   H1129     1.0  0.45108  0.96138  0.39524  1.0000
  H   H1130     1.0  0.38915  0.91214  0.36150  1.0000
  H   H1131     1.0  0.31479  0.86239  0.02266  1.0000
  H   H1132     1.0  0.36383  0.93873  0.82946  1.0000
  H   H1133     1.0  0.47404  0.88501  0.50711  1.0000
  C   C654      1.0  0.48955  0.98238  0.75775  1.0000
  C   C655      1.0  0.28131  0.88540  0.07273  1.0000
  H   H1134     1.0  0.39370  0.90814  0.31453  1.0000
  H   H1135     1.0  0.28000  0.96533  0.18910  1.0000
  C   C656      1.0  0.32953  0.99289  0.04400  1.0000
  Fe  Fe86      1.0  0.48138  0.93014  0.62758  1.0000
  C   C657      1.0  0.27900  0.87623  0.13533  1.0000
  H   H1136     1.0  0.32660  0.86843  0.94817  1.0000
  H   H1137     1.0  0.43382  0.87070  0.52922  1.0000
  H   H1138     1.0  0.49578  0.97819  0.46183  1.0000
  H   H1139     1.0  0.48887  0.90796  0.43718  1.0000
  H   H1140     1.0  0.28820  0.87662  0.20705  1.0000
  H   H1141     1.0  0.38824  0.93871  0.53822  1.0000
  H   H1142     1.0  0.49940  0.98814  0.65385  1.0000
  S   S163      1.0  0.47766  0.93994  0.28004  1.0000
  H   H1143     1.0  0.45658  0.88685  0.47682  1.0000
  H   H1144     1.0  0.48849  0.96470  0.33691  1.0000
  H   H1145     1.0  0.36804  0.97035  0.07589  1.0000
  H   H1146     1.0  0.39101  0.97490  0.76243  1.0000
  H   H1147     1.0  0.27287  0.86498  0.22537  1.0000
  H   H1148     1.0  0.36885  0.97284  0.22891  1.0000
  Fe  Fe87      1.0  0.45370  0.93555  0.56980  1.0000
  H   H1149     1.0  0.32483  0.94773  0.24481  1.0000
  H   H1150     1.0  0.48768  0.99138  0.81322  1.0000
  C   C658      1.0  0.48843  0.95937  0.36486  1.0000
  C   C659      1.0  0.28805  0.85572  0.84760  1.0000
  C   C660      1.0  0.27065  0.96756  0.21165  1.0000
  N   N37       1.0  0.36369  0.98289  0.76663  1.0000
  H   H1151     1.0  0.25755  0.92003  0.76234  1.0000
  H   H1152     1.0  0.25250  0.93214  0.16015  1.0000
  C   C661      1.0  0.49304  0.93456  0.75368  1.0000
  H   H1153     1.0  0.48017  0.94972  0.36439  1.0000
  H   H1154     1.0  0.30306  0.95300  0.96936  1.0000
  C   C662      1.0  0.33139  0.99182  0.75582  1.0000
  H   H1155     1.0  0.27700  0.82510  0.84357  1.0000
  H   H1156     1.0  0.25739  0.87047  0.06030  1.0000
  H   H1157     1.0  0.42467  0.97157  0.36068  1.0000
  H   H1158     1.0  0.35087  0.98229  0.71628  1.0000
  H   H1159     1.0  0.27250  0.95608  0.22933  1.0000
  H   H1160     1.0  0.34882  0.97751  0.10100  1.0000
  H   H1161     1.0  0.42888  0.98665  0.39283  1.0000
  C   C663      1.0  0.25203  0.89604  0.69108  1.0000
  H   H1162     1.0  0.26018  0.90315  0.25838  1.0000
  C   C664      1.0  0.49151  0.95569  0.48901  1.0000
  H   H1163     1.0  0.46777  0.92853  0.76004  1.0000
  H   H1164     1.0  0.48148  0.98975  0.55166  1.0000
  H   H1165     1.0  0.49208  0.94213  0.48348  1.0000
  H   H1166     1.0  0.29716  0.81157  0.85105  1.0000
  H   H1167     1.0  0.38975  0.98831  0.81313  1.0000
  H   H1168     1.0  0.49893  0.96236  0.70222  1.0000
  C   C665      1.0  0.25620  0.90646  0.84367  1.0000
  H   H1169     1.0  0.47906  0.96091  0.50157  1.0000
  H   H1170     1.0  0.40262  0.98596  0.69004  1.0000
  C   C666      1.0  0.49436  0.96530  0.45422  1.0000
  C   C667      1.0  0.25116  0.91420  0.74216  1.0000
  H   H1171     1.0  0.50056  0.86131  0.13343  1.0000
  Fe  Fe88      1.0  0.65287  0.07595  0.20227  1.0000
  S   S164      1.0  0.65225  0.05739  0.15806  1.0000
  S   S165      1.0  0.67741  0.08649  0.20270  1.0000
  Fe  Fe89      1.0  0.61741  0.07227  0.23092  1.0000
  S   S166      1.0  0.61454  0.05337  0.18957  1.0000
  S   S167      1.0  0.59829  0.07704  0.27747  1.0000
  Fe  Fe90      1.0  0.64159  0.04218  0.20047  1.0000
  S   S168      1.0  0.65118  0.01432  0.20499  1.0000
  Fe  Fe91      1.0  0.62538  0.07008  0.14979  1.0000
  S   S169      1.0  0.61214  0.07254  0.09578  1.0000
  S   S170      1.0  0.64402  0.05955  0.24535  1.0000
  S   S171      1.0  0.62641  0.09027  0.19059  1.0000
  Fe  Fe92      1.0  0.65509  0.06517  0.81638  1.0000
  S   S172      1.0  0.65597  0.05228  0.87065  1.0000
  S   S173      1.0  0.67627  0.06011  0.77391  1.0000
  Fe  Fe93      1.0  0.61615  0.07735  0.82259  1.0000
  S   S174      1.0  0.61435  0.06584  0.87807  1.0000
  S   S175      1.0  0.59516  0.08899  0.78408  1.0000
  Fe  Fe94      1.0  0.63824  0.07545  0.88950  1.0000
  S   S176      1.0  0.64566  0.08455  0.94345  1.0000
  Fe  Fe95      1.0  0.63218  0.04366  0.85582  1.0000
  S   S177      1.0  0.62863  0.01751  0.87245  1.0000
  S   S178      1.0  0.63877  0.08921  0.83561  1.0000
  S   S179      1.0  0.63264  0.05443  0.79996  1.0000
  C   C668      1.0  0.74990  0.05262  0.21037  1.0000
  S   S180      1.0  0.72755  0.09092  0.33153  1.0000
  H   H1172     1.0  0.67047  0.10919  0.11579  1.0000
  C   C669      1.0  0.64603  0.02022  0.04970  1.0000
  H   H1173     1.0  0.57630  0.09838  0.11658  1.0000
  H   H1174     1.0  0.72571  0.03007  0.72364  1.0000
  H   H1175     1.0  0.59925  0.11367  0.01200  1.0000
  N   N38       1.0  0.61324  0.12580  0.07878  1.0000
  H   H1176     1.0  0.57174  0.05336  0.65605  1.0000
  H   H1177     1.0  0.55304  0.02755  0.22756  1.0000
  C   C670      1.0  0.61801  0.01444  0.80370  1.0000
  C   C671      1.0  0.72894  0.13548  0.29604  1.0000
  C   C672      1.0  0.69531  0.06818  0.77181  1.0000
  C   C673      1.0  0.70716  0.06241  0.74461  1.0000
  C   C674      1.0  0.72261  0.06818  0.74177  1.0000
  C   C675      1.0  0.72615  0.08028  0.76537  1.0000
  C   C676      1.0  0.71429  0.08609  0.79263  1.0000
  C   C677      1.0  0.69896  0.08000  0.79601  1.0000
  H   H1178     1.0  0.70424  0.05350  0.72552  1.0000
  H   H1179     1.0  0.73180  0.06328  0.72138  1.0000
  H   H1180     1.0  0.71695  0.09539  0.81118  1.0000
  H   H1181     1.0  0.68993  0.08456  0.81709  1.0000
  C   C678      1.0  0.62218  0.07438  0.05347  1.0000
  C   C679      1.0  0.63922  0.07579  0.05044  1.0000
  C   C680      1.0  0.64639  0.07845  0.01643  1.0000
  C   C681      1.0  0.63673  0.07931  0.98510  1.0000
  C   C682      1.0  0.61982  0.07744  0.98808  1.0000
  C   C683      1.0  0.61255  0.07519  0.02215  1.0000
  H   H1182     1.0  0.64678  0.07519  0.07432  1.0000
  H   H1183     1.0  0.65944  0.08003  0.01439  1.0000
  H   H1184     1.0  0.61218  0.07846  0.96423  1.0000
  H   H1185     1.0  0.59929  0.07438  0.02429  1.0000
  C   C684      1.0  0.69178  0.08557  0.23877  1.0000
  C   C685      1.0  0.68685  0.08342  0.27458  1.0000
  C   C686      1.0  0.69812  0.08461  0.30264  1.0000
  C   C687      1.0  0.71458  0.08747  0.29526  1.0000
  C   C688      1.0  0.71974  0.08896  0.25941  1.0000
  C   C689      1.0  0.70835  0.08814  0.23138  1.0000
  H   H1186     1.0  0.67411  0.08158  0.28073  1.0000
  H   H1187     1.0  0.69393  0.08362  0.33027  1.0000
  H   H1188     1.0  0.73219  0.09158  0.25335  1.0000
  H   H1189     1.0  0.71227  0.08993  0.20380  1.0000
  C   C690      1.0  0.57069  0.03359  0.33124  1.0000
  H   H1190     1.0  0.62405  0.11870  0.13120  1.0000
  C   C691      1.0  0.51106  0.02183  0.79273  1.0000
  H   H1191     1.0  0.70355  0.03011  0.67448  1.0000
  H   H1192     1.0  0.61992  0.04169  0.96180  1.0000
  H   H1193     1.0  0.52605  0.01721  0.74463  1.0000
  H   H1194     1.0  0.62657  0.10195  0.10032  1.0000
  H   H1195     1.0  0.60160  0.15818  0.04100  1.0000
  H   H1196     1.0  0.61861  0.02749  0.79970  1.0000
  C   C692      1.0  0.57417  0.11150  0.12671  1.0000
  C   C693      1.0  0.71051  0.01113  0.71669  1.0000
  H   H1197     1.0  0.67748  0.03274  0.28422  1.0000
  C   C694      1.0  0.62977  0.01313  0.14895  1.0000
  H   H1198     1.0  0.56285  0.00530  0.36330  1.0000
  H   H1199     1.0  0.68917  0.01441  0.80669  1.0000
  H   H1200     1.0  0.59094  0.17383  0.11438  1.0000
  H   H1201     1.0  0.61173  0.01208  0.10731  1.0000
  H   H1202     1.0  0.62885  0.02661  0.14635  1.0000
  H   H1203     1.0  0.60755  0.17901  0.08500  1.0000
  H   H1204     1.0  0.59043  0.02660  0.99553  1.0000
  S   S181      1.0  0.51833  0.07866  0.77735  1.0000
  C   C695      1.0  0.54873  0.08461  0.74712  1.0000
  C   C696      1.0  0.56573  0.08669  0.74929  1.0000
  C   C697      1.0  0.57420  0.08489  0.78234  1.0000
  C   C698      1.0  0.56541  0.08104  0.81330  1.0000
  C   C699      1.0  0.54832  0.07926  0.81124  1.0000
  H   H1205     1.0  0.70140  0.05754  0.64312  1.0000
  H   H1206     1.0  0.57231  0.08992  0.72526  1.0000
  H   H1207     1.0  0.57163  0.07999  0.83899  1.0000
  H   H1208     1.0  0.54158  0.07660  0.83548  1.0000
  C   C700      1.0  0.53984  0.08708  0.27833  1.0000
  C   C701      1.0  0.54894  0.08330  0.31004  1.0000
  C   C702      1.0  0.56677  0.08047  0.30916  1.0000
  C   C703      1.0  0.57579  0.08098  0.27654  1.0000
  C   C704      1.0  0.56672  0.08476  0.24472  1.0000
  C   C705      1.0  0.54884  0.08814  0.24578  1.0000
  H   H1209     1.0  0.57363  0.07803  0.33398  1.0000
  H   H1210     1.0  0.57346  0.08542  0.21946  1.0000
  H   H1211     1.0  0.54193  0.09140  0.22118  1.0000
  N   N39       1.0  0.73943  0.03175  0.25621  1.0000
  N   N40       1.0  0.62710  0.01902  0.99447  1.0000
  H   H1212     1.0  0.58384  0.04128  0.93650  1.0000
  C   C706      1.0  0.73908  0.02842  0.29637  1.0000
  C   C707      1.0  0.72142  0.03552  0.24295  1.0000
  C   C708      1.0  0.71841  0.03104  0.20350  1.0000
  H   H1213     1.0  0.74078  0.12145  0.35634  1.0000
  C   C709      1.0  0.72918  0.04294  0.31943  1.0000
  H   H1214     1.0  0.59680  0.00529  0.21866  1.0000
  H   H1215     1.0  0.75031  0.00647  0.63432  1.0000
  C   C710      1.0  0.69995  0.03713  0.19319  1.0000
  C   C711      1.0  0.61903  0.12360  0.03992  1.0000
  C   C712      1.0  0.72770  0.03730  0.35865  1.0000
  H   H1216     1.0  0.56983  0.11119  0.15520  1.0000
  H   H1217     1.0  0.63810  0.00538  0.94781  1.0000
  H   H1218     1.0  0.66318  0.00943  0.91033  1.0000
  C   C713      1.0  0.56751  0.04088  0.70684  1.0000
  C   C714      1.0  0.57401  0.02619  0.82360  1.0000
  H   H1219     1.0  0.62659  0.11071  0.03604  1.0000
  H   H1220     1.0  0.71320  0.02861  0.25974  1.0000
  H   H1221     1.0  0.71597  0.04917  0.24644  1.0000
  C   C715      1.0  0.61260  0.12648  0.97311  1.0000
  H   H1222     1.0  0.72641  0.03675  0.18414  1.0000
  H   H1223     1.0  0.53331  0.03011  0.25252  1.0000
  H   H1224     1.0  0.72060  0.02672  0.36095  1.0000
  H   H1225     1.0  0.71619  0.04736  0.30933  1.0000
  H   H1226     1.0  0.73577  0.05383  0.31942  1.0000
  C   C716      1.0  0.56634  0.00872  0.75454  1.0000
  S   S182      1.0  0.50911  0.06414  0.67683  1.0000
  H   H1227     1.0  0.71827  0.19551  0.31642  1.0000
  H   H1228     1.0  0.65400  0.11201  0.14971  1.0000
  H   H1229     1.0  0.64143  0.01005  0.06538  1.0000
  H   H1230     1.0  0.69659  0.05110  0.19457  1.0000
  H   H1231     1.0  0.69797  0.03344  0.16522  1.0000
  H   H1232     1.0  0.69131  0.03144  0.21134  1.0000
  H   H1233     1.0  0.55015  0.05348  0.35023  1.0000
  H   H1234     1.0  0.61057  0.02038  0.22225  1.0000
  H   H1235     1.0  0.59154  0.05946  0.95256  1.0000
  H   H1236     1.0  0.72561  0.13931  0.36872  1.0000
  H   H1237     1.0  0.66745  0.10967  0.65297  1.0000
  H   H1238     1.0  0.58777  0.01985  0.15529  1.0000
  C   C717      1.0  0.63205  0.02944  0.02432  1.0000
  C   C718      1.0  0.72423  0.00676  0.78891  1.0000
  H   H1239     1.0  0.54741  0.05790  0.21090  1.0000
  N   N41       1.0  0.74013  0.14315  0.32051  1.0000
  C   C719      1.0  0.65332  0.02411  0.95714  1.0000
  H   H1240     1.0  0.65762  0.01453  0.03468  1.0000
  C   C720      1.0  0.61946  0.00482  0.01099  1.0000
  C   C721      1.0  0.59702  0.03707  0.98755  1.0000
  C   C722      1.0  0.73517  0.16216  0.32269  1.0000
  H   H1241     1.0  0.50861  0.01099  0.17235  1.0000
  C   C723      1.0  0.65108  0.03240  0.07655  1.0000
  H   H1242     1.0  0.54537  0.04978  0.73951  1.0000
  H   H1243     1.0  0.62093  0.03414  0.04195  1.0000
  H   H1244     1.0  0.63604  0.04108  0.01325  1.0000
  C   C724      1.0  0.69860  0.13474  0.27815  1.0000
  H   H1245     1.0  0.57479  0.00260  0.11110  1.0000
  H   H1246     1.0  0.74861  0.10158  0.50642  1.0000
  C   C725      1.0  0.60215  0.01326  0.23769  1.0000
  C   C726      1.0  0.55723  0.00086  0.33913  1.0000
  C   C727      1.0  0.66801  0.01511  0.93404  1.0000
  H   H1247     1.0  0.65882  0.03023  0.97929  1.0000
  C   C728      1.0  0.71026  0.13688  0.30901  1.0000
  H   H1248     1.0  0.55414  0.01216  0.12723  1.0000
  C   C729      1.0  0.71325  0.02321  0.80345  1.0000
  H   H1249     1.0  0.57350  0.04885  0.85478  1.0000
  C   C730      1.0  0.67408  0.00751  0.30177  1.0000
  H   H1250     1.0  0.64941  0.02224  0.68977  1.0000
  H   H1251     1.0  0.70936  0.12681  0.32948  1.0000
  S   S183      1.0  0.51732  0.09131  0.27865  1.0000
  H   H1252     1.0  0.56692  0.00127  0.19169  1.0000
  C   C731      1.0  0.70482  0.01625  0.67846  1.0000
  H   H1253     1.0  0.64580  0.03413  0.94014  1.0000
  C   C732      1.0  0.58576  0.04843  0.96080  1.0000
  H   H1254     1.0  0.62287  0.11553  0.96790  1.0000
  H   H1255     1.0  0.65992  0.02529  0.09649  1.0000
  H   H1256     1.0  0.66071  0.00983  0.29287  1.0000
  H   H1257     1.0  0.63978  0.03914  0.09126  1.0000
  H   H1258     1.0  0.58419  0.00657  0.29558  1.0000
  H   H1259     1.0  0.63730  0.02562  0.73103  1.0000
  H   H1260     1.0  0.50538  0.01647  0.38953  1.0000
  H   H1261     1.0  0.71214  0.13526  0.69559  1.0000
  H   H1262     1.0  0.51482  0.00890  0.80436  1.0000
  H   H1263     1.0  0.54235  0.08624  0.72161  1.0000
  C   C733      1.0  0.59542  0.17428  0.08600  1.0000
  H   H1264     1.0  0.54032  0.00168  0.21884  1.0000
  H   H1265     1.0  0.73124  0.04419  0.65464  1.0000
  C   C734      1.0  0.62167  0.00657  0.83720  1.0000
  C   C735      1.0  0.53989  0.08099  0.77816  1.0000
  C   C736      1.0  0.57456  0.02356  0.14584  1.0000
  H   H1266     1.0  0.57514  0.04883  0.72095  1.0000
  H   H1267     1.0  0.59808  0.04457  0.01171  1.0000
  H   H1268     1.0  0.58151  0.03408  0.77135  1.0000
  H   H1269     1.0  0.64963  0.11353  0.06763  1.0000
  H   H1270     1.0  0.54386  0.01402  0.80477  1.0000
  C   C737      1.0  0.64525  0.11794  0.09483  1.0000
  H   H1271     1.0  0.69804  0.14529  0.25821  1.0000
  H   H1272     1.0  0.57586  0.02902  0.69860  1.0000
  H   H1273     1.0  0.70061  0.01767  0.73527  1.0000
  C   C738      1.0  0.72714  0.17183  0.28877  1.0000
  H   H1274     1.0  0.58825  0.03062  0.87040  1.0000
  H   H1275     1.0  0.62321  0.14869  0.08508  1.0000
  H   H1276     1.0  0.73647  0.01229  0.70092  1.0000
  H   H1277     1.0  0.56668  0.03044  0.16751  1.0000
  H   H1278     1.0  0.74592  0.12067  0.42506  1.0000
  H   H1279     1.0  0.57457  0.03226  0.12225  1.0000
  H   H1280     1.0  0.53055  0.04755  0.19758  1.0000
  H   H1281     1.0  0.72129  0.01719  0.19992  1.0000
  C   C739      1.0  0.74598  0.13445  0.42411  1.0000
  H   H1282     1.0  0.57654  0.03695  0.40507  1.0000
  C   C740      1.0  0.72790  0.01604  0.72440  1.0000
  S   S184      1.0  0.51320  0.05571  0.35004  1.0000
  H   H1283     1.0  0.59311  0.04201  0.83055  1.0000
  H   H1284     1.0  0.71973  0.19750  0.26816  1.0000
  H   H1285     1.0  0.58588  0.18330  0.07068  1.0000
  H   H1286     1.0  0.70310  0.12262  0.26449  1.0000
  C   C741      1.0  0.55005  0.01573  0.31332  1.0000
  C   C742      1.0  0.55289  0.04121  0.27839  1.0000
  C   C743      1.0  0.54412  0.03624  0.24450  1.0000
  C   C744      1.0  0.61116  0.14402  0.08950  1.0000
  C   C745      1.0  0.58276  0.03764  0.84608  1.0000
  C   C746      1.0  0.64048  0.00392  0.17449  1.0000
  H   H1287     1.0  0.72040  0.10968  0.63022  1.0000
  H   H1288     1.0  0.71569  0.08624  0.56879  1.0000
  H   H1289     1.0  0.58279  0.01394  0.82064  1.0000
  H   H1290     1.0  0.68643  0.11210  0.53717  1.0000
  H   H1291     1.0  0.58662  0.12590  0.06881  1.0000
  C   C747      1.0  0.72322  0.12476  0.69492  1.0000
  H   H1292     1.0  0.72728  0.08054  0.62346  1.0000
  H   H1293     1.0  0.71237  0.10873  0.57416  1.0000
  H   H1294     1.0  0.72945  0.12385  0.72151  1.0000
  H   H1295     1.0  0.59980  0.11022  0.14160  1.0000
  H   H1296     1.0  0.58013  0.02353  0.34429  1.0000
  C   C748      1.0  0.59759  0.15679  0.06944  1.0000
  C   C749      1.0  0.56751  0.00802  0.13513  1.0000
  C   C750      1.0  0.70590  0.09780  0.57158  1.0000
  H   H1297     1.0  0.72893  0.09790  0.68943  1.0000
  H   H1298     1.0  0.59491  0.13619  0.01463  1.0000
  H   H1299     1.0  0.68976  0.08940  0.53189  1.0000
  C   C751      1.0  0.57605  0.01598  0.27806  1.0000
  N   N42       1.0  0.73652  0.00919  0.75887  1.0000
  C   C752      1.0  0.69608  0.10031  0.53651  1.0000
  H   H1300     1.0  0.62772  0.13247  0.03263  1.0000
  H   H1301     1.0  0.55957  0.05464  0.41198  1.0000
  C   C753      1.0  0.70991  0.10837  0.64940  1.0000
  C   C754      1.0  0.71762  0.10807  0.68739  1.0000
  H   H1302     1.0  0.70495  0.10132  0.51366  1.0000
  H   H1303     1.0  0.52034  0.03897  0.75586  1.0000
  H   H1304     1.0  0.73435  0.16796  0.26384  1.0000
  C   C755      1.0  0.71629  0.07791  0.63964  1.0000
  C   C756      1.0  0.72676  0.04693  0.62668  1.0000
  H   H1305     1.0  0.70047  0.12024  0.64592  1.0000
  H   H1306     1.0  0.72133  0.07499  0.66703  1.0000
  H   H1307     1.0  0.54397  0.03203  0.71374  1.0000
  H   H1308     1.0  0.54219  0.08310  0.33541  1.0000
  N   N43       1.0  0.70233  0.09321  0.64033  1.0000
  C   C757      1.0  0.69391  0.09642  0.60431  1.0000
  C   C758      1.0  0.71149  0.06140  0.62595  1.0000
  H   H1309     1.0  0.70700  0.06294  0.59787  1.0000
  H   H1310     1.0  0.70851  0.10599  0.70898  1.0000
  C   C759      1.0  0.59056  0.11854  0.12435  1.0000
  H   H1311     1.0  0.69230  0.01279  0.67389  1.0000
  C   C760      1.0  0.53705  0.05158  0.22103  1.0000
  H   H1312     1.0  0.68455  0.10844  0.60462  1.0000
  H   H1313     1.0  0.68639  0.08649  0.59875  1.0000
  H   H1314     1.0  0.73874  0.19407  0.29428  1.0000
  C   C761      1.0  0.64224  0.01151  0.97177  1.0000
  H   H1315     1.0  0.58506  0.15295  0.07054  1.0000
  C   C762      1.0  0.60513  0.12514  0.01090  1.0000
  H   H1316     1.0  0.52768  0.06063  0.23648  1.0000
  C   C763      1.0  0.52481  0.02607  0.76714  1.0000
  H   H1317     1.0  0.73727  0.05018  0.60971  1.0000
  H   H1318     1.0  0.64659  0.13132  0.09693  1.0000
  C   C764      1.0  0.62672  0.11566  0.10239  1.0000
  C   C765      1.0  0.68925  0.09009  0.66805  1.0000
  H   H1319     1.0  0.68269  0.07990  0.65930  1.0000
  H   H1320     1.0  0.69538  0.08528  0.69365  1.0000
  H   H1321     1.0  0.65995  0.01997  0.73277  1.0000
  H   H1322     1.0  0.55374  0.04291  0.65642  1.0000
  H   H1323     1.0  0.61279  0.02393  0.94523  1.0000
  H   H1324     1.0  0.72893  0.14096  0.26847  1.0000
  H   H1325     1.0  0.69173  0.02323  0.31928  1.0000
  H   H1326     1.0  0.61774  0.13830  0.96976  1.0000
  H   H1327     1.0  0.54489  0.00988  0.29021  1.0000
  H   H1328     1.0  0.66981  0.03133  0.32973  1.0000
  C   C766      1.0  0.56854  0.04797  0.39168  1.0000
  H   H1329     1.0  0.56408  0.11953  0.11083  1.0000
  H   H1330     1.0  0.58797  0.13140  0.13559  1.0000
  H   H1331     1.0  0.60262  0.12655  0.95282  1.0000
  H   H1332     1.0  0.73112  0.00024  0.25018  1.0000
  H   H1333     1.0  0.55257  0.06268  0.67932  1.0000
  H   H1334     1.0  0.72581  0.16575  0.34494  1.0000
  C   C767      1.0  0.67517  0.10540  0.67699  1.0000
  H   H1335     1.0  0.68052  0.11617  0.68684  1.0000
  H   H1336     1.0  0.59418  0.03355  0.27422  1.0000
  H   H1337     1.0  0.50932  0.00590  0.43299  1.0000
  H   H1338     1.0  0.67036  0.09693  0.73178  1.0000
  H   H1339     1.0  0.56132  0.05018  0.27025  1.0000
  N   N44       1.0  0.56240  0.02664  0.30029  1.0000
  S   S185      1.0  0.50516  0.01511  0.30279  1.0000
  H   H1340     1.0  0.73242  0.12759  0.67408  1.0000
  H   H1341     1.0  0.73315  0.01725  0.30269  1.0000
  H   H1342     1.0  0.70884  0.03222  0.78130  1.0000
  H   H1343     1.0  0.56286  0.02383  0.83941  1.0000
  C   C768      1.0  0.73867  0.13550  0.35768  1.0000
  C   C769      1.0  0.66331  0.10069  0.70657  1.0000
  C   C770      1.0  0.61469  0.03037  0.97063  1.0000
  H   H1344     1.0  0.65318  0.11170  0.71235  1.0000
  H   H1345     1.0  0.65727  0.09007  0.69818  1.0000
  H   H1346     1.0  0.55069  0.03361  0.37321  1.0000
  H   H1347     1.0  0.69061  0.03172  0.83539  1.0000
  H   H1348     1.0  0.72318  0.03534  0.61596  1.0000
  H   H1349     1.0  0.54270  0.04880  0.29490  1.0000
  C   C771      1.0  0.54172  0.02551  0.78701  1.0000
  C   C772      1.0  0.59716  0.11889  0.08493  1.0000
  C   C773      1.0  0.58810  0.02562  0.25643  1.0000
  N   N45       1.0  0.55735  0.02622  0.76414  1.0000
  H   H1350     1.0  0.57323  0.05318  0.97347  1.0000
  H   H1351     1.0  0.53910  0.03652  0.80533  1.0000
  H   H1352     1.0  0.65669  0.09402  0.12059  1.0000
  H   H1353     1.0  0.57670  0.05680  0.38143  1.0000
  C   C774      1.0  0.65727  0.10766  0.12189  1.0000
  H   H1354     1.0  0.61065  0.01163  0.74920  1.0000
  H   H1355     1.0  0.59900  0.10575  0.07502  1.0000
  H   H1356     1.0  0.53876  0.02356  0.32626  1.0000
  H   H1357     1.0  0.50208  0.04556  0.52111  1.0000
  C   C775      1.0  0.61324  0.00546  0.77515  1.0000
  H   H1358     1.0  0.60854  0.14523  0.11890  1.0000
  C   C776      1.0  0.51519  0.00780  0.19827  1.0000
  H   H1359     1.0  0.58118  0.03393  0.23530  1.0000
  C   C777      1.0  0.56927  0.03431  0.78595  1.0000
  H   H1360     1.0  0.68563  0.13467  0.28883  1.0000
  H   H1361     1.0  0.56381  0.04789  0.78976  1.0000
  H   H1362     1.0  0.57810  0.04320  0.32121  1.0000
  C   C778      1.0  0.55863  0.04222  0.36114  1.0000
  C   C779      1.0  0.55266  0.03729  0.73119  1.0000
  C   C780      1.0  0.69774  0.01970  0.82452  1.0000
  C   C781      1.0  0.64861  0.01787  0.71816  1.0000
  C   C782      1.0  0.56093  0.05054  0.67260  1.0000
  H   H1363     1.0  0.70541  0.14919  0.32165  1.0000
  H   H1364     1.0  0.57044  0.00832  0.25884  1.0000
  H   H1365     1.0  0.74134  0.05795  0.26382  1.0000
  H   H1366     1.0  0.72080  0.02949  0.82183  1.0000
  H   H1367     1.0  0.68251  0.00631  0.24745  1.0000
  H   H1368     1.0  0.60955  0.00974  0.03136  1.0000
  H   H1369     1.0  0.72083  0.04805  0.37444  1.0000
  H   H1370     1.0  0.65052  0.00114  0.98667  1.0000
  H   H1371     1.0  0.67580  0.02436  0.92420  1.0000
  H   H1372     1.0  0.65750  0.04180  0.06242  1.0000
  H   H1373     1.0  0.71412  0.16948  0.28516  1.0000
  H   H1374     1.0  0.73905  0.03410  0.77629  1.0000
  C   C783      1.0  0.72592  0.19088  0.29227  1.0000
  H   H1375     1.0  0.74046  0.03329  0.37027  1.0000
  H   H1376     1.0  0.70157  0.01078  0.84735  1.0000
  H   H1377     1.0  0.50925  0.00649  0.58335  1.0000
  H   H1378     1.0  0.73412  0.12177  0.29259  1.0000
  H   H1379     1.0  0.73327  0.14137  0.43223  1.0000
  H   H1380     1.0  0.53813  0.01514  0.17966  1.0000
  H   H1381     1.0  0.55095  0.00504  0.70755  1.0000
  C   C784      1.0  0.62020  0.00488  0.12661  1.0000
  H   H1382     1.0  0.67617  0.00508  0.94999  1.0000
  C   C785      1.0  0.67863  0.02473  0.30912  1.0000
  H   H1383     1.0  0.73733  0.05889  0.20039  1.0000
  H   H1384     1.0  0.57855  0.00922  0.74042  1.0000
  H   H1385     1.0  0.53328  0.00000  0.36688  1.0000
  H   H1386     1.0  0.74634  0.16770  0.33006  1.0000
  S   S186      1.0  0.74505  0.08858  0.76117  1.0000
  H   H1387     1.0  0.50861  0.03114  0.81467  1.0000
  C   C786      1.0  0.74817  0.04665  0.24987  1.0000
  H   H1388     1.0  0.51179  0.01877  0.21628  1.0000
  H   H1389     1.0  0.61000  0.00502  0.25768  1.0000
  C   C787      1.0  0.74712  0.02151  0.77173  1.0000
  H   H1390     1.0  0.60212  0.00148  0.96715  1.0000
  C   C788      1.0  0.53435  0.00377  0.19224  1.0000
  Fe  Fe96      1.0  0.50118  0.07580  0.73029  1.0000
  H   H1391     1.0  0.67486  0.00017  0.32735  1.0000
  C   C789      1.0  0.75005  0.01647  0.23897  1.0000
  H   H1392     1.0  0.73118  0.00012  0.81231  1.0000
  H   H1393     1.0  0.71403  0.00965  0.65850  1.0000
  H   H1394     1.0  0.75016  0.01782  0.20928  1.0000
  H   H1395     1.0  0.57006  0.00105  0.77931  1.0000
  C   C790      1.0  0.75077  0.14011  0.38640  1.0000
  H   H1396     1.0  0.75047  0.15392  0.38666  1.0000
  S   S187      1.0  0.50140  0.01936  0.68552  1.0000
  H   H1397     1.0  0.55279  0.87996  0.23481  1.0000
  H   H1398     1.0  0.63740  0.94776  0.62586  1.0000
  H   H1399     1.0  0.53079  0.87372  0.29476  1.0000
  C   C791      1.0  0.74577  0.87252  0.29656  1.0000
  H   H1400     1.0  0.53392  0.89324  0.27371  1.0000
  H   H1401     1.0  0.71882  0.95408  0.34171  1.0000
  H   H1402     1.0  0.65673  0.97050  0.81537  1.0000
  H   H1403     1.0  0.69805  0.98776  0.15703  1.0000
  S   S188      1.0  0.51038  0.92649  0.62965  1.0000
  H   H1404     1.0  0.70643  0.93639  0.17169  1.0000
  H   H1405     1.0  0.56711  0.99167  0.32527  1.0000
  H   H1406     1.0  0.50635  0.96623  0.81592  1.0000
  Fe  Fe97      1.0  0.59598  0.92360  0.15940  1.0000
  S   S189      1.0  0.59522  0.93356  0.10240  1.0000
  S   S190      1.0  0.57424  0.92152  0.19906  1.0000
  Fe  Fe98      1.0  0.63496  0.92190  0.16455  1.0000
  S   S191      1.0  0.63712  0.93172  0.10765  1.0000
  S   S192      1.0  0.65475  0.91501  0.20896  1.0000
  Fe  Fe99      1.0  0.61312  0.94981  0.12053  1.0000
  S   S193      1.0  0.72726  0.93461  0.23381  1.0000
  Fe  Fe100     1.0  0.61910  0.91470  0.09287  1.0000
  S   S194      1.0  0.62241  0.89925  0.04175  1.0000
  S   S195      1.0  0.61218  0.94156  0.17824  1.0000
  S   S196      1.0  0.61868  0.90317  0.14897  1.0000
  Fe  Fe101     1.0  0.59026  0.92055  0.76412  1.0000
  S   S197      1.0  0.58950  0.94307  0.79911  1.0000
  S   S198      1.0  0.56473  0.91222  0.75599  1.0000
  Fe  Fe102     1.0  0.62937  0.91534  0.75686  1.0000
  S   S199      1.0  0.63108  0.93708  0.79177  1.0000
  S   S200      1.0  0.65292  0.90216  0.72633  1.0000
  Fe  Fe103     1.0  0.61174  0.92807  0.82822  1.0000
  S   S201      1.0  0.61248  0.93537  0.88703  1.0000
  Fe  Fe104     1.0  0.60877  0.95025  0.76093  1.0000
  S   S202      1.0  0.60832  0.97693  0.74290  1.0000
  S   S203      1.0  0.61163  0.90471  0.79574  1.0000
  S   S204      1.0  0.60793  0.92922  0.72320  1.0000
  C   C792      1.0  0.67356  0.90731  0.72433  1.0000
  C   C793      1.0  0.68431  0.90185  0.69495  1.0000
  C   C794      1.0  0.70117  0.90455  0.69344  1.0000
  C   C795      1.0  0.70765  0.91242  0.72177  1.0000
  C   C796      1.0  0.69678  0.91824  0.75079  1.0000
  C   C797      1.0  0.67983  0.91579  0.75203  1.0000
  H   H1407     1.0  0.67965  0.89520  0.67346  1.0000
  H   H1408     1.0  0.70934  0.89994  0.67100  1.0000
  H   H1409     1.0  0.70161  0.92446  0.77265  1.0000
  H   H1410     1.0  0.67177  0.91995  0.77488  1.0000
  C   C798      1.0  0.61931  0.90931  0.99878  1.0000
  C   C799      1.0  0.61928  0.89951  0.96791  1.0000
  C   C800      1.0  0.61706  0.90718  0.93338  1.0000
  C   C801      1.0  0.61498  0.92475  0.92948  1.0000
  C   C802      1.0  0.61525  0.93448  0.96028  1.0000
  C   C803      1.0  0.61733  0.92686  0.99473  1.0000
  H   H1411     1.0  0.62083  0.88592  0.97079  1.0000
  H   H1412     1.0  0.61686  0.89953  0.90993  1.0000
  H   H1413     1.0  0.61382  0.94804  0.95744  1.0000
  H   H1414     1.0  0.61745  0.93455  0.01816  1.0000
  C   C804      1.0  0.67516  0.92007  0.21488  1.0000
  C   C805      1.0  0.68374  0.92722  0.18730  1.0000
  C   C806      1.0  0.69990  0.93100  0.19337  1.0000
  C   C807      1.0  0.70753  0.92811  0.22724  1.0000
  C   C808      1.0  0.69899  0.92091  0.25482  1.0000
  C   C809      1.0  0.68300  0.91675  0.24851  1.0000
  H   H1415     1.0  0.67796  0.92975  0.16124  1.0000
  H   H1416     1.0  0.70448  0.91886  0.28119  1.0000
  H   H1417     1.0  0.67646  0.91124  0.27006  1.0000
  C   C810      1.0  0.52559  0.92150  0.66447  1.0000
  C   C811      1.0  0.52209  0.91369  0.69697  1.0000
  C   C812      1.0  0.53433  0.91071  0.72430  1.0000
  C   C813      1.0  0.55021  0.91552  0.71967  1.0000
  C   C814      1.0  0.55394  0.92277  0.68667  1.0000
  C   C815      1.0  0.54180  0.92548  0.65912  1.0000
  H   H1418     1.0  0.51003  0.90977  0.70089  1.0000
  H   H1419     1.0  0.53145  0.90467  0.74932  1.0000
  H   H1420     1.0  0.56618  0.92628  0.68235  1.0000
  H   H1421     1.0  0.54485  0.93114  0.63379  1.0000
  C   C816      1.0  0.66647  0.97737  0.27068  1.0000
  C   C817      1.0  0.66107  0.96297  0.74218  1.0000
  C   C818      1.0  0.66896  0.96240  0.80769  1.0000
  H   H1422     1.0  0.53274  0.97824  0.17765  1.0000
  C   C819      1.0  0.72440  0.88365  0.34529  1.0000
  H   H1423     1.0  0.61357  0.96782  0.81833  1.0000
  C   C820      1.0  0.51701  0.92211  0.19031  1.0000
  C   C821      1.0  0.52429  0.92411  0.22338  1.0000
  C   C822      1.0  0.54179  0.92397  0.22539  1.0000
  C   C823      1.0  0.55216  0.92227  0.19432  1.0000
  C   C824      1.0  0.54480  0.92067  0.16109  1.0000
  C   C825      1.0  0.52734  0.92051  0.15917  1.0000
  H   H1424     1.0  0.51652  0.92538  0.24753  1.0000
  H   H1425     1.0  0.54734  0.92499  0.25131  1.0000
  H   H1426     1.0  0.55263  0.91905  0.13701  1.0000
  H   H1427     1.0  0.52184  0.91885  0.13347  1.0000
  H   H1428     1.0  0.51382  0.89811  0.32466  1.0000
  H   H1429     1.0  0.64099  0.96099  0.29875  1.0000
  H   H1430     1.0  0.71082  0.99743  0.71998  1.0000
  H   H1431     1.0  0.53483  0.95385  0.84589  1.0000
  H   H1432     1.0  0.55690  0.86212  0.16183  1.0000
  H   H1433     1.0  0.71694  0.88267  0.23615  1.0000
  H   H1434     1.0  0.51404  0.94500  0.31660  1.0000
  C   C826      1.0  0.55288  0.95823  0.11956  1.0000
  H   H1435     1.0  0.51574  0.98593  0.71015  1.0000
  H   H1436     1.0  0.65774  0.98646  0.25369  1.0000
  H   H1437     1.0  0.66763  0.94893  0.80990  1.0000
  H   H1438     1.0  0.68061  0.96680  0.33516  1.0000
  C   C827      1.0  0.51935  0.87879  0.24072  1.0000
  H   H1439     1.0  0.50333  0.90527  0.28324  1.0000
  H   H1440     1.0  0.55774  0.80899  0.23766  1.0000
  H   H1441     1.0  0.64258  0.94535  0.26429  1.0000
  C   C828      1.0  0.50470  0.99666  0.56766  1.0000
  C   C829      1.0  0.52170  0.97248  0.71214  1.0000
  H   H1442     1.0  0.54533  0.81939  0.27429  1.0000
  H   H1443     1.0  0.55066  0.97689  0.23988  1.0000
  H   H1444     1.0  0.55405  0.83559  0.20230  1.0000
  H   H1445     1.0  0.71735  0.85226  0.18743  1.0000
  H   H1446     1.0  0.54948  0.85426  0.26085  1.0000
  C   C830      1.0  0.63272  0.97808  0.15396  1.0000
  H   H1447     1.0  0.70600  0.85586  0.22996  1.0000
  H   H1448     1.0  0.70054  0.87028  0.19257  1.0000
  C   C831      1.0  0.53905  0.85176  0.24361  1.0000
  C   C832      1.0  0.73937  0.86164  0.23718  1.0000
  C   C833      1.0  0.51008  0.86933  0.12670  1.0000
  H   H1449     1.0  0.68265  0.94666  0.69869  1.0000
  H   H1450     1.0  0.62124  0.95149  0.66090  1.0000
  H   H1451     1.0  0.65067  0.97905  0.19538  1.0000
  H   H1452     1.0  0.51956  0.97530  0.78601  1.0000
  H   H1453     1.0  0.59371  0.98665  0.02320  1.0000
  H   H1454     1.0  0.57168  0.96172  0.28262  1.0000
  H   H1455     1.0  0.62195  0.98698  0.96623  1.0000
  H   H1456     1.0  0.52889  0.84929  0.26273  1.0000
  C   C834      1.0  0.63377  0.94397  0.65336  1.0000
  H   H1457     1.0  0.54718  0.96008  0.80829  1.0000
  H   H1458     1.0  0.67517  0.98028  0.76889  1.0000
  C   C835      1.0  0.50633  0.94924  0.37277  1.0000
  H   H1459     1.0  0.54341  0.96510  0.06569  1.0000
  H   H1460     1.0  0.61332  0.97159  0.01952  1.0000
  H   H1461     1.0  0.53460  0.97851  0.66303  1.0000
  H   H1462     1.0  0.54738  0.94275  0.07592  1.0000
  H   H1463     1.0  0.50290  0.98388  0.26917  1.0000
  H   H1464     1.0  0.57698  0.96072  0.18343  1.0000
  H   H1465     1.0  0.74576  0.85991  0.30927  1.0000
  C   C836      1.0  0.54329  0.99142  0.35187  1.0000
  H   H1466     1.0  0.59776  0.97329  0.98470  1.0000
  H   H1467     1.0  0.53336  0.85290  0.17044  1.0000
  C   C837      1.0  0.56125  0.97375  0.12621  1.0000
  H   H1468     1.0  0.70703  0.99428  0.21772  1.0000
  C   C838      1.0  0.62145  0.98738  0.12960  1.0000
  S   S205      1.0  0.74906  0.91706  0.33043  1.0000
  C   C839      1.0  0.64710  0.94646  0.68043  1.0000
  H   H1469     1.0  0.57779  0.98450  0.70215  1.0000
  N   N46       1.0  0.66312  0.96913  0.70410  1.0000
  C   C840      1.0  0.67409  0.96677  0.76941  1.0000
  C   C841      1.0  0.64458  0.95830  0.27022  1.0000
  H   H1470     1.0  0.63626  0.96736  0.25241  1.0000
  H   H1471     1.0  0.71811  0.87663  0.29322  1.0000
  C   C842      1.0  0.64850  0.96541  0.68268  1.0000
  C   C843      1.0  0.56151  0.86677  0.18691  1.0000
  H   H1472     1.0  0.66563  0.90653  0.01667  1.0000
  H   H1473     1.0  0.56341  0.94760  0.25401  1.0000
  H   H1474     1.0  0.71085  0.93123  0.87049  1.0000
  C   C844      1.0  0.55623  0.99815  0.73209  1.0000
  C   C845      1.0  0.56380  0.97246  0.23024  1.0000
  C   C846      1.0  0.69376  0.96799  0.32793  1.0000
  H   H1475     1.0  0.69658  0.97979  0.33914  1.0000
  H   H1476     1.0  0.66204  0.98027  0.29859  1.0000
  C   C847      1.0  0.70536  0.95323  0.34647  1.0000
  C   C848      1.0  0.55213  0.95471  0.07947  1.0000
  H   H1477     1.0  0.54179  0.88862  0.19645  1.0000
  H   H1478     1.0  0.67758  0.95789  0.65780  1.0000
  H   H1479     1.0  0.55664  0.98336  0.10497  1.0000
  H   H1480     1.0  0.54586  0.99458  0.74885  1.0000
  C   C849      1.0  0.74385  0.94246  0.48069  1.0000
  C   C850      1.0  0.71291  0.91936  0.85508  1.0000
  H   H1481     1.0  0.63413  0.96450  0.15567  1.0000
  H   H1482     1.0  0.70839  0.95370  0.64415  1.0000
  H   H1483     1.0  0.55585  0.95754  0.18941  1.0000
  H   H1484     1.0  0.52562  0.93020  0.34836  1.0000
  C   C851      1.0  0.60370  0.98055  0.00422  1.0000
  C   C852      1.0  0.71072  0.95656  0.67249  1.0000
  N   N47       1.0  0.53269  0.86703  0.21977  1.0000
  C   C853      1.0  0.57410  0.87809  0.17594  1.0000
  H   H1485     1.0  0.62913  0.99594  0.02640  1.0000
  H   H1486     1.0  0.64319  0.94171  0.70692  1.0000
  H   H1487     1.0  0.55991  0.97421  0.70454  1.0000
  H   H1488     1.0  0.65924  0.93843  0.67223  1.0000
  C   C854      1.0  0.71122  0.86204  0.20644  1.0000
  C   C855      1.0  0.52983  0.96760  0.67548  1.0000
  H   H1489     1.0  0.73247  0.97292  0.54175  1.0000
  C   C856      1.0  0.68575  0.99823  0.27200  1.0000
  C   C857      1.0  0.53952  0.98835  0.16757  1.0000
  C   C858      1.0  0.69530  0.96795  0.68870  1.0000
  H   H1490     1.0  0.57923  0.88320  0.20002  1.0000
  C   C859      1.0  0.51287  0.96442  0.78928  1.0000
  H   H1491     1.0  0.64805  0.96789  0.75262  1.0000
  H   H1492     1.0  0.51487  0.89063  0.22513  1.0000
  C   C860      1.0  0.74722  0.93151  0.51072  1.0000
  H   H1493     1.0  0.53258  0.94406  0.76708  1.0000
  H   H1494     1.0  0.67373  0.99147  0.71474  1.0000
  H   H1495     1.0  0.66207  0.94903  0.74305  1.0000
  H   H1496     1.0  0.56487  0.95342  0.06667  1.0000
  H   H1497     1.0  0.53371  0.99239  0.14107  1.0000
  H   H1498     1.0  0.58484  0.87072  0.16059  1.0000
  Fe  Fe105     1.0  0.74658  0.93252  0.27908  1.0000
  C   C861      1.0  0.52481  0.88452  0.27763  1.0000
  C   C862      1.0  0.67933  0.95971  0.68704  1.0000
  H   H1499     1.0  0.68666  0.95893  0.76356  1.0000
  H   H1500     1.0  0.50534  0.98125  0.40031  1.0000
  H   H1501     1.0  0.63270  0.93041  0.65321  1.0000
  C   C863      1.0  0.56393  0.96733  0.19035  1.0000
  H   H1502     1.0  0.70292  0.95357  0.37596  1.0000
  H   H1503     1.0  0.63622  0.97180  0.69417  1.0000
  H   H1504     1.0  0.71194  0.89184  0.35049  1.0000
  H   H1505     1.0  0.50599  0.92857  0.76129  1.0000
  H   H1506     1.0  0.72914  0.97588  0.75631  1.0000
  H   H1507     1.0  0.64611  0.99576  0.74895  1.0000
  C   C864      1.0  0.51294  0.93757  0.34178  1.0000
  N   N48       1.0  0.67086  0.90627  0.88890  1.0000
  C   C865      1.0  0.68922  0.90806  0.88833  1.0000
  C   C866      1.0  0.66680  0.89847  0.92457  1.0000
  C   C867      1.0  0.66867  0.89404  0.85984  1.0000
  C   C868      1.0  0.65893  0.92279  0.88194  1.0000
  C   C869      1.0  0.66426  0.93915  0.89543  1.0000
  H   H1508     1.0  0.71807  0.92195  0.82804  1.0000
  C   C870      1.0  0.65105  0.88886  0.85805  1.0000
  C   C871      1.0  0.66793  0.90892  0.95856  1.0000
  C   C872      1.0  0.66631  0.89841  0.99275  1.0000
  C   C873      1.0  0.64959  0.95417  0.89348  1.0000
  H   H1509     1.0  0.70306  0.94097  0.33647  1.0000
  C   C874      1.0  0.64971  0.87870  0.82435  1.0000
  H   H1510     1.0  0.69733  0.89594  0.89705  1.0000
  H   H1511     1.0  0.74058  0.90736  0.17905  1.0000
  H   H1512     1.0  0.65357  0.89624  0.92522  1.0000
  H   H1513     1.0  0.67502  0.88582  0.92827  1.0000
  H   H1514     1.0  0.67826  0.88219  0.86265  1.0000
  H   H1515     1.0  0.67095  0.89947  0.83279  1.0000
  H   H1516     1.0  0.65657  0.92494  0.85263  1.0000
  H   H1517     1.0  0.64635  0.92212  0.89393  1.0000
  C   C875      1.0  0.61227  0.98847  0.77993  1.0000
  H   H1518     1.0  0.65414  0.96605  0.89909  1.0000
  H   H1519     1.0  0.53412  0.82989  0.21412  1.0000
  C   C876      1.0  0.72385  0.87273  0.21859  1.0000
  H   H1520     1.0  0.64075  0.90012  0.85762  1.0000
  H   H1521     1.0  0.64895  0.88062  0.88137  1.0000
  H   H1522     1.0  0.68008  0.91343  0.95997  1.0000
  H   H1523     1.0  0.65730  0.91990  0.95900  1.0000
  H   H1524     1.0  0.64907  0.97060  0.65473  1.0000
  H   H1525     1.0  0.67739  0.88799  0.99543  1.0000
  C   C877      1.0  0.50867  0.96125  0.72349  1.0000
  H   H1526     1.0  0.63970  0.95259  0.91383  1.0000
  H   H1527     1.0  0.50650  0.95905  0.44209  1.0000
  H   H1528     1.0  0.64382  0.95534  0.86643  1.0000
  C   C878      1.0  0.64220  0.98634  0.17640  1.0000
  H   H1529     1.0  0.66865  0.93790  0.92349  1.0000
  C   C879      1.0  0.72796  0.88280  0.30476  1.0000
  H   H1530     1.0  0.65069  0.88655  0.79974  1.0000
  H   H1531     1.0  0.65986  0.86731  0.82357  1.0000
  H   H1532     1.0  0.63730  0.87452  0.82433  1.0000
  N   N49       1.0  0.68441  0.98010  0.26462  1.0000
  C   C880      1.0  0.68882  0.97692  0.22537  1.0000
  C   C881      1.0  0.69686  0.96791  0.28675  1.0000
  C   C882      1.0  0.66313  0.95939  0.26331  1.0000
  C   C883      1.0  0.70603  0.98109  0.21203  1.0000
  C   C884      1.0  0.57130  0.95751  0.25448  1.0000
  C   C885      1.0  0.70818  0.97900  0.17140  1.0000
  C   C886      1.0  0.56738  0.98174  0.71999  1.0000
  H   H1533     1.0  0.54938  0.93819  0.82152  1.0000
  H   H1534     1.0  0.67878  0.98430  0.20812  1.0000
  H   H1535     1.0  0.68931  0.96346  0.21896  1.0000
  H   H1536     1.0  0.69749  0.95481  0.27738  1.0000
  H   H1537     1.0  0.70991  0.97039  0.28249  1.0000
  H   H1538     1.0  0.66597  0.95587  0.23495  1.0000
  H   H1539     1.0  0.67088  0.94987  0.28108  1.0000
  H   H1540     1.0  0.71671  0.97252  0.22499  1.0000
  H   H1541     1.0  0.53981  0.95995  0.13071  1.0000
  H   H1542     1.0  0.50583  0.94115  0.39718  1.0000
  H   H1543     1.0  0.54869  0.98072  0.36998  1.0000
  S   S206      1.0  0.60856  0.97720  0.10383  1.0000
  H   H1544     1.0  0.73574  0.98068  0.71106  1.0000
  H   H1545     1.0  0.52026  0.93762  0.80412  1.0000
  H   H1546     1.0  0.73735  0.95530  0.48430  1.0000
  Fe  Fe106     1.0  0.74900  0.91390  0.67740  1.0000
  H   H1547     1.0  0.69885  0.90177  0.83373  1.0000
  C   C887      1.0  0.61192  0.99380  0.98418  1.0000
  C   C888      1.0  0.73998  0.97797  0.73916  1.0000
  C   C889      1.0  0.54515  0.83460  0.22492  1.0000
  C   C890      1.0  0.52627  0.94800  0.79302  1.0000
  H   H1548     1.0  0.56798  0.88874  0.15848  1.0000
  C   C891      1.0  0.54683  0.87638  0.21010  1.0000
  H   H1549     1.0  0.57507  0.96977  0.12075  1.0000
  H   H1550     1.0  0.70774  0.96582  0.16400  1.0000
  H   H1551     1.0  0.52077  0.96360  0.65676  1.0000
  C   C892      1.0  0.50960  0.89396  0.29864  1.0000
  H   H1552     1.0  0.73901  0.89622  0.24077  1.0000
  C   C893      1.0  0.61506  0.98074  0.81390  1.0000
  C   C894      1.0  0.61983  0.98978  0.84251  1.0000
  C   C895      1.0  0.66254  0.98800  0.70200  1.0000
  H   H1553     1.0  0.56047  0.94691  0.13269  1.0000
  H   H1554     1.0  0.56864  0.85602  0.20266  1.0000
  H   H1555     1.0  0.73464  0.85231  0.25539  1.0000
  H   H1556     1.0  0.72186  0.96288  0.67292  1.0000
  H   H1557     1.0  0.57268  0.97400  0.74359  1.0000
  H   H1558     1.0  0.73360  0.98322  0.58378  1.0000
  H   H1559     1.0  0.72062  0.98188  0.16257  1.0000
  H   H1560     1.0  0.72407  0.87086  0.35671  1.0000
  H   H1561     1.0  0.53202  0.97122  0.73187  1.0000
  C   C896      1.0  0.54020  0.95028  0.81885  1.0000
  H   H1562     1.0  0.58439  0.95200  0.24564  1.0000
  H   H1563     1.0  0.62216  0.98372  0.86865  1.0000
  H   H1564     1.0  0.69826  0.97064  0.71668  1.0000
  C   C897      1.0  0.52435  0.86185  0.18680  1.0000
  H   H1565     1.0  0.72797  0.87923  0.19433  1.0000
  H   H1566     1.0  0.69341  0.97993  0.67268  1.0000
  H   H1567     1.0  0.67475  0.94234  0.87847  1.0000
  H   H1568     1.0  0.66309  0.99221  0.67332  1.0000
  H   H1569     1.0  0.69162  0.91736  0.90817  1.0000
  H   H1570     1.0  0.51569  0.95752  0.37650  1.0000
  H   H1571     1.0  0.71555  0.99835  0.78091  1.0000
  C   C898      1.0  0.69628  0.91299  0.85124  1.0000
  H   H1572     1.0  0.68714  0.92290  0.83721  1.0000
  N   N50       1.0  0.55824  0.98133  0.16310  1.0000
  H   H1573     1.0  0.65461  0.89294  0.99245  1.0000
  H   H1574     1.0  0.71371  0.94457  0.68817  1.0000
  H   H1575     1.0  0.57152  0.98227  0.23408  1.0000
  H   H1576     1.0  0.51040  0.99624  0.54020  1.0000
  H   H1577     1.0  0.72240  0.90968  0.86895  1.0000
  H   H1578     1.0  0.58286  0.98836  0.16652  1.0000
  H   H1579     1.0  0.51561  0.94806  0.72190  1.0000
  H   H1580     1.0  0.56553  0.82498  0.26202  1.0000
  S   S207      1.0  0.74284  0.93067  0.62866  1.0000
  S   S208      1.0  0.74500  0.95094  0.40897  1.0000
  H   H1581     1.0  0.52544  0.88443  0.15244  1.0000
  S   S209      1.0  0.72938  0.91434  0.72344  1.0000
  C   C899      1.0  0.56924  0.99454  0.16596  1.0000
  H   H1582     1.0  0.73423  0.88898  0.35935  1.0000
  H   H1583     1.0  0.54074  0.95716  0.67896  1.0000
  C   C900      1.0  0.55396  0.82122  0.25147  1.0000
  H   H1584     1.0  0.50797  0.87287  0.24533  1.0000
  H   H1585     1.0  0.72668  0.89589  0.29406  1.0000
  H   H1586     1.0  0.50432  0.92857  0.33734  1.0000
  H   H1587     1.0  0.67874  0.96461  0.82677  1.0000
  C   C901      1.0  0.73615  0.98404  0.55442  1.0000
  H   H1588     1.0  0.51415  0.85483  0.19517  1.0000
  H   H1589     1.0  0.51065  0.99687  0.21116  1.0000
  H   H1590     1.0  0.74350  0.93596  0.53742  1.0000
  H   H1591     1.0  0.74642  0.85388  0.21544  1.0000
  H   H1592     1.0  0.53749  0.98634  0.32860  1.0000
  H   H1593     1.0  0.72829  0.99580  0.54356  1.0000
  S   S210      1.0  0.75068  0.95626  0.30573  1.0000
  C   C902      1.0  0.74825  0.99257  0.75243  1.0000
  H   H1594     1.0  0.74634  0.95125  0.72859  1.0000
  H   H1595     1.0  0.74720  0.98904  0.19485  1.0000
  H   H1596     1.0  0.74905  0.97336  0.23052  1.0000
  C   C903      1.0  0.74875  0.93681  0.44602  1.0000
  H   H1597     1.0  0.75013  0.99486  0.27585  1.0000
  C   C904      1.0  0.74504  0.99923  0.24898  1.0000
  H   H1598     1.0  0.69905  0.99910  0.27823  1.0000
  H   H1599     1.0  0.50896  0.98424  0.58131  1.0000
  C   C905      1.0  0.51628  0.87632  0.16082  1.0000
  H   H1600     1.0  0.52083  0.86181  0.11159  1.0000
  H   H1601     1.0  0.50510  0.88422  0.17364  1.0000
  H   H1602     1.0  0.50404  0.87999  0.10909  1.0000
  H   H1603     1.0  0.50159  0.95666  0.50847  1.0000
  H   H1604     1.0  0.63513  0.99808  0.70670  1.0000
  C   C906      1.0  0.64706  0.99922  0.72009  1.0000
  N   N51       1.0  0.75101  0.87080  0.25741  1.0000
  C   C907      1.0  0.77165  0.06672  0.54660  1.0000
  S   S211      1.0  0.89011  0.19793  0.28636  1.0000
  Fe  Fe107     1.0  0.89484  0.18840  0.38863  1.0000
  S   S212      1.0  0.90255  0.16889  0.34653  1.0000
  S   S213      1.0  0.90013  0.17703  0.44432  1.0000
  Fe  Fe108     1.0  0.91417  0.18856  0.31678  1.0000
  S   S214      1.0  0.94017  0.18417  0.28865  1.0000
  Fe  Fe109     1.0  0.87764  0.17974  0.32093  1.0000
  S   S215      1.0  0.86303  0.15933  0.30145  1.0000
  S   S216      1.0  0.76820  0.05800  0.34915  1.0000
  S   S217      1.0  0.86961  0.19886  0.36427  1.0000
  H   H1605     1.0  0.84814  0.18422  0.75083  1.0000
  Fe  Fe110     1.0  0.75636  0.08462  0.33428  1.0000
  S   S218      1.0  0.80476  0.07151  0.35297  1.0000
  C   C908      1.0  0.85294  0.15113  0.43481  1.0000
  Fe  Fe111     1.0  0.79069  0.09768  0.33900  1.0000
  S   S219      1.0  0.80028  0.12287  0.34655  1.0000
  H   H1606     1.0  0.89296  0.11244  0.39739  1.0000
  S   S220      1.0  0.79833  0.04224  0.27027  1.0000
  C   C909      1.0  0.84260  0.18296  0.43412  1.0000
  S   S221      1.0  0.90046  0.17393  0.64013  1.0000
  C   C910      1.0  0.81167  0.13341  0.77282  1.0000
  H   H1607     1.0  0.86506  0.13057  0.55682  1.0000
  S   S222      1.0  0.90481  0.17807  0.72582  1.0000
  Fe  Fe112     1.0  0.91779  0.18530  0.67534  1.0000
  S   S223      1.0  0.94553  0.18143  0.65751  1.0000
  Fe  Fe113     1.0  0.88575  0.16914  0.69013  1.0000
  S   S224      1.0  0.87677  0.14402  0.70237  1.0000
  H   H1608     1.0  0.77424  0.06086  0.57285  1.0000
  H   H1609     1.0  0.93606  0.15532  0.60750  1.0000
  Fe  Fe114     1.0  0.78883  0.06223  0.31119  1.0000
  H   H1610     1.0  0.84445  0.11760  0.52342  1.0000
  S   S225      1.0  0.79414  0.07496  0.63145  1.0000
  S   S226      1.0  0.76944  0.09559  0.37853  1.0000
  H   H1611     1.0  0.78409  0.12263  0.26245  1.0000
  S   S227      1.0  0.79986  0.02865  0.67537  1.0000
  Fe  Fe115     1.0  0.79497  0.09349  0.67576  1.0000
  S   S228      1.0  0.80945  0.11556  0.66649  1.0000
  C   C911      1.0  0.87296  0.16454  0.79282  1.0000
  C   C912      1.0  0.75833  0.13810  0.30817  1.0000
  H   H1612     1.0  0.92538  0.21600  0.47112  1.0000
  H   H1613     1.0  0.97169  0.13184  0.28891  1.0000
  C   C913      1.0  0.85157  0.13266  0.56548  1.0000
  C   C914      1.0  0.78818  0.01260  0.66603  1.0000
  H   H1614     1.0  0.96396  0.24838  0.20338  1.0000
  H   H1615     1.0  0.79872  0.10679  0.59664  1.0000
  H   H1616     1.0  0.90852  0.13055  0.35987  1.0000
  H   H1617     1.0  0.95790  0.16796  0.57454  1.0000
  H   H1618     1.0  0.87196  0.17423  0.81381  1.0000
  H   H1619     1.0  0.82365  0.05785  0.58275  1.0000
  C   C915      1.0  0.96308  0.18640  0.68041  1.0000
  C   C916      1.0  0.96218  0.19083  0.71661  1.0000
  C   C917      1.0  0.97658  0.19453  0.73363  1.0000
  C   C918      1.0  0.99193  0.19398  0.71454  1.0000
  C   C919      1.0  0.99278  0.18958  0.67830  1.0000
  C   C920      1.0  0.97847  0.18566  0.66148  1.0000
  H   H1620     1.0  0.95050  0.19112  0.73161  1.0000
  H   H1621     1.0  0.97584  0.19778  0.76174  1.0000
  H   H1622     1.0  0.81015  0.01595  0.22240  1.0000
  H   H1623     1.0  0.97935  0.18196  0.63368  1.0000
  C   C921      1.0  0.85828  0.13606  0.69061  1.0000
  C   C922      1.0  0.85625  0.12000  0.70372  1.0000
  C   C923      1.0  0.84153  0.11343  0.69652  1.0000
  C   C924      1.0  0.82856  0.12287  0.67605  1.0000
  C   C925      1.0  0.83067  0.13887  0.66259  1.0000
  C   C926      1.0  0.84541  0.14541  0.66969  1.0000
  H   H1624     1.0  0.86609  0.11260  0.71986  1.0000
  H   H1625     1.0  0.84018  0.10112  0.70705  1.0000
  H   H1626     1.0  0.82078  0.14632  0.64668  1.0000
  H   H1627     1.0  0.84679  0.15771  0.65915  1.0000
  C   C927      1.0  0.79654  0.02060  0.27254  1.0000
  H   H1628     1.0  0.79014  0.00392  0.58854  1.0000
  C   C928      1.0  0.79499  0.01063  0.56539  1.0000
  C   C929      1.0  0.97816  0.23379  0.67101  1.0000
  H   H1629     1.0  0.84453  0.16541  0.73195  1.0000
  C   C930      1.0  0.78823  0.01325  0.30066  1.0000
  C   C931      1.0  0.86003  0.12041  0.43377  1.0000
  H   H1630     1.0  0.78977  0.14195  0.27783  1.0000
  H   H1631     1.0  0.94797  0.22308  0.73989  1.0000
  H   H1632     1.0  0.78282  0.02090  0.32295  1.0000
  H   H1633     1.0  0.91125  0.20886  0.59548  1.0000
  H   H1634     1.0  0.94980  0.16241  0.53219  1.0000
  C   C932      1.0  0.82185  0.18417  0.74088  1.0000
  H   H1635     1.0  0.86318  0.17001  0.46511  1.0000
  H   H1636     1.0  0.78823  0.04692  0.51864  1.0000
  H   H1637     1.0  0.76289  0.14473  0.58096  1.0000
  C   C933      1.0  0.95762  0.19148  0.30721  1.0000
  C   C934      1.0  0.95667  0.19816  0.34161  1.0000
  C   C935      1.0  0.97070  0.20370  0.35606  1.0000
  C   C936      1.0  0.98593  0.20255  0.33644  1.0000
  C   C937      1.0  0.98686  0.19612  0.30169  1.0000
  C   C938      1.0  0.97276  0.19055  0.28719  1.0000
  H   H1638     1.0  0.94513  0.19892  0.35717  1.0000
  H   H1639     1.0  0.96982  0.20885  0.38276  1.0000
  H   H1640     1.0  0.77189  0.01359  0.74459  1.0000
  H   H1641     1.0  0.97354  0.18557  0.26033  1.0000
  C   C939      1.0  0.89082  0.18706  0.48320  1.0000
  C   C940      1.0  0.89206  0.17773  0.51555  1.0000
  C   C941      1.0  0.88593  0.18538  0.54780  1.0000
  H   H1642     1.0  0.94886  0.14038  0.57847  1.0000
  C   C942      1.0  0.76966  0.03928  0.75966  1.0000
  H   H1643     1.0  0.92772  0.14993  0.56530  1.0000
  H   H1644     1.0  0.89803  0.16457  0.51585  1.0000
  H   H1645     1.0  0.88686  0.17799  0.57238  1.0000
  H   H1646     1.0  0.76235  0.12414  0.31075  1.0000
  C   C943      1.0  0.82468  0.12019  0.56604  1.0000
  C   C944      1.0  0.84565  0.14927  0.31516  1.0000
  C   C945      1.0  0.84439  0.13353  0.30061  1.0000
  C   C946      1.0  0.83081  0.12519  0.31002  1.0000
  C   C947      1.0  0.81805  0.13255  0.33391  1.0000
  C   C948      1.0  0.81928  0.14832  0.34844  1.0000
  C   C949      1.0  0.83296  0.15656  0.33932  1.0000
  H   H1647     1.0  0.85400  0.12772  0.28174  1.0000
  H   H1648     1.0  0.83016  0.11314  0.29842  1.0000
  H   H1649     1.0  0.80952  0.15427  0.36678  1.0000
  H   H1650     1.0  0.83349  0.16875  0.35032  1.0000
  N   N52       1.0  0.93757  0.19778  0.53861  1.0000
  C   C950      1.0  0.93803  0.19310  0.49947  1.0000
  C   C951      1.0  0.93335  0.18319  0.56088  1.0000
  H   H1651     1.0  0.91151  0.21005  0.53117  1.0000
  H   H1652     1.0  0.78399  0.14025  0.23176  1.0000
  H   H1653     1.0  0.75494  0.13871  0.24922  1.0000
  H   H1654     1.0  0.94540  0.23662  0.77854  1.0000
  N   N53       1.0  0.81419  0.10875  0.54912  1.0000
  C   C952      1.0  0.94635  0.16647  0.55999  1.0000
  C   C953      1.0  0.93925  0.15218  0.57896  1.0000
  H   H1655     1.0  0.76688  0.14358  0.32576  1.0000
  H   H1656     1.0  0.79164  0.01427  0.50862  1.0000
  C   C954      1.0  0.89808  0.12510  0.34851  1.0000
  H   H1657     1.0  0.92676  0.18751  0.49314  1.0000
  H   H1658     1.0  0.94897  0.18301  0.49321  1.0000
  H   H1659     1.0  0.93185  0.18645  0.58966  1.0000
  H   H1660     1.0  0.92088  0.18051  0.55288  1.0000
  H   H1661     1.0  0.97220  0.18030  0.53314  1.0000
  H   H1662     1.0  0.81755  0.04937  0.54169  1.0000
  H   H1663     1.0  0.77470  0.05963  0.21470  1.0000
  C   C955      1.0  0.92326  0.21262  0.54358  1.0000
  C   C956      1.0  0.93870  0.23103  0.75748  1.0000
  H   H1664     1.0  0.94736  0.21587  0.47978  1.0000
  H   H1665     1.0  0.93337  0.19348  0.42585  1.0000
  C   C957      1.0  0.76069  0.08226  0.54327  1.0000
  C   C958      1.0  0.88578  0.12160  0.37825  1.0000
  H   H1666     1.0  0.90363  0.11314  0.33507  1.0000
  H   H1667     1.0  0.89143  0.13397  0.32793  1.0000
  H   H1668     1.0  0.97912  0.24190  0.64680  1.0000
  H   H1669     1.0  0.87623  0.11532  0.36568  1.0000
  H   H1670     1.0  0.81641  0.19400  0.76032  1.0000
  H   H1671     1.0  0.94095  0.23212  0.31742  1.0000
  H   H1672     1.0  0.84861  0.12457  0.38004  1.0000
  H   H1673     1.0  0.00025  0.16268  0.27527  1.0000
  H   H1674     1.0  0.82455  0.18762  0.81596  1.0000
  S   S229      1.0  0.79141  0.07426  0.71943  1.0000
  Fe  Fe116     1.0  0.78819  0.05664  0.67442  1.0000
  C   C959      1.0  0.77175  0.01642  0.65260  1.0000
  H   H1675     1.0  0.83973  0.09609  0.42944  1.0000
  H   H1676     1.0  0.84582  0.19002  0.81065  1.0000
  C   C960      1.0  0.84076  0.17466  0.85693  1.0000
  H   H1677     1.0  0.86842  0.14518  0.37594  1.0000
  C   C961      1.0  0.87697  0.13815  0.39658  1.0000
  H   H1678     1.0  0.86989  0.10900  0.43007  1.0000
  C   C962      1.0  0.84565  0.11963  0.40696  1.0000
  H   H1679     1.0  0.83166  0.10169  0.38504  1.0000
  C   C963      1.0  0.84259  0.10161  0.40293  1.0000
  Fe  Fe117     1.0  0.76326  0.08296  0.71353  1.0000
  H   H1680     1.0  0.83363  0.12746  0.41669  1.0000
  H   H1681     1.0  0.90330  0.12308  0.44398  1.0000
  H   H1682     1.0  0.92797  0.22541  0.18260  1.0000
  H   H1683     1.0  0.88665  0.14621  0.40050  1.0000
  N   N54       1.0  0.86745  0.13632  0.43153  1.0000
  C   C964      1.0  0.81460  0.07669  0.54100  1.0000
  H   H1684     1.0  0.85385  0.09355  0.39060  1.0000
  S   S230      1.0  0.90831  0.20715  0.36099  1.0000
  H   H1685     1.0  0.76105  0.04390  0.26177  1.0000
  H   H1686     1.0  0.95831  0.22857  0.19313  1.0000
  H   H1687     1.0  0.85475  0.11880  0.46123  1.0000
  H   H1688     1.0  0.84468  0.15199  0.41094  1.0000
  S   S231      1.0  0.76690  0.10342  0.67386  1.0000
  C   C965      1.0  0.77953  0.05880  0.51591  1.0000
  H   H1689     1.0  0.90879  0.13537  0.50140  1.0000
  H   H1690     1.0  0.89544  0.12279  0.52514  1.0000
  H   H1691     1.0  0.89055  0.10958  0.46674  1.0000
  C   C966      1.0  0.89427  0.12216  0.46651  1.0000
  H   H1692     1.0  0.76593  0.02942  0.64753  1.0000
  C   C967      1.0  0.90382  0.12339  0.50124  1.0000
  H   H1693     1.0  0.88424  0.14837  0.46264  1.0000
  C   C968      1.0  0.87879  0.13665  0.46333  1.0000
  N   N55       1.0  0.93383  0.24269  0.24605  1.0000
  S   S232      1.0  0.78752  0.05660  0.44442  1.0000
  H   H1694     1.0  0.95527  0.22401  0.26317  1.0000
  H   H1695     1.0  0.76107  0.15743  0.26722  1.0000
  H   H1696     1.0  0.91471  0.11273  0.50316  1.0000
  H   H1697     1.0  0.87671  0.24034  0.24983  1.0000
  C   C969      1.0  0.81282  0.11274  0.50920  1.0000
  H   H1698     1.0  0.85799  0.14759  0.81886  1.0000
  Fe  Fe118     1.0  0.88392  0.21615  0.33179  1.0000
  H   H1699     1.0  0.87125  0.13697  0.48884  1.0000
  H   H1700     1.0  0.92771  0.21871  0.26428  1.0000
  C   C970      1.0  0.88290  0.20404  0.48303  1.0000
  H   H1701     1.0  0.86742  0.17065  0.41730  1.0000
  H   H1702     1.0  0.84476  0.14931  0.45855  1.0000
  S   S233      1.0  0.86849  0.19448  0.68823  1.0000
  H   H1703     1.0  0.94213  0.20998  0.20914  1.0000
  C   C971      1.0  0.85791  0.16873  0.43816  1.0000
  Fe  Fe119     1.0  0.88419  0.19968  0.63996  1.0000
  C   C972      1.0  0.87871  0.20251  0.54818  1.0000
  H   H1704     1.0  0.99770  0.19316  0.53573  1.0000
  C   C973      1.0  0.79819  0.11109  0.44954  1.0000
  Fe  Fe120     1.0  0.78282  0.06924  0.38984  1.0000
  S   S234      1.0  0.87762  0.24505  0.32772  1.0000
  C   C974      1.0  0.78787  0.13011  0.56999  1.0000
  H   H1705     1.0  0.85105  0.13338  0.59528  1.0000
  H   H1706     1.0  0.88180  0.21131  0.45809  1.0000
  H   H1707     1.0  0.83726  0.18306  0.40679  1.0000
  H   H1708     1.0  0.83269  0.18154  0.45456  1.0000
  C   C975      1.0  0.76295  0.00336  0.64500  1.0000
  H   H1709     1.0  0.76357  0.01541  0.24632  1.0000
  H   H1710     1.0  0.78923  0.13707  0.54437  1.0000
  H   H1711     1.0  0.84657  0.19529  0.43804  1.0000
  H   H1712     1.0  0.81345  0.12626  0.50359  1.0000
  H   H1713     1.0  0.75690  0.02836  0.71869  1.0000
  Fe  Fe121     1.0  0.88830  0.20384  0.72032  1.0000
  H   H1714     1.0  0.92054  0.19741  0.17889  1.0000
  H   H1715     1.0  0.91086  0.23251  0.24294  1.0000
  H   H1716     1.0  0.83721  0.05700  0.54316  1.0000
  H   H1717     1.0  0.87109  0.22500  0.51555  1.0000
  C   C976      1.0  0.87684  0.21175  0.51555  1.0000
  C   C977      1.0  0.77649  0.06638  0.48182  1.0000
  H   H1718     1.0  0.84719  0.19829  0.87468  1.0000
  H   H1719     1.0  0.94153  0.21243  0.41531  1.0000
  H   H1720     1.0  0.85384  0.16770  0.86097  1.0000
  C   C978      1.0  0.82700  0.14197  0.76736  1.0000
  H   H1721     1.0  0.78587  0.11040  0.43731  1.0000
  H   H1722     1.0  0.91908  0.22631  0.79556  1.0000
  H   H1723     1.0  0.82478  0.11836  0.59584  1.0000
  H   H1724     1.0  0.81892  0.13368  0.56109  1.0000
  H   H1725     1.0  0.91816  0.19602  0.22696  1.0000
  C   C979      1.0  0.76511  0.08169  0.47840  1.0000
  S   S235      1.0  0.76006  0.06459  0.67103  1.0000
  C   C980      1.0  0.92911  0.21744  0.20737  1.0000
  Fe  Fe122     1.0  0.76616  0.08421  0.63186  1.0000
  C   C981      1.0  0.76164  0.02486  0.74613  1.0000
  C   C982      1.0  0.76161  0.06556  0.20724  1.0000
  S   S236      1.0  0.90233  0.21147  0.67197  1.0000
  H   H1726     1.0  0.80773  0.10046  0.43919  1.0000
  C   C983      1.0  0.79654  0.10972  0.49044  1.0000
  H   H1727     1.0  0.76282  0.12568  0.55648  1.0000
  H   H1728     1.0  0.79351  0.09718  0.49717  1.0000
  H   H1729     1.0  0.81497  0.07704  0.51117  1.0000
  H   H1730     1.0  0.91862  0.23198  0.31383  1.0000
  H   H1731     1.0  0.83596  0.08853  0.54369  1.0000
  S   S237      1.0  0.87272  0.21269  0.58918  1.0000
  H   H1732     1.0  0.82390  0.10545  0.49455  1.0000
  H   H1733     1.0  0.80138  0.07795  0.55058  1.0000
  C   C984      1.0  0.91715  0.20490  0.20351  1.0000
  H   H1734     1.0  0.84030  0.18537  0.91004  1.0000
  C   C985      1.0  0.82388  0.05920  0.55297  1.0000
  C   C986      1.0  0.84341  0.11809  0.55313  1.0000
  H   H1735     1.0  0.84505  0.14487  0.55371  1.0000
  C   C987      1.0  0.82307  0.09077  0.55598  1.0000
  H   H1736     1.0  0.80178  0.12327  0.44104  1.0000
  H   H1737     1.0  0.92152  0.23776  0.71429  1.0000
  H   H1738     1.0  0.81297  0.17524  0.73851  1.0000
  H   H1739     1.0  0.92141  0.21312  0.75630  1.0000
  C   C988      1.0  0.76904  0.13129  0.57838  1.0000
  C   C989      1.0  0.98592  0.19920  0.54988  1.0000
  H   H1740     1.0  0.82479  0.08842  0.58551  1.0000
  H   H1741     1.0  0.85091  0.10630  0.56477  1.0000
  H   H1742     1.0  0.78857  0.10386  0.55662  1.0000
  S   S238      1.0  0.88313  0.21976  0.77050  1.0000
  H   H1743     1.0  0.79975  0.14264  0.76875  1.0000
  C   C990      1.0  0.79722  0.11148  0.56831  1.0000
  H   H1744     1.0  0.97301  0.15379  0.29198  1.0000
  H   H1745     1.0  0.81419  0.16413  0.79603  1.0000
  C   C991      1.0  0.82699  0.15602  0.79524  1.0000
  S   S239      1.0  0.77630  0.08860  0.29349  1.0000
  C   C992      1.0  0.88942  0.15200  0.79900  1.0000
  C   C993      1.0  0.80371  0.01048  0.24417  1.0000
  H   H1746     1.0  0.89152  0.14243  0.77754  1.0000
  C   C994      1.0  0.82276  0.19290  0.70419  1.0000
  H   H1747     1.0  0.95549  0.19402  0.43294  1.0000
  H   H1748     1.0  0.93681  0.20918  0.79141  1.0000
  C   C995      1.0  0.98170  0.22669  0.22098  1.0000
  H   H1749     1.0  0.90384  0.21164  0.20135  1.0000
  C   C996      1.0  0.90770  0.23547  0.58433  1.0000
  C   C997      1.0  0.83774  0.18047  0.81713  1.0000
  H   H1750     1.0  0.78549  0.11930  0.49880  1.0000
  H   H1751     1.0  0.82837  0.14944  0.82190  1.0000
  H   H1752     1.0  0.82663  0.14704  0.73945  1.0000
  H   H1753     1.0  0.85982  0.14611  0.77177  1.0000
  H   H1754     1.0  0.89638  0.23621  0.56725  1.0000
  H   H1755     1.0  0.83848  0.13206  0.77019  1.0000
  H   H1756     1.0  0.98519  0.21310  0.54838  1.0000
  N   N56       1.0  0.84047  0.16666  0.78973  1.0000
  H   H1757     1.0  0.88912  0.14551  0.82559  1.0000
  C   C998      1.0  0.88367  0.24162  0.76768  1.0000
  H   H1758     1.0  0.76188  0.07035  0.17906  1.0000
  C   C999      1.0  0.75720  0.08961  0.50910  1.0000
  H   H1759     1.0  0.83059  0.20287  0.70556  1.0000
  H   H1760     1.0  0.77381  0.00770  0.46680  1.0000
  C   C1000     1.0  0.83959  0.17483  0.75273  1.0000
  H   H1761     1.0  0.79330  0.13663  0.59175  1.0000
  H   H1762     1.0  0.82825  0.18361  0.68358  1.0000
  C   C1001     1.0  0.93815  0.20790  0.47217  1.0000
  H   H1763     1.0  0.90023  0.15882  0.79837  1.0000
  H   H1764     1.0  0.81159  0.12764  0.80021  1.0000
  H   H1765     1.0  0.92621  0.22403  0.52926  1.0000
  C   C1002     1.0  0.85755  0.15542  0.79376  1.0000
  H   H1766     1.0  0.77252  0.01319  0.53355  1.0000
  H   H1767     1.0  0.87402  0.17081  0.76625  1.0000
  H   H1768     1.0  0.80985  0.19892  0.69573  1.0000
  H   H1769     1.0  0.75717  0.07641  0.22498  1.0000
  C   C1003     1.0  0.92482  0.22799  0.24170  1.0000
  H   H1770     1.0  0.97077  0.19833  0.50362  1.0000
  C   C1004     1.0  0.78126  0.13662  0.25992  1.0000
  C   C1005     1.0  0.83812  0.18982  0.88174  1.0000
  H   H1771     1.0  0.97666  0.14334  0.24923  1.0000
  C   C1006     1.0  0.97857  0.14178  0.27870  1.0000
  H   H1772     1.0  0.83181  0.16638  0.86580  1.0000
  H   H1773     1.0  0.76253  0.08751  0.45221  1.0000
  H   H1774     1.0  0.75525  0.04211  0.19251  1.0000
  H   H1775     1.0  0.91503  0.24519  0.57498  1.0000
  H   H1776     1.0  0.99108  0.22898  0.68108  1.0000
  C   C1007     1.0  0.78612  0.00749  0.53088  1.0000
  C   C1008     1.0  0.94244  0.20148  0.43428  1.0000
  H   H1777     1.0  0.76722  0.12455  0.60410  1.0000
  H   H1778     1.0  0.95525  0.20026  0.58058  1.0000
  H   H1779     1.0  0.95328  0.21655  0.54747  1.0000
  C   C1009     1.0  0.92830  0.21925  0.77628  1.0000
  C   C1010     1.0  0.97054  0.19423  0.53227  1.0000
  H   H1780     1.0  0.80886  0.00619  0.56272  1.0000
  H   H1781     1.0  0.95831  0.24499  0.26734  1.0000
  H   H1782     1.0  0.93011  0.21779  0.59911  1.0000
  C   C1011     1.0  0.91866  0.21784  0.58289  1.0000
  C   C1012     1.0  0.92826  0.24017  0.31476  1.0000
  H   H1783     1.0  0.75222  0.02523  0.30679  1.0000
  C   C1013     1.0  0.95380  0.20270  0.55105  1.0000
  H   H1784     1.0  0.77459  0.03643  0.78723  1.0000
  H   H1785     1.0  0.82500  0.19705  0.87973  1.0000
  H   H1786     1.0  0.88941  0.24330  0.82373  1.0000
  C   C1014     1.0  0.95270  0.23664  0.24943  1.0000
  H   H1787     1.0  0.78039  0.04100  0.74167  1.0000
  H   H1788     1.0  0.76294  0.01587  0.40779  1.0000
  H   H1789     1.0  0.98679  0.19496  0.57849  1.0000
  H   H1790     1.0  0.81218  0.12325  0.75288  1.0000
  C   C1015     1.0  0.99736  0.13677  0.28725  1.0000
  H   H1791     1.0  0.99833  0.19563  0.28594  1.0000
  C   C1016     1.0  0.92742  0.24472  0.73454  1.0000
  H   H1792     1.0  0.90327  0.23822  0.61236  1.0000
  H   H1793     1.0  0.79258  0.02435  0.57108  1.0000
  H   H1794     1.0  0.96862  0.23576  0.72517  1.0000
  C   C1017     1.0  0.76273  0.14349  0.26946  1.0000
  H   H1795     1.0  0.98938  0.22697  0.19594  1.0000
  H   H1796     1.0  0.97256  0.22278  0.66345  1.0000
  H   H1797     1.0  0.87766  0.24428  0.71152  1.0000
  H   H1798     1.0  0.98205  0.21330  0.22916  1.0000
  C   C1018     1.0  0.96349  0.23553  0.21424  1.0000
  C   C1019     1.0  0.96756  0.24379  0.70051  1.0000
  H   H1799     1.0  0.94470  0.23844  0.67678  1.0000
  H   H1800     1.0  0.98747  0.23311  0.24237  1.0000
  H   H1801     1.0  0.99845  0.13539  0.31675  1.0000
  H   H1802     1.0  0.78230  0.00390  0.38914  1.0000
  C   C1020     1.0  0.76917  0.00326  0.39813  1.0000
  S   S240      1.0  0.75166  0.09287  0.58160  1.0000
  H   H1803     1.0  0.92487  0.24218  0.37251  1.0000
  H   H1804     1.0  0.75283  0.01722  0.79821  1.0000
  H   H1805     1.0  0.76033  0.05129  0.75975  1.0000
  H   H1806     1.0  0.75535  0.13711  0.44373  1.0000
  H   H1807     1.0  0.76397  0.13368  0.38088  1.0000
  H   H1808     1.0  0.76208  0.00005  0.37472  1.0000
  H   H1809     1.0  0.75235  0.99955  0.49981  1.0000
  H   H1810     1.0  0.82487  0.29645  0.75928  1.0000
  S   S241      1.0  0.88587  0.45545  0.74855  1.0000
  Fe  Fe123     1.0  0.89798  0.35460  0.20753  1.0000
  S   S242      1.0  0.91319  0.35773  0.15792  1.0000
  S   S243      1.0  0.89764  0.37284  0.25394  1.0000
  Fe  Fe124     1.0  0.89175  0.31971  0.18476  1.0000
  S   S244      1.0  0.90646  0.32083  0.13272  1.0000
  S   S245      1.0  0.88213  0.29482  0.19272  1.0000
  Fe  Fe125     1.0  0.92495  0.33066  0.16642  1.0000
  S   S246      1.0  0.95259  0.32219  0.15528  1.0000
  Fe  Fe126     1.0  0.89340  0.34776  0.12740  1.0000
  S   S247      1.0  0.88871  0.36240  0.07436  1.0000
  S   S248      1.0  0.91148  0.32782  0.21868  1.0000
  S   S249      1.0  0.87689  0.34639  0.17695  1.0000
  Fe  Fe127     1.0  0.89504  0.35457  0.80053  1.0000
  S   S250      1.0  0.90492  0.35277  0.85715  1.0000
  S   S251      1.0  0.89563  0.37497  0.75695  1.0000
  Fe  Fe128     1.0  0.89130  0.31688  0.80072  1.0000
  S   S252      1.0  0.90097  0.31210  0.85683  1.0000
  S   S253      1.0  0.88422  0.29861  0.76022  1.0000
  Fe  Fe129     1.0  0.88498  0.33721  0.86997  1.0000
  S   S254      1.0  0.87022  0.33651  0.92245  1.0000
  Fe  Fe130     1.0  0.92012  0.32788  0.84069  1.0000
  S   S255      1.0  0.94675  0.32093  0.85986  1.0000
  S   S256      1.0  0.87352  0.34099  0.81447  1.0000
  S   S257      1.0  0.91205  0.33054  0.78346  1.0000
  H   H1811     1.0  0.94708  0.27155  0.22964  1.0000
  H   H1812     1.0  0.84855  0.38635  0.32125  1.0000
  H   H1813     1.0  0.82467  0.38585  0.20136  1.0000
  C   C1021     1.0  0.95929  0.33358  0.83770  1.0000
  C   C1022     1.0  0.95571  0.33930  0.80246  1.0000
  C   C1023     1.0  0.96613  0.34897  0.78442  1.0000
  C   C1024     1.0  0.98001  0.35315  0.80176  1.0000
  C   C1025     1.0  0.98332  0.34781  0.83734  1.0000
  C   C1026     1.0  0.97309  0.33786  0.85521  1.0000
  H   H1814     1.0  0.94524  0.33585  0.78862  1.0000
  H   H1815     1.0  0.96369  0.35281  0.75673  1.0000
  H   H1816     1.0  0.97552  0.29923  0.90765  1.0000
  H   H1817     1.0  0.97575  0.33366  0.88267  1.0000
  C   C1027     1.0  0.88427  0.27665  0.76433  1.0000
  C   C1028     1.0  0.88762  0.26761  0.79675  1.0000
  H   H1818     1.0  0.98929  0.31519  0.79604  1.0000
  C   C1029     1.0  0.88703  0.25020  0.79852  1.0000
  C   C1030     1.0  0.99152  0.42786  0.21965  1.0000
  C   C1031     1.0  0.88051  0.26812  0.73386  1.0000
  H   H1819     1.0  0.89042  0.27404  0.82048  1.0000
  H   H1820     1.0  0.99554  0.30140  0.16811  1.0000
  C   C1032     1.0  0.89112  0.49642  0.51999  1.0000
  H   H1821     1.0  0.87750  0.27507  0.70893  1.0000
  C   C1033     1.0  0.96249  0.33921  0.16394  1.0000
  C   C1034     1.0  0.95520  0.35154  0.18829  1.0000
  C   C1035     1.0  0.96349  0.36483  0.19618  1.0000
  C   C1036     1.0  0.97904  0.36581  0.17967  1.0000
  C   C1037     1.0  0.98604  0.35377  0.15449  1.0000
  C   C1038     1.0  0.97787  0.34036  0.14696  1.0000
  H   H1822     1.0  0.94344  0.35056  0.20197  1.0000
  H   H1823     1.0  0.95809  0.37403  0.21587  1.0000
  H   H1824     1.0  0.98965  0.39579  0.33789  1.0000
  H   H1825     1.0  0.98345  0.33090  0.12796  1.0000
  C   C1039     1.0  0.88501  0.35381  0.03241  1.0000
  C   C1040     1.0  0.87691  0.33995  0.02997  1.0000
  C   C1041     1.0  0.87289  0.33445  0.99603  1.0000
  C   C1042     1.0  0.87739  0.34241  0.96423  1.0000
  C   C1043     1.0  0.88617  0.35580  0.96664  1.0000
  C   C1044     1.0  0.88968  0.36165  0.00060  1.0000
  H   H1826     1.0  0.87314  0.33389  0.05424  1.0000
  H   H1827     1.0  0.86600  0.32417  0.99444  1.0000
  H   H1828     1.0  0.88949  0.36218  0.94240  1.0000
  H   H1829     1.0  0.89581  0.37247  0.00224  1.0000
  C   C1045     1.0  0.88207  0.28092  0.23065  1.0000
  C   C1046     1.0  0.87963  0.26430  0.22522  1.0000
  H   H1830     1.0  0.99686  0.34863  0.31792  1.0000
  C   C1047     1.0  0.99542  0.42154  0.33680  1.0000
  C   C1048     1.0  0.88219  0.27503  0.29521  1.0000
  C   C1049     1.0  0.88370  0.28611  0.26584  1.0000
  H   H1831     1.0  0.92620  0.26811  0.78834  1.0000
  H   H1832     1.0  0.88609  0.47134  0.43399  1.0000
  H   H1833     1.0  0.88295  0.27934  0.32235  1.0000
  H   H1834     1.0  0.88563  0.29879  0.27046  1.0000
  C   C1050     1.0  0.85342  0.41775  0.30985  1.0000
  C   C1051     1.0  0.98093  0.48073  0.65444  1.0000
  H   H1835     1.0  0.92519  0.28030  0.23862  1.0000
  H   H1836     1.0  0.98731  0.46895  0.66621  1.0000
  C   C1052     1.0  0.88770  0.43311  0.75002  1.0000
  C   C1053     1.0  0.89328  0.42324  0.72020  1.0000
  C   C1054     1.0  0.89495  0.40554  0.72257  1.0000
  C   C1055     1.0  0.89139  0.39741  0.75491  1.0000
  C   C1056     1.0  0.88554  0.40727  0.78462  1.0000
  C   C1057     1.0  0.88366  0.42503  0.78211  1.0000
  H   H1837     1.0  0.89623  0.42924  0.69523  1.0000
  H   H1838     1.0  0.89927  0.39806  0.69929  1.0000
  H   H1839     1.0  0.88250  0.40120  0.80946  1.0000
  H   H1840     1.0  0.87917  0.43256  0.80524  1.0000
  H   H1841     1.0  0.87077  0.35120  0.25694  1.0000
  H   H1842     1.0  0.99933  0.28544  0.77192  1.0000
  C   C1058     1.0  0.96100  0.32869  0.01549  1.0000
  N   N57       1.0  0.84178  0.37667  0.27073  1.0000
  C   C1059     1.0  0.88785  0.43104  0.25664  1.0000
  C   C1060     1.0  0.88077  0.42272  0.22958  1.0000
  C   C1061     1.0  0.88433  0.40497  0.22733  1.0000
  C   C1062     1.0  0.89459  0.39526  0.25285  1.0000
  C   C1063     1.0  0.90159  0.40356  0.28007  1.0000
  C   C1064     1.0  0.89853  0.42136  0.28157  1.0000
  H   H1843     1.0  0.87246  0.43008  0.21020  1.0000
  H   H1844     1.0  0.87880  0.39879  0.20640  1.0000
  H   H1845     1.0  0.90936  0.39618  0.30027  1.0000
  H   H1846     1.0  0.90401  0.42756  0.30266  1.0000
  C   C1065     1.0  0.87876  0.25301  0.25449  1.0000
  N   N58       1.0  0.92908  0.42493  0.16766  1.0000
  C   C1066     1.0  0.92262  0.41481  0.13910  1.0000
  C   C1067     1.0  0.94458  0.43095  0.15278  1.0000
  C   C1068     1.0  0.93316  0.41385  0.20068  1.0000
  C   C1069     1.0  0.91607  0.44013  0.17789  1.0000
  C   C1070     1.0  0.90833  0.45177  0.14643  1.0000
  C   C1071     1.0  0.90582  0.40865  0.14799  1.0000
  C   C1072     1.0  0.96072  0.41716  0.14868  1.0000
  C   C1073     1.0  0.97492  0.42411  0.12912  1.0000
  H   H1847     1.0  0.95511  0.49043  0.73234  1.0000
  C   C1074     1.0  0.89952  0.40051  0.11543  1.0000
  H   H1848     1.0  0.93203  0.40321  0.13353  1.0000
  H   H1849     1.0  0.92120  0.42197  0.11307  1.0000
  H   H1850     1.0  0.94193  0.43700  0.12579  1.0000
  H   H1851     1.0  0.94791  0.44110  0.16958  1.0000
  H   H1852     1.0  0.94193  0.40192  0.19383  1.0000
  H   H1853     1.0  0.92158  0.40971  0.21153  1.0000
  H   H1854     1.0  0.90555  0.43625  0.19369  1.0000
  H   H1855     1.0  0.92163  0.44826  0.19640  1.0000
  H   H1856     1.0  0.90148  0.44491  0.12785  1.0000
  H   H1857     1.0  0.91831  0.45681  0.13101  1.0000
  H   H1858     1.0  0.90776  0.39894  0.16987  1.0000
  H   H1859     1.0  0.89567  0.41916  0.15622  1.0000
  H   H1860     1.0  0.96543  0.41246  0.17548  1.0000
  H   H1861     1.0  0.95829  0.40623  0.13338  1.0000
  C   C1075     1.0  0.79574  0.38907  0.31026  1.0000
  H   H1862     1.0  0.97133  0.42776  0.10095  1.0000
  H   H1863     1.0  0.97780  0.43527  0.14305  1.0000
  H   H1864     1.0  0.89024  0.47504  0.13772  1.0000
  H   H1865     1.0  0.98238  0.45356  0.59942  1.0000
  C   C1076     1.0  0.99400  0.29048  0.84494  1.0000
  H   H1866     1.0  0.87824  0.26016  0.19816  1.0000
  H   H1867     1.0  0.90912  0.38967  0.10614  1.0000
  H   H1868     1.0  0.83746  0.28227  0.81585  1.0000
  H   H1869     1.0  0.95256  0.44067  0.72815  1.0000
  N   N59       1.0  0.94604  0.46167  0.51736  1.0000
  H   H1870     1.0  0.89567  0.27239  0.62392  1.0000
  C   C1077     1.0  0.95033  0.45340  0.48147  1.0000
  C   C1078     1.0  0.92956  0.45691  0.53038  1.0000
  C   C1079     1.0  0.95956  0.45541  0.54479  1.0000
  C   C1080     1.0  0.97408  0.46562  0.54828  1.0000
  H   H1871     1.0  0.98100  0.43238  0.69452  1.0000
  C   C1081     1.0  0.92951  0.43769  0.53456  1.0000
  C   C1082     1.0  0.96603  0.45752  0.46093  1.0000
  C   C1083     1.0  0.96825  0.44883  0.42455  1.0000
  H   H1872     1.0  0.87139  0.28595  0.95845  1.0000
  H   H1873     1.0  0.91991  0.28373  0.17248  1.0000
  C   C1084     1.0  0.91329  0.43442  0.55314  1.0000
  H   H1874     1.0  0.93387  0.48445  0.48959  1.0000
  Fe  Fe131     1.0  0.89157  0.47903  0.61963  1.0000
  H   H1875     1.0  0.95276  0.43942  0.48471  1.0000
  H   H1876     1.0  0.93930  0.45670  0.46318  1.0000
  H   H1877     1.0  0.91914  0.46232  0.51185  1.0000
  H   H1878     1.0  0.92576  0.46246  0.55712  1.0000
  H   H1879     1.0  0.95384  0.45517  0.57234  1.0000
  H   H1880     1.0  0.96539  0.44203  0.53960  1.0000
  H   H1881     1.0  0.96477  0.41155  0.61773  1.0000
  C   C1085     1.0  0.94296  0.48057  0.51190  1.0000
  C   C1086     1.0  0.99017  0.27872  0.87656  1.0000
  H   H1882     1.0  0.98516  0.41676  0.21969  1.0000
  H   H1883     1.0  0.94037  0.43127  0.55072  1.0000
  H   H1884     1.0  0.93008  0.43174  0.50784  1.0000
  C   C1087     1.0  0.91379  0.26336  0.66573  1.0000
  H   H1885     1.0  0.97762  0.45266  0.47629  1.0000
  H   H1886     1.0  0.95685  0.45281  0.40780  1.0000
  H   H1887     1.0  0.97927  0.45232  0.40974  1.0000
  H   H1888     1.0  0.97051  0.43490  0.42833  1.0000
  C   C1088     1.0  0.83872  0.29394  0.76375  1.0000
  H   H1889     1.0  0.82873  0.27811  0.87979  1.0000
  C   C1089     1.0  0.96635  0.41707  0.64425  1.0000
  C   C1090     1.0  0.86869  0.33261  0.29776  1.0000
  C   C1091     1.0  0.95535  0.49853  0.63344  1.0000
  H   H1890     1.0  0.83617  0.40194  0.21343  1.0000
  H   H1891     1.0  0.90209  0.43997  0.53697  1.0000
  H   H1892     1.0  0.91365  0.42062  0.55607  1.0000
  H   H1893     1.0  0.91189  0.43996  0.58033  1.0000
  C   C1092     1.0  0.94453  0.35616  0.03593  1.0000
  C   C1093     1.0  0.94135  0.35670  0.07723  1.0000
  C   C1094     1.0  0.94687  0.37204  0.09345  1.0000
  H   H1894     1.0  0.91867  0.33981  0.03910  1.0000
  H   H1895     1.0  0.93462  0.32705  0.06416  1.0000
  H   H1896     1.0  0.95695  0.35999  0.03019  1.0000
  H   H1897     1.0  0.93480  0.36663  0.02493  1.0000
  H   H1898     1.0  0.92762  0.35756  0.08300  1.0000
  H   H1899     1.0  0.94810  0.34534  0.09142  1.0000
  H   H1900     1.0  0.94365  0.37250  0.12260  1.0000
  H   H1901     1.0  0.96078  0.37111  0.09046  1.0000
  H   H1902     1.0  0.94033  0.38388  0.08022  1.0000
  H   H1903     1.0  0.98294  0.43519  0.75780  1.0000
  H   H1904     1.0  0.87337  0.27487  0.91650  1.0000
  H   H1905     1.0  0.81828  0.39405  0.26007  1.0000
  C   C1095     1.0  0.84565  0.40740  0.28297  1.0000
  C   C1096     1.0  0.98165  0.31224  0.23655  1.0000
  C   C1097     1.0  0.97014  0.30934  0.26893  1.0000
  H   H1906     1.0  0.82038  0.39097  0.32863  1.0000
  C   C1098     1.0  0.84772  0.37603  0.23175  1.0000
  H   H1907     1.0  0.91114  0.28562  0.63038  1.0000
  H   H1908     1.0  0.93408  0.25887  0.35177  1.0000
  C   C1099     1.0  0.95150  0.31489  0.25963  1.0000
  H   H1909     1.0  0.86730  0.41333  0.31132  1.0000
  C   C1100     1.0  0.86566  0.35102  0.28476  1.0000
  H   H1910     1.0  0.86405  0.33157  0.32587  1.0000
  S   S258      1.0  0.99309  0.36495  0.77851  1.0000
  C   C1101     1.0  0.96724  0.49816  0.38494  1.0000
  H   H1911     1.0  0.81658  0.36971  0.32451  1.0000
  H   H1912     1.0  0.97886  0.40943  0.30350  1.0000
  H   H1913     1.0  0.99893  0.40430  0.75629  1.0000
  H   H1914     1.0  0.97719  0.32515  0.22553  1.0000
  H   H1915     1.0  0.97886  0.30372  0.21530  1.0000
  H   H1916     1.0  0.97253  0.31657  0.29265  1.0000
  H   H1917     1.0  0.97207  0.29568  0.27601  1.0000
  C   C1102     1.0  0.88609  0.48076  0.52345  1.0000
  C   C1103     1.0  0.97720  0.38977  0.87322  1.0000
  H   H1918     1.0  0.96494  0.47126  0.45552  1.0000
  H   H1919     1.0  0.97951  0.41221  0.71258  1.0000
  C   C1104     1.0  0.93574  0.49084  0.54524  1.0000
  H   H1920     1.0  0.88065  0.29478  0.91981  1.0000
  H   H1921     1.0  0.79030  0.38933  0.33795  1.0000
  H   H1922     1.0  0.94861  0.32869  0.25371  1.0000
  H   H1923     1.0  0.94835  0.30805  0.23586  1.0000
  H   H1924     1.0  0.94341  0.31210  0.28266  1.0000
  H   H1925     1.0  0.99171  0.30635  0.07262  1.0000
  H   H1926     1.0  0.85643  0.29021  0.80669  1.0000
  H   H1927     1.0  0.95907  0.40397  0.35119  1.0000
  N   N60       1.0  0.93618  0.25772  0.71630  1.0000
  C   C1105     1.0  0.85049  0.38829  0.29186  1.0000
  C   C1106     1.0  0.84597  0.38755  0.16732  1.0000
  H   H1928     1.0  0.93759  0.40133  0.26928  1.0000
  H   H1929     1.0  0.91276  0.27612  0.71575  1.0000
  C   C1107     1.0  0.89563  0.46680  0.16054  1.0000
  H   H1930     1.0  0.94778  0.36717  0.90395  1.0000
  H   H1931     1.0  0.79104  0.29255  0.89332  1.0000
  H   H1932     1.0  0.83181  0.41197  0.28386  1.0000
  C   C1108     1.0  0.94843  0.35455  0.95614  1.0000
  C   C1109     1.0  0.93947  0.36064  0.92113  1.0000
  H   H1933     1.0  0.79309  0.40212  0.29875  1.0000
  C   C1110     1.0  0.82009  0.30586  0.87981  1.0000
  H   H1934     1.0  0.82221  0.31442  0.81289  1.0000
  H   H1935     1.0  0.97011  0.33559  0.00160  1.0000
  H   H1936     1.0  0.80637  0.28406  0.92719  1.0000
  Fe  Fe132     1.0  0.90009  0.49154  0.35684  1.0000
  H   H1937     1.0  0.96074  0.42595  0.35072  1.0000
  H   H1938     1.0  0.93863  0.30610  0.01024  1.0000
  C   C1111     1.0  0.87979  0.25838  0.28975  1.0000
  C   C1112     1.0  0.96924  0.32251  0.05181  1.0000
  C   C1113     1.0  0.96368  0.48304  0.64728  1.0000
  H   H1939     1.0  0.87311  0.35786  0.30213  1.0000
  H   H1940     1.0  0.91516  0.25742  0.21130  1.0000
  C   C1114     1.0  0.98329  0.40891  0.33157  1.0000
  H   H1941     1.0  0.92352  0.30046  0.06641  1.0000
  C   C1115     1.0  0.84251  0.29303  0.80393  1.0000
  H   H1942     1.0  0.98776  0.26660  0.86597  1.0000
  H   H1943     1.0  0.95886  0.40085  0.25191  1.0000
  H   H1944     1.0  0.94619  0.45409  0.76640  1.0000
  C   C1116     1.0  0.98791  0.45637  0.57289  1.0000
  H   H1945     1.0  0.84914  0.33133  0.86496  1.0000
  C   C1117     1.0  0.80301  0.28353  0.89846  1.0000
  H   H1946     1.0  0.97217  0.33340  0.06656  1.0000
  C   C1118     1.0  0.97440  0.28655  0.89791  1.0000
  N   N61       1.0  0.83590  0.31037  0.86298  1.0000
  C   C1119     1.0  0.83673  0.32823  0.87345  1.0000
  H   H1947     1.0  0.92328  0.28709  0.76076  1.0000
  C   C1120     1.0  0.98387  0.47848  0.32943  1.0000
  N   N62       1.0  0.94164  0.40454  0.80259  1.0000
  C   C1121     1.0  0.95643  0.39396  0.82170  1.0000
  C   C1122     1.0  0.93643  0.39427  0.77280  1.0000
  C   C1123     1.0  0.94701  0.42042  0.78804  1.0000
  C   C1124     1.0  0.92675  0.40948  0.82777  1.0000
  C   C1125     1.0  0.91998  0.39459  0.84647  1.0000
  C   C1126     1.0  0.96135  0.40087  0.85786  1.0000
  C   C1127     1.0  0.93395  0.43208  0.76404  1.0000
  C   C1128     1.0  0.94901  0.39071  0.74063  1.0000
  C   C1129     1.0  0.94225  0.38029  0.71235  1.0000
  C   C1130     1.0  0.90681  0.40094  0.87552  1.0000
  C   C1131     1.0  0.94180  0.44607  0.74600  1.0000
  H   H1948     1.0  0.96788  0.39237  0.80402  1.0000
  H   H1949     1.0  0.95421  0.38087  0.82693  1.0000
  H   H1950     1.0  0.93433  0.38177  0.78340  1.0000
  H   H1951     1.0  0.92401  0.40043  0.76206  1.0000
  H   H1952     1.0  0.95916  0.41726  0.77275  1.0000
  H   H1953     1.0  0.94974  0.42837  0.81042  1.0000
  H   H1954     1.0  0.92966  0.41821  0.84854  1.0000
  H   H1955     1.0  0.91587  0.41688  0.81299  1.0000
  H   H1956     1.0  0.93018  0.38545  0.85938  1.0000
  H   H1957     1.0  0.91386  0.38771  0.82652  1.0000
  H   H1958     1.0  0.96395  0.41385  0.85440  1.0000
  H   H1959     1.0  0.95109  0.40112  0.87828  1.0000
  H   H1960     1.0  0.92295  0.43820  0.78047  1.0000
  H   H1961     1.0  0.92915  0.42514  0.74233  1.0000
  H   H1962     1.0  0.95109  0.40256  0.72713  1.0000
  H   H1963     1.0  0.96139  0.38365  0.74967  1.0000
  H   H1964     1.0  0.83938  0.35033  0.27370  1.0000
  H   H1965     1.0  0.95187  0.37701  0.69063  1.0000
  H   H1966     1.0  0.91265  0.40695  0.89739  1.0000
  H   H1967     1.0  0.89623  0.41024  0.86397  1.0000
  H   H1968     1.0  0.00018  0.26187  0.29035  1.0000
  H   H1969     1.0  0.81972  0.30826  0.90922  1.0000
  C   C1132     1.0  0.85325  0.29712  0.91829  1.0000
  H   H1970     1.0  0.96101  0.31581  0.06877  1.0000
  C   C1133     1.0  0.93405  0.27268  0.21937  1.0000
  H   H1971     1.0  0.85066  0.41014  0.25602  1.0000
  C   C1134     1.0  0.92296  0.27036  0.69690  1.0000
  H   H1972     1.0  0.91303  0.29465  0.02747  1.0000
  H   H1973     1.0  0.00021  0.28268  0.23993  1.0000
  H   H1974     1.0  0.93660  0.34979  0.90610  1.0000
  H   H1975     1.0  0.93547  0.29530  0.18757  1.0000
  C   C1135     1.0  0.98725  0.41882  0.69394  1.0000
  H   H1976     1.0  0.86121  0.37747  0.22970  1.0000
  H   H1977     1.0  0.90156  0.39016  0.88723  1.0000
  H   H1978     1.0  0.98352  0.43477  0.27310  1.0000
  H   H1979     1.0  0.94220  0.27598  0.16377  1.0000
  H   H1980     1.0  0.84315  0.35889  0.31590  1.0000
  S   S259      1.0  0.95273  0.46644  0.65508  1.0000
  H   H1981     1.0  0.93020  0.43166  0.24513  1.0000
  H   H1982     1.0  0.78942  0.38076  0.29384  1.0000
  H   H1983     1.0  0.99769  0.35487  0.14059  1.0000
  H   H1984     1.0  0.95771  0.41236  0.66402  1.0000
  C   C1136     1.0  0.94036  0.42223  0.23260  1.0000
  C   C1137     1.0  0.93090  0.33086  0.03621  1.0000
  H   H1985     1.0  0.84446  0.30401  0.75024  1.0000
  H   H1986     1.0  0.93056  0.38763  0.70034  1.0000
  C   C1138     1.0  0.82275  0.38155  0.27306  1.0000
  S   S260      1.0  0.90718  0.45808  0.65211  1.0000
  H   H1987     1.0  0.84773  0.41672  0.33705  1.0000
  H   H1988     1.0  0.96931  0.47807  0.56041  1.0000
  C   C1139     1.0  0.96771  0.41293  0.35616  1.0000
  H   H1989     1.0  0.94126  0.48496  0.57057  1.0000
  H   H1990     1.0  0.99355  0.35160  0.85139  1.0000
  H   H1991     1.0  0.90526  0.25502  0.67653  1.0000
  H   H1992     1.0  0.90441  0.31385  0.05035  1.0000
  H   H1993     1.0  0.83599  0.32961  0.90311  1.0000
  H   H1994     1.0  0.99011  0.47121  0.30731  1.0000
  H   H1995     1.0  0.93217  0.45414  0.72915  1.0000
  Fe  Fe133     1.0  0.92478  0.47620  0.65863  1.0000
  H   H1996     1.0  0.95081  0.42876  0.22417  1.0000
  N   N63       1.0  0.94371  0.33975  0.01745  1.0000
  H   H1997     1.0  0.92441  0.35087  0.97997  1.0000
  H   H1998     1.0  0.97998  0.46800  0.52210  1.0000
  H   H1999     1.0  0.93929  0.36841  0.72444  1.0000
  S   S261      1.0  0.88262  0.45342  0.25849  1.0000
  H   H2000     1.0  0.81594  0.36986  0.85799  1.0000
  H   H2001     1.0  0.88023  0.45971  0.49451  1.0000
  H   H2002     1.0  0.88781  0.39570  0.12288  1.0000
  C   C1140     1.0  0.84658  0.35906  0.28684  1.0000
  H   H2003     1.0  0.99866  0.31925  0.29760  1.0000
  H   H2004     1.0  0.94983  0.25844  0.66540  1.0000
  H   H2005     1.0  0.98829  0.43458  0.33173  1.0000
  H   H2006     1.0  0.95076  0.36587  0.97017  1.0000
  C   C1141     1.0  0.96813  0.47572  0.34214  1.0000
  H   H2007     1.0  0.99434  0.44438  0.56070  1.0000
  H   H2008     1.0  0.84299  0.31906  0.81017  1.0000
  H   H2009     1.0  0.85107  0.43127  0.30119  1.0000
  H   H2010     1.0  0.92871  0.28103  0.68592  1.0000
  H   H2011     1.0  0.92278  0.25599  0.64650  1.0000
  H   H2012     1.0  0.98724  0.41563  0.81224  1.0000
  H   H2013     1.0  0.86222  0.32493  0.28008  1.0000
  C   C1142     1.0  0.91633  0.30545  0.04205  1.0000
  H   H2014     1.0  0.98794  0.39810  0.65595  1.0000
  H   H2015     1.0  0.98789  0.38850  0.85351  1.0000
  C   C1143     1.0  0.82285  0.34248  0.85806  1.0000
  H   H2016     1.0  0.98620  0.34435  0.25699  1.0000
  H   H2017     1.0  0.81016  0.34121  0.86862  1.0000
  H   H2018     1.0  0.80867  0.31425  0.86904  1.0000
  S   S262      1.0  0.90943  0.46418  0.34356  1.0000
  H   H2019     1.0  0.84375  0.28988  0.92921  1.0000
  H   H2020     1.0  0.95005  0.41583  0.28581  1.0000
  H   H2021     1.0  0.92747  0.36955  0.92670  1.0000
  H   H2022     1.0  0.88247  0.32740  0.29688  1.0000
  H   H2023     1.0  0.88511  0.46239  0.17546  1.0000
  C   C1144     1.0  0.88766  0.47831  0.45785  1.0000
  C   C1145     1.0  0.90299  0.27771  0.64439  1.0000
  H   H2024     1.0  0.96083  0.34672  0.94883  1.0000
  C   C1146     1.0  0.99567  0.43179  0.25800  1.0000
  C   C1147     1.0  0.93283  0.27683  0.77258  1.0000
  H   H2025     1.0  0.93774  0.33230  0.96405  1.0000
  H   H2026     1.0  0.96080  0.31754  0.99853  1.0000
  H   H2027     1.0  0.86312  0.30381  0.86597  1.0000
  C   C1148     1.0  0.92693  0.31502  0.01756  1.0000
  H   H2028     1.0  0.91949  0.31879  0.99287  1.0000
  H   H2029     1.0  0.98654  0.41422  0.12865  1.0000
  H   H2030     1.0  0.99501  0.31653  0.03015  1.0000
  H   H2031     1.0  0.99278  0.41688  0.63525  1.0000
  C   C1149     1.0  0.94302  0.28510  0.79897  1.0000
  S   S263      1.0  0.87657  0.49044  0.66785  1.0000
  C   C1150     1.0  0.94713  0.40918  0.26160  1.0000
  C   C1151     1.0  0.93777  0.34399  0.97945  1.0000
  C   C1152     1.0  0.99578  0.43063  0.76852  1.0000
  S   S264      1.0  0.95808  0.46109  0.32122  1.0000
  H   H2032     1.0  0.81339  0.28637  0.84590  1.0000
  H   H2033     1.0  0.98106  0.39548  0.89792  1.0000
  C   C1153     1.0  0.98474  0.41209  0.65597  1.0000
  C   C1154     1.0  0.82603  0.35982  0.86887  1.0000
  H   H2034     1.0  0.89394  0.28583  0.66241  1.0000
  H   H2035     1.0  0.99745  0.46444  0.57737  1.0000
  C   C1155     1.0  0.88429  0.47177  0.49219  1.0000
  S   S265      1.0  0.91865  0.47835  0.26199  1.0000
  H   H2036     1.0  0.82603  0.36079  0.89863  1.0000
  H   H2037     1.0  0.82265  0.34241  0.82826  1.0000
  C   C1156     1.0  0.95997  0.48535  0.37035  1.0000
  H   H2038     1.0  0.99256  0.49256  0.49697  1.0000
  C   C1157     1.0  0.92911  0.25509  0.21523  1.0000
  Fe  Fe134     1.0  0.89632  0.47065  0.29054  1.0000
  H   H2039     1.0  0.98928  0.31015  0.73055  1.0000
  H   H2040     1.0  0.85310  0.28608  0.86689  1.0000
  H   H2041     1.0  0.85129  0.30939  0.93194  1.0000
  C   C1158     1.0  0.87075  0.28755  0.92875  1.0000
  H   H2042     1.0  0.83841  0.36201  0.85791  1.0000
  C   C1159     1.0  0.83539  0.31002  0.82231  1.0000
  C   C1160     1.0  0.85175  0.29914  0.87678  1.0000
  H   H2043     1.0  0.85899  0.39023  0.16840  1.0000
  Fe  Fe135     1.0  0.89383  0.47050  0.70051  1.0000
  H   H2044     1.0  0.95469  0.48494  0.50302  1.0000
  H   H2045     1.0  0.89658  0.40985  0.09298  1.0000
  Fe  Fe136     1.0  0.93088  0.47359  0.31562  1.0000
  H   H2046     1.0  0.96273  0.43100  0.64159  1.0000
  H   H2047     1.0  0.97143  0.41166  0.38481  1.0000
  H   H2048     1.0  0.90188  0.47442  0.17882  1.0000
  H   H2049     1.0  0.84735  0.36338  0.22053  1.0000
  H   H2050     1.0  0.83854  0.39693  0.14869  1.0000
  H   H2051     1.0  0.97466  0.37702  0.88044  1.0000
  H   H2052     1.0  0.84650  0.37477  0.15624  1.0000
  S   S266      1.0  0.91282  0.48743  0.70946  1.0000
  C   C1161     1.0  0.81726  0.28764  0.87405  1.0000
  H   H2053     1.0  0.96304  0.28766  0.88089  1.0000
  C   C1162     1.0  0.81479  0.38241  0.31146  1.0000
  H   H2054     1.0  0.86442  0.38502  0.28773  1.0000
  H   H2055     1.0  0.84427  0.28171  0.75133  1.0000
  C   C1163     1.0  0.83754  0.38875  0.20461  1.0000
  C   C1164     1.0  0.93284  0.28245  0.18355  1.0000
  H   H2056     1.0  0.99836  0.42115  0.36594  1.0000
  H   H2057     1.0  0.93413  0.26186  0.28593  1.0000
  H   H2058     1.0  0.98303  0.29131  0.82662  1.0000
  H   H2059     1.0  0.93437  0.29173  0.81984  1.0000
  H   H2060     1.0  0.81689  0.37247  0.25757  1.0000
  S   S267      1.0  0.88155  0.47218  0.56610  1.0000
  S   S268      1.0  0.98996  0.38165  0.19183  1.0000
  H   H2061     1.0  0.84179  0.48310  0.57510  1.0000
  H   H2062     1.0  0.94796  0.48302  0.38075  1.0000
  C   C1165     1.0  0.98985  0.49384  0.64720  1.0000
  C   C1166     1.0  0.94451  0.26731  0.74303  1.0000
  H   H2063     1.0  0.95263  0.27548  0.81262  1.0000
  H   H2064     1.0  0.91376  0.25760  0.27721  1.0000
  H   H2065     1.0  0.95076  0.27680  0.72846  1.0000
  H   H2066     1.0  0.94938  0.29457  0.78488  1.0000
  C   C1167     1.0  0.89239  0.49413  0.45443  1.0000
  H   H2067     1.0  0.97338  0.25495  0.70592  1.0000
  C   C1168     1.0  0.99411  0.42629  0.80845  1.0000
  H   H2068     1.0  0.99477  0.33031  0.73984  1.0000
  H   H2069     1.0  0.92196  0.49124  0.54723  1.0000
  H   H2070     1.0  0.80090  0.27057  0.89306  1.0000
  S   S269      1.0  0.91026  0.49613  0.62258  1.0000
  C   C1169     1.0  0.99105  0.49143  0.34375  1.0000
  C   C1170     1.0  0.98598  0.31031  0.04611  1.0000
  H   H2071     1.0  0.93452  0.24988  0.18938  1.0000
  C   C1171     1.0  0.83519  0.49645  0.57683  1.0000
  S   S270      1.0  0.88499  0.49768  0.30572  1.0000
  H   H2072     1.0  0.97267  0.27833  0.92153  1.0000
  H   H2073     1.0  0.99312  0.30346  0.85546  1.0000
  H   H2074     1.0  0.99512  0.29187  0.30877  1.0000
  C   C1172     1.0  0.94896  0.24955  0.68850  1.0000
  H   H2075     1.0  0.91670  0.25092  0.75159  1.0000
  H   H2076     1.0  0.98287  0.43887  0.20780  1.0000
  H   H2077     1.0  0.82661  0.49758  0.60073  1.0000
  C   C1173     1.0  0.92451  0.25071  0.34856  1.0000
  H   H2078     1.0  0.98703  0.43744  0.82269  1.0000
  H   H2079     1.0  0.95480  0.25881  0.75737  1.0000
  C   C1174     1.0  0.99904  0.31643  0.74233  1.0000
  H   H2080     1.0  0.99898  0.38417  0.70650  1.0000
  H   H2081     1.0  0.98390  0.29886  0.03207  1.0000
  C   C1175     1.0  0.88051  0.25067  0.73530  1.0000
  H   H2082     1.0  0.99279  0.47918  0.42698  1.0000
  H   H2083     1.0  0.91169  0.25869  0.34720  1.0000
  C   C1176     1.0  0.92721  0.25147  0.28031  1.0000
  N   N64       1.0  0.00038  0.30948  0.24331  1.0000
  C   C1177     1.0  0.99991  0.34051  0.26223  1.0000
  H   H2084     1.0  0.00077  0.27576  0.89550  1.0000
  H   H2085     1.0  0.00078  0.36467  0.28590  1.0000
  C   C1178     1.0  0.89415  0.50311  0.48571  1.0000
  H   H2086     1.0  0.96170  0.53467  0.55953  1.0000
  S   S271      1.0  0.91468  0.52697  0.24555  1.0000
  H   H2087     1.0  0.87461  0.52243  0.58017  1.0000
  C   C1179     1.0  0.93343  0.72890  0.63102  1.0000
  H   H2088     1.0  0.94999  0.62547  0.12260  1.0000
  C   C1180     1.0  0.81719  0.58039  0.59077  1.0000
  H   H2089     1.0  0.84059  0.51685  0.65391  1.0000
  H   H2090     1.0  0.93908  0.50428  0.75738  1.0000
  C   C1181     1.0  0.98261  0.50143  0.37114  1.0000
  C   C1182     1.0  0.98018  0.61706  0.16038  1.0000
  H   H2091     1.0  0.95167  0.50823  0.26162  1.0000
  H   H2092     1.0  0.98884  0.50678  0.46059  1.0000
  H   H2093     1.0  0.94453  0.71196  0.27895  1.0000
  N   N65       1.0  0.92921  0.72076  0.17193  1.0000
  C   C1183     1.0  0.98157  0.50912  0.63210  1.0000
  H   H2094     1.0  0.93323  0.51535  0.51774  1.0000
  H   H2095     1.0  0.95240  0.54826  0.52331  1.0000
  C   C1184     1.0  0.97745  0.56392  0.69390  1.0000
  S   S272      1.0  0.89372  0.53518  0.67420  1.0000
  H   H2096     1.0  0.89003  0.55062  0.15062  1.0000
  C   C1185     1.0  0.92398  0.70573  0.15460  1.0000
  Fe  Fe137     1.0  0.89299  0.62616  0.19883  1.0000
  S   S273      1.0  0.91911  0.62124  0.17507  1.0000
  S   S274      1.0  0.87987  0.60398  0.21396  1.0000
  Fe  Fe138     1.0  0.89040  0.66509  0.19204  1.0000
  S   S275      1.0  0.91609  0.66202  0.16648  1.0000
  S   S276      1.0  0.87751  0.69289  0.19568  1.0000
  Fe  Fe139     1.0  0.90901  0.64131  0.13389  1.0000
  S   S277      1.0  0.91868  0.63507  0.07673  1.0000
  Fe  Fe140     1.0  0.92353  0.64230  0.20933  1.0000
  S   S278      1.0  0.94741  0.64137  0.24002  1.0000
  S   S279      1.0  0.88250  0.64554  0.15607  1.0000
  S   S280      1.0  0.89815  0.64612  0.23689  1.0000
  Fe  Fe141     1.0  0.90151  0.61194  0.81154  1.0000
  S   S281      1.0  0.91433  0.61436  0.86412  1.0000
  S   S282      1.0  0.89762  0.58465  0.80473  1.0000
  Fe  Fe142     1.0  0.90058  0.64989  0.79211  1.0000
  S   S283      1.0  0.91341  0.65461  0.84299  1.0000
  S   S284      1.0  0.89307  0.66989  0.74729  1.0000
  Fe  Fe143     1.0  0.93010  0.62965  0.83237  1.0000
  S   S285      1.0  0.95815  0.62402  0.83921  1.0000
  Fe  Fe144     1.0  0.89652  0.63888  0.87110  1.0000
  S   S286      1.0  0.88297  0.64711  0.92405  1.0000
  S   S287      1.0  0.91881  0.62576  0.77931  1.0000
  S   S288      1.0  0.88215  0.63573  0.82081  1.0000
  C   C1186     1.0  0.96721  0.64143  0.82673  1.0000
  C   C1187     1.0  0.98239  0.63892  0.80712  1.0000
  C   C1188     1.0  0.95980  0.65769  0.83751  1.0000
  C   C1189     1.0  0.98425  0.69974  0.67464  1.0000
  H   H2097     1.0  0.94813  0.65963  0.85294  1.0000
  C   C1190     1.0  0.95931  0.65418  0.21629  1.0000
  C   C1191     1.0  0.95767  0.65611  0.17906  1.0000
  C   C1192     1.0  0.97045  0.66245  0.23421  1.0000
  H   H2098     1.0  0.94969  0.64917  0.16493  1.0000
  C   C1193     1.0  0.85494  0.53596  0.63378  1.0000
  C   C1194     1.0  0.90840  0.63895  0.03474  1.0000
  C   C1195     1.0  0.89178  0.64777  0.03164  1.0000
  C   C1196     1.0  0.88416  0.65024  0.99757  1.0000
  C   C1197     1.0  0.89308  0.64397  0.96633  1.0000
  C   C1198     1.0  0.90971  0.63523  0.96948  1.0000
  C   C1199     1.0  0.91729  0.63274  0.00349  1.0000
  H   H2099     1.0  0.88480  0.65264  0.05545  1.0000
  H   H2100     1.0  0.87128  0.65698  0.99542  1.0000
  H   H2101     1.0  0.91668  0.63028  0.94572  1.0000
  H   H2102     1.0  0.93014  0.62588  0.00558  1.0000
  C   C1200     1.0  0.88212  0.70778  0.22709  1.0000
  C   C1201     1.0  0.87605  0.72514  0.22090  1.0000
  H   H2103     1.0  0.86875  0.72918  0.19711  1.0000
  C   C1202     1.0  0.89596  0.69130  0.74341  1.0000
  C   C1203     1.0  0.89213  0.70036  0.71084  1.0000
  H   H2104     1.0  0.88742  0.69420  0.68866  1.0000
  H   H2105     1.0  0.99681  0.70857  0.22067  1.0000
  S   S289      1.0  0.89543  0.50370  0.41200  1.0000
  H   H2106     1.0  0.98851  0.51186  0.54465  1.0000
  C   C1204     1.0  0.92018  0.70768  0.11364  1.0000
  H   H2107     1.0  0.94998  0.69970  0.66190  1.0000
  H   H2108     1.0  0.95769  0.52343  0.61495  1.0000
  C   C1205     1.0  0.89539  0.54862  0.71077  1.0000
  C   C1206     1.0  0.89399  0.56609  0.70405  1.0000
  C   C1207     1.0  0.89508  0.57728  0.73223  1.0000
  C   C1208     1.0  0.89726  0.57115  0.76763  1.0000
  C   C1209     1.0  0.89877  0.55366  0.77424  1.0000
  C   C1210     1.0  0.89798  0.54243  0.74600  1.0000
  H   H2109     1.0  0.89196  0.57104  0.67692  1.0000
  H   H2110     1.0  0.89383  0.59069  0.72672  1.0000
  H   H2111     1.0  0.90042  0.54877  0.80153  1.0000
  H   H2112     1.0  0.89906  0.52905  0.75165  1.0000
  H   H2113     1.0  0.93635  0.72229  0.81498  1.0000
  H   H2114     1.0  0.94346  0.65120  0.96670  1.0000
  H   H2115     1.0  0.98480  0.62920  0.15736  1.0000
  H   H2116     1.0  0.96932  0.56545  0.77530  1.0000
  C   C1211     1.0  0.98717  0.58742  0.18493  1.0000
  C   C1212     1.0  0.97558  0.53121  0.50860  1.0000
  C   C1213     1.0  0.95870  0.71586  0.78058  1.0000
  C   C1214     1.0  0.85567  0.68937  0.84271  1.0000
  H   H2117     1.0  0.98567  0.57971  0.32630  1.0000
  H   H2118     1.0  0.80494  0.58472  0.60498  1.0000
  C   C1215     1.0  0.97821  0.55500  0.33131  1.0000
  H   H2119     1.0  0.84523  0.68434  0.98127  1.0000
  C   C1216     1.0  0.94274  0.70196  0.22528  1.0000
  H   H2120     1.0  0.90770  0.74709  0.21590  1.0000
  C   C1217     1.0  0.91591  0.73619  0.16339  1.0000
  C   C1218     1.0  0.98024  0.67233  0.21464  1.0000
  C   C1219     1.0  0.90456  0.54828  0.23708  1.0000
  C   C1220     1.0  0.88772  0.55441  0.24690  1.0000
  C   C1221     1.0  0.88031  0.57140  0.23919  1.0000
  C   C1222     1.0  0.88973  0.58259  0.22247  1.0000
  C   C1223     1.0  0.90661  0.57646  0.21282  1.0000
  C   C1224     1.0  0.91385  0.55937  0.21954  1.0000
  H   H2121     1.0  0.88035  0.54605  0.26018  1.0000
  H   H2122     1.0  0.86725  0.57597  0.24675  1.0000
  H   H2123     1.0  0.91408  0.58488  0.20020  1.0000
  H   H2124     1.0  0.92681  0.55475  0.21140  1.0000
  H   H2125     1.0  0.97048  0.73710  0.26210  1.0000
  H   H2126     1.0  0.94905  0.73146  0.73572  1.0000
  N   N66       1.0  0.95336  0.54967  0.72103  1.0000
  H   H2127     1.0  0.88278  0.58044  0.13126  1.0000
  C   C1225     1.0  0.89452  0.72429  0.43019  1.0000
  H   H2128     1.0  0.85418  0.63010  0.13067  1.0000
  C   C1226     1.0  0.86147  0.69325  0.91909  1.0000
  H   H2129     1.0  0.86256  0.71388  0.95664  1.0000
  H   H2130     1.0  0.95902  0.62141  0.07837  1.0000
  C   C1227     1.0  0.95847  0.68804  0.72621  1.0000
  H   H2131     1.0  0.85061  0.56552  0.59477  1.0000
  H   H2132     1.0  0.88742  0.58601  0.96559  1.0000
  H   H2133     1.0  0.86486  0.53484  0.54356  1.0000
  C   C1228     1.0  0.83986  0.52680  0.58101  1.0000
  H   H2134     1.0  0.95579  0.70330  0.21732  1.0000
  C   C1229     1.0  0.94216  0.68320  0.74289  1.0000
  C   C1230     1.0  0.94364  0.66406  0.74635  1.0000
  N   N67       1.0  0.89245  0.74320  0.43329  1.0000
  H   H2135     1.0  0.83568  0.53046  0.55306  1.0000
  H   H2136     1.0  0.81474  0.58015  0.56150  1.0000
  C   C1231     1.0  0.82518  0.56279  0.60477  1.0000
  C   C1232     1.0  0.84135  0.53022  0.65892  1.0000
  H   H2137     1.0  0.96207  0.67971  0.70279  1.0000
  H   H2138     1.0  0.96884  0.68409  0.74573  1.0000
  H   H2139     1.0  0.94686  0.51713  0.69947  1.0000
  H   H2140     1.0  0.88559  0.60825  0.95580  1.0000
  H   H2141     1.0  0.94203  0.50063  0.62880  1.0000
  H   H2142     1.0  0.00003  0.74453  0.31343  1.0000
  H   H2143     1.0  0.91061  0.60035  0.06836  1.0000
  H   H2144     1.0  0.97104  0.55241  0.54507  1.0000
  H   H2145     1.0  0.93399  0.69426  0.15761  1.0000
  N   N68       1.0  0.99270  0.60431  0.18108  1.0000
  H   H2146     1.0  0.85779  0.61520  0.05516  1.0000
  H   H2147     1.0  0.92457  0.68081  0.10202  1.0000
  H   H2148     1.0  0.93971  0.68851  0.77015  1.0000
  H   H2149     1.0  0.93102  0.68795  0.72612  1.0000
  H   H2150     1.0  0.93262  0.66103  0.76190  1.0000
  H   H2151     1.0  0.94375  0.65841  0.71937  1.0000
  H   H2152     1.0  0.95536  0.65829  0.76046  1.0000
  H   H2153     1.0  0.95341  0.55593  0.79851  1.0000
  H   H2154     1.0  0.94301  0.74704  0.29067  1.0000
  H   H2155     1.0  0.99042  0.56662  0.28703  1.0000
  C   C1233     1.0  0.93874  0.50898  0.54273  1.0000
  C   C1234     1.0  0.92980  0.71745  0.21202  1.0000
  H   H2156     1.0  0.82689  0.56383  0.63412  1.0000
  H   H2157     1.0  0.86803  0.71920  0.82606  1.0000
  H   H2158     1.0  0.93767  0.58548  0.14608  1.0000
  N   N69       1.0  0.85092  0.53855  0.59425  1.0000
  C   C1235     1.0  0.87353  0.68749  0.85921  1.0000
  C   C1236     1.0  0.90712  0.69587  0.88659  1.0000
  C   C1237     1.0  0.92369  0.68760  0.90422  1.0000
  C   C1238     1.0  0.99033  0.65260  0.79869  1.0000
  H   H2159     1.0  0.87783  0.67378  0.86534  1.0000
  H   H2160     1.0  0.88242  0.69038  0.83790  1.0000
  C   C1239     1.0  0.96258  0.51484  0.25814  1.0000
  H   H2161     1.0  0.88932  0.71722  0.84031  1.0000
  H   H2162     1.0  0.90728  0.69090  0.85915  1.0000
  H   H2163     1.0  0.90704  0.70966  0.88498  1.0000
  H   H2164     1.0  0.93457  0.69001  0.88737  1.0000
  H   H2165     1.0  0.92469  0.69280  0.93133  1.0000
  H   H2166     1.0  0.92440  0.67373  0.90681  1.0000
  S   S290      1.0  0.99265  0.52531  0.62141  1.0000
  C   C1240     1.0  0.93612  0.74949  0.39209  1.0000
  H   H2167     1.0  0.97915  0.55457  0.36105  1.0000
  C   C1241     1.0  0.95119  0.53414  0.74292  1.0000
  C   C1242     1.0  0.95519  0.51707  0.72291  1.0000
  H   H2168     1.0  0.96084  0.50566  0.40653  1.0000
  H   H2169     1.0  0.93285  0.56521  0.74975  1.0000
  H   H2170     1.0  0.93164  0.54436  0.69262  1.0000
  H   H2171     1.0  0.93793  0.53558  0.75353  1.0000
  H   H2172     1.0  0.95945  0.53261  0.76687  1.0000
  H   H2173     1.0  0.99513  0.72270  0.27923  1.0000
  H   H2174     1.0  0.98085  0.72380  0.16810  1.0000
  C   C1243     1.0  0.96429  0.51148  0.62547  1.0000
  H   H2175     1.0  0.99662  0.73960  0.21630  1.0000
  H   H2176     1.0  0.96101  0.50113  0.77087  1.0000
  C   C1244     1.0  0.94535  0.72709  0.66300  1.0000
  H   H2177     1.0  0.91848  0.55768  0.63536  1.0000
  H   H2178     1.0  0.84358  0.68479  0.79310  1.0000
  C   C1245     1.0  0.90056  0.72542  0.73502  1.0000
  C   C1246     1.0  0.84621  0.69793  0.97947  1.0000
  H   H2179     1.0  0.87031  0.54918  0.12928  1.0000
  H   H2180     1.0  0.97312  0.56515  0.66570  1.0000
  H   H2181     1.0  0.88029  0.55108  0.60656  1.0000
  H   H2182     1.0  0.94949  0.63206  0.94166  1.0000
  H   H2183     1.0  0.92619  0.57457  0.68609  1.0000
  C   C1247     1.0  0.89439  0.71495  0.28283  1.0000
  H   H2184     1.0  0.88931  0.53430  0.11868  1.0000
  H   H2185     1.0  0.85691  0.72162  0.88753  1.0000
  C   C1248     1.0  0.94215  0.70029  0.26628  1.0000
  C   C1249     1.0  0.89170  0.69234  0.90896  1.0000
  H   H2186     1.0  0.86340  0.67079  0.80105  1.0000
  Fe  Fe145     1.0  0.90848  0.50485  0.28042  1.0000
  H   H2187     1.0  0.90146  0.71088  0.30685  1.0000
  H   H2188     1.0  0.89249  0.69892  0.93460  1.0000
  C   C1250     1.0  0.88422  0.54768  0.12517  1.0000
  N   N70       1.0  0.87447  0.69771  0.89242  1.0000
  H   H2189     1.0  0.97311  0.73525  0.12765  1.0000
  H   H2190     1.0  0.85572  0.50397  0.60470  1.0000
  H   H2191     1.0  0.85853  0.52372  0.70401  1.0000
  Fe  Fe146     1.0  0.89685  0.50635  0.67328  1.0000
  H   H2192     1.0  0.89172  0.72394  0.68118  1.0000
  H   H2193     1.0  0.83638  0.52660  0.71591  1.0000
  H   H2194     1.0  0.95197  0.68957  0.27537  1.0000
  H   H2195     1.0  0.93977  0.57704  0.10140  1.0000
  H   H2196     1.0  0.96806  0.62024  0.17577  1.0000
  H   H2197     1.0  0.94541  0.72522  0.12703  1.0000
  H   H2198     1.0  0.96491  0.63790  0.10454  1.0000
  H   H2199     1.0  0.97185  0.65785  0.95922  1.0000
  H   H2200     1.0  0.82559  0.58959  0.59568  1.0000
  H   H2201     1.0  0.96826  0.52203  0.49798  1.0000
  S   S291      1.0  0.99100  0.51821  0.38793  1.0000
  H   H2202     1.0  0.96854  0.51434  0.71335  1.0000
  N   N71       1.0  0.95729  0.70634  0.71483  1.0000
  H   H2203     1.0  0.93287  0.70889  0.68971  1.0000
  H   H2204     1.0  0.99464  0.68970  0.93451  1.0000
  H   H2205     1.0  0.90876  0.72259  0.78991  1.0000
  H   H2206     1.0  0.90289  0.52941  0.58083  1.0000
  H   H2207     1.0  0.97638  0.53764  0.69387  1.0000
  S   S292      1.0  0.90480  0.74640  0.73123  1.0000
  C   C1251     1.0  0.87446  0.74195  0.84552  1.0000
  H   H2208     1.0  0.82798  0.52787  0.59705  1.0000
  H   H2209     1.0  0.95537  0.71034  0.15886  1.0000
  H   H2210     1.0  0.93161  0.70932  0.09790  1.0000
  H   H2211     1.0  0.96373  0.52550  0.32704  1.0000
  H   H2212     1.0  0.95509  0.58347  0.82371  1.0000
  H   H2213     1.0  0.90172  0.60067  0.01099  1.0000
  C   C1252     1.0  0.94617  0.70967  0.68221  1.0000
  H   H2214     1.0  0.93266  0.72840  0.22660  1.0000
  H   H2215     1.0  0.93276  0.51611  0.56624  1.0000
  H   H2216     1.0  0.00034  0.57340  0.67948  1.0000
  H   H2217     1.0  0.93866  0.55865  0.61374  1.0000
  C   C1253     1.0  0.87073  0.71656  0.88496  1.0000
  C   C1254     1.0  0.99902  0.50062  0.47890  1.0000
  H   H2218     1.0  0.87664  0.72322  0.90578  1.0000
  S   S293      1.0  0.99009  0.68682  0.15269  1.0000
  C   C1255     1.0  0.88092  0.57801  0.10231  1.0000
  H   H2219     1.0  0.88295  0.55542  0.06946  1.0000
  H   H2220     1.0  0.81608  0.55432  0.60000  1.0000
  H   H2221     1.0  0.96275  0.68368  0.84001  1.0000
  H   H2222     1.0  0.94682  0.57685  0.72828  1.0000
  C   C1256     1.0  0.90406  0.71645  0.76774  1.0000
  H   H2223     1.0  0.88392  0.71967  0.44442  1.0000
  H   H2224     1.0  0.86273  0.67929  0.92200  1.0000
  H   H2225     1.0  0.93315  0.74133  0.61731  1.0000
  H   H2226     1.0  0.84866  0.70256  0.84393  1.0000
  H   H2227     1.0  0.94940  0.74326  0.39706  1.0000
  H   H2228     1.0  0.89774  0.51539  0.48330  1.0000
  H   H2229     1.0  0.93487  0.58428  0.80311  1.0000
  S   S294      1.0  0.89252  0.74693  0.30914  1.0000
  H   H2230     1.0  0.90923  0.69240  0.40450  1.0000
  H   H2231     1.0  0.97786  0.74656  0.16616  1.0000
  C   C1257     1.0  0.96966  0.58756  0.20344  1.0000
  C   C1258     1.0  0.88097  0.74340  0.49904  1.0000
  H   H2232     1.0  0.97481  0.56090  0.21935  1.0000
  C   C1259     1.0  0.99671  0.56202  0.69245  1.0000
  H   H2233     1.0  0.95797  0.72874  0.65272  1.0000
  C   C1260     1.0  0.94848  0.72663  0.80950  1.0000
  H   H2234     1.0  0.93613  0.71692  0.74885  1.0000
  H   H2235     1.0  0.98882  0.63449  0.27232  1.0000
  C   C1261     1.0  0.95456  0.73668  0.17171  1.0000
  H   H2236     1.0  0.94047  0.73754  0.68142  1.0000
  H   H2237     1.0  0.95251  0.50900  0.54322  1.0000
  H   H2238     1.0  0.98450  0.66845  0.89731  1.0000
  H   H2239     1.0  0.89698  0.74271  0.54616  1.0000
  H   H2240     1.0  0.92658  0.72822  0.41372  1.0000
  H   H2241     1.0  0.84819  0.68119  0.85801  1.0000
  C   C1262     1.0  0.94951  0.71806  0.74410  1.0000
  H   H2242     1.0  0.96067  0.70262  0.79020  1.0000
  C   C1263     1.0  0.95241  0.50237  0.74755  1.0000
  S   S295      1.0  0.92263  0.50031  0.33193  1.0000
  C   C1264     1.0  0.94628  0.72254  0.15640  1.0000
  C   C1265     1.0  0.91440  0.69212  0.09918  1.0000
  H   H2243     1.0  0.97119  0.71980  0.77808  1.0000
  H   H2244     1.0  0.98910  0.67848  0.22835  1.0000
  H   H2245     1.0  0.88643  0.69412  0.40631  1.0000
  N   N72       1.0  0.94730  0.55006  0.32853  1.0000
  C   C1266     1.0  0.95294  0.53296  0.31209  1.0000
  C   C1267     1.0  0.94617  0.54772  0.36878  1.0000
  C   C1268     1.0  0.93037  0.55796  0.31316  1.0000
  C   C1269     1.0  0.95968  0.56162  0.31996  1.0000
  H   H2246     1.0  0.95577  0.72538  0.83480  1.0000
  C   C1270     1.0  0.95802  0.53291  0.27171  1.0000
  C   C1271     1.0  0.92090  0.57397  0.33242  1.0000
  C   C1272     1.0  0.93307  0.53702  0.38250  1.0000
  C   C1273     1.0  0.93172  0.53691  0.42354  1.0000
  C   C1274     1.0  0.97622  0.61230  0.12183  1.0000
  C   C1275     1.0  0.90466  0.58167  0.31306  1.0000
  H   H2247     1.0  0.94270  0.52544  0.31469  1.0000
  H   H2248     1.0  0.89250  0.50346  0.54373  1.0000
  H   H2249     1.0  0.95855  0.54121  0.37937  1.0000
  H   H2250     1.0  0.94362  0.56015  0.38221  1.0000
  H   H2251     1.0  0.92170  0.54865  0.31273  1.0000
  H   H2252     1.0  0.93187  0.56158  0.28441  1.0000
  H   H2253     1.0  0.95959  0.56492  0.29073  1.0000
  H   H2254     1.0  0.95577  0.57388  0.33358  1.0000
  H   H2255     1.0  0.89735  0.69376  0.36360  1.0000
  H   H2256     1.0  0.97727  0.70294  0.64925  1.0000
  H   H2257     1.0  0.94748  0.53976  0.25531  1.0000
  C   C1276     1.0  0.85655  0.68401  0.80351  1.0000
  H   H2258     1.0  0.92878  0.58387  0.33337  1.0000
  H   H2259     1.0  0.91728  0.57090  0.36034  1.0000
  H   H2260     1.0  0.92026  0.54178  0.37187  1.0000
  H   H2261     1.0  0.93702  0.52376  0.37417  1.0000
  H   H2262     1.0  0.94423  0.53197  0.43558  1.0000
  H   H2263     1.0  0.92689  0.54985  0.43331  1.0000
  H   H2264     1.0  0.92274  0.52861  0.43247  1.0000
  H   H2265     1.0  0.82860  0.53782  0.65492  1.0000
  C   C1277     1.0  0.97829  0.67442  0.17744  1.0000
  H   H2266     1.0  0.99678  0.57847  0.20050  1.0000
  H   H2267     1.0  0.89628  0.57223  0.31078  1.0000
  H   H2268     1.0  0.89774  0.59257  0.32829  1.0000
  H   H2269     1.0  0.90766  0.58633  0.28586  1.0000
  C   C1278     1.0  0.93636  0.56732  0.66905  1.0000
  H   H2270     1.0  0.97804  0.53963  0.48600  1.0000
  H   H2271     1.0  0.90538  0.69259  0.79657  1.0000
  C   C1279     1.0  0.90202  0.69948  0.77178  1.0000
  C   C1280     1.0  0.96687  0.66650  0.15971  1.0000
  C   C1281     1.0  0.97198  0.54831  0.71225  1.0000
  H   H2272     1.0  0.92964  0.69772  0.27546  1.0000
  H   H2273     1.0  0.90318  0.73257  0.16210  1.0000
  H   H2274     1.0  0.86702  0.57920  0.09975  1.0000
  H   H2275     1.0  0.96552  0.66799  0.13088  1.0000
  C   C1282     1.0  0.94319  0.54992  0.68710  1.0000
  H   H2276     1.0  0.95064  0.54174  0.66655  1.0000
  H   H2277     1.0  0.89381  0.67860  0.91595  1.0000
  H   H2278     1.0  0.97767  0.64260  0.89829  1.0000
  C   C1283     1.0  0.96802  0.67131  0.82997  1.0000
  H   H2279     1.0  0.99502  0.63752  0.20593  1.0000
  H   H2280     1.0  0.98588  0.68590  0.67952  1.0000
  C   C1284     1.0  0.94650  0.56490  0.74342  1.0000
  H   H2281     1.0  0.99857  0.66016  0.95726  1.0000
  H   H2282     1.0  0.92336  0.57774  0.62071  1.0000
  C   C1285     1.0  0.89141  0.70278  0.25817  1.0000
  H   H2283     1.0  0.97253  0.57571  0.70835  1.0000
  H   H2284     1.0  0.89613  0.68950  0.26343  1.0000
  H   H2285     1.0  0.97275  0.63707  0.97973  1.0000
  H   H2286     1.0  0.89725  0.53716  0.53573  1.0000
  H   H2287     1.0  0.91839  0.74141  0.13625  1.0000
  C   C1286     1.0  0.92876  0.56516  0.63244  1.0000
  C   C1287     1.0  0.95552  0.56617  0.77950  1.0000
  C   C1288     1.0  0.94867  0.58294  0.79768  1.0000
  H   H2288     1.0  0.90698  0.74027  0.48220  1.0000
  H   H2289     1.0  0.86312  0.69244  0.78665  1.0000
  C   C1289     1.0  0.97489  0.70949  0.70678  1.0000
  C   C1290     1.0  0.87612  0.72275  0.84735  1.0000
  H   H2290     1.0  0.88092  0.72964  0.50041  1.0000
  H   H2291     1.0  0.90577  0.72091  0.37539  1.0000
  H   H2292     1.0  0.84846  0.69780  0.90897  1.0000
  H   H2293     1.0  0.94624  0.57508  0.66507  1.0000
  C   C1291     1.0  0.89715  0.69827  0.39164  1.0000
  H   H2294     1.0  0.93312  0.74745  0.36366  1.0000
  H   H2295     1.0  0.90234  0.55696  0.09105  1.0000
  C   C1292     1.0  0.88841  0.55925  0.09450  1.0000
  H   H2296     1.0  0.88930  0.57596  0.03076  1.0000
  H   H2297     1.0  0.91234  0.57434  0.13106  1.0000
  C   C1293     1.0  0.95190  0.64508  0.94496  1.0000
  N   N73       1.0  0.88742  0.59095  0.07864  1.0000
  H   H2298     1.0  0.85286  0.60475  0.09611  1.0000
  H   H2299     1.0  0.93494  0.59966  0.10762  1.0000
  H   H2300     1.0  0.96923  0.53890  0.26702  1.0000
  C   C1294     1.0  0.90641  0.58906  0.08070  1.0000
  C   C1295     1.0  0.91383  0.58669  0.11896  1.0000
  H   H2301     1.0  0.91287  0.57828  0.06436  1.0000
  C   C1296     1.0  0.87918  0.73734  0.24541  1.0000
  C   C1297     1.0  0.88835  0.73231  0.27664  1.0000
  C   C1298     1.0  0.93273  0.58726  0.11832  1.0000
  H   H2302     1.0  0.90554  0.55030  0.56702  1.0000
  C   C1299     1.0  0.86190  0.70024  0.95753  1.0000
  H   H2303     1.0  0.98088  0.61433  0.23094  1.0000
  C   C1300     1.0  0.87948  0.60831  0.09161  1.0000
  C   C1301     1.0  0.87950  0.54783  0.57793  1.0000
  C   C1302     1.0  0.86026  0.61391  0.08441  1.0000
  H   H2304     1.0  0.88119  0.60912  0.12114  1.0000
  C   C1303     1.0  0.89738  0.54068  0.56441  1.0000
  C   C1304     1.0  0.85330  0.63101  0.10090  1.0000
  H   H2305     1.0  0.90612  0.71783  0.44418  1.0000
  C   C1305     1.0  0.88288  0.58857  0.04019  1.0000
  H   H2306     1.0  0.85824  0.54765  0.64494  1.0000
  H   H2307     1.0  0.98014  0.62332  0.92253  1.0000
  C   C1306     1.0  0.96166  0.62508  0.10600  1.0000
  C   C1307     1.0  0.88778  0.60168  0.01261  1.0000
  H   H2308     1.0  0.83978  0.63501  0.09391  1.0000
  H   H2309     1.0  0.90723  0.59668  0.13675  1.0000
  H   H2310     1.0  0.91706  0.71584  0.22205  1.0000
  H   H2311     1.0  0.87300  0.69322  0.97225  1.0000
  H   H2312     1.0  0.88607  0.61816  0.07961  1.0000
  H   H2313     1.0  0.84711  0.70253  0.00717  1.0000
  H   H2314     1.0  0.86912  0.58843  0.03799  1.0000
  H   H2315     1.0  0.97964  0.54499  0.73688  1.0000
  C   C1308     1.0  0.89453  0.71726  0.70652  1.0000
  H   H2316     1.0  0.88215  0.61477  0.01998  1.0000
  H   H2317     1.0  0.86036  0.64077  0.09042  1.0000
  H   H2318     1.0  0.97250  0.59974  0.12116  1.0000
  H   H2319     1.0  0.95105  0.59376  0.78054  1.0000
  C   C1309     1.0  0.84251  0.55656  0.58623  1.0000
  C   C1310     1.0  0.98230  0.63652  0.92422  1.0000
  H   H2320     1.0  0.87493  0.55967  0.56232  1.0000
  H   H2321     1.0  0.98310  0.70578  0.73050  1.0000
  H   H2322     1.0  0.84095  0.55852  0.55660  1.0000
  C   C1311     1.0  0.88172  0.59882  0.97495  1.0000
  H   H2323     1.0  0.86772  0.60038  0.97466  1.0000
  C   C1312     1.0  0.86736  0.53516  0.57292  1.0000
  C   C1313     1.0  0.92421  0.74205  0.41768  1.0000
  C   C1314     1.0  0.98348  0.66867  0.81112  1.0000
  H   H2324     1.0  0.97154  0.66121  0.26310  1.0000
  C   C1315     1.0  0.84586  0.53140  0.69843  1.0000
  C   C1316     1.0  0.98993  0.56660  0.31689  1.0000
  H   H2325     1.0  0.86648  0.52613  0.63759  1.0000
  H   H2326     1.0  0.96598  0.51507  0.22910  1.0000
  C   C1317     1.0  0.97269  0.73545  0.15752  1.0000
  H   H2327     1.0  0.83458  0.70521  0.96706  1.0000
  H   H2328     1.0  0.98670  0.58147  0.15851  1.0000
  H   H2329     1.0  0.98311  0.54218  0.32118  1.0000
  H   H2330     1.0  0.84595  0.54472  0.70543  1.0000
  C   C1318     1.0  0.99828  0.66726  0.90139  1.0000
  H   H2331     1.0  0.95502  0.73608  0.20145  1.0000
  C   C1319     1.0  0.96451  0.54229  0.53585  1.0000
  C   C1320     1.0  0.97037  0.64467  0.95454  1.0000
  H   H2332     1.0  0.90998  0.71864  0.10792  1.0000
  C   C1321     1.0  0.89505  0.71751  0.39131  1.0000
  H   H2333     1.0  0.94876  0.65233  0.91951  1.0000
  H   H2334     1.0  0.95948  0.59612  0.18887  1.0000
  H   H2335     1.0  0.91147  0.69406  0.07017  1.0000
  H   H2336     1.0  0.95268  0.57038  0.21804  1.0000
  H   H2337     1.0  0.94000  0.69007  0.21440  1.0000
  H   H2338     1.0  0.96428  0.56534  0.17663  1.0000
  H   H2339     1.0  0.98799  0.62640  0.79824  1.0000
  H   H2340     1.0  0.91247  0.70262  0.16849  1.0000
  H   H2341     1.0  0.94584  0.74015  0.80093  1.0000
  H   H2342     1.0  0.93774  0.71883  0.61125  1.0000
  C   C1322     1.0  0.99374  0.61089  0.21859  1.0000
  H   H2343     1.0  0.97476  0.72323  0.70235  1.0000
  H   H2344     1.0  0.99589  0.60965  0.87971  1.0000
  H   H2345     1.0  0.90278  0.68987  0.11363  1.0000
  H   H2346     1.0  0.88319  0.72264  0.37696  1.0000
  C   C1323     1.0  0.96911  0.74886  0.27770  1.0000
  H   H2347     1.0  0.96963  0.59165  0.23172  1.0000
  C   C1324     1.0  0.96515  0.56993  0.20435  1.0000
  S   S296      1.0  0.99484  0.68513  0.80515  1.0000
  H   H2348     1.0  0.92035  0.72823  0.64030  1.0000
  H   H2349     1.0  0.92775  0.74450  0.44549  1.0000
  H   H2350     1.0  0.00061  0.53060  0.45334  1.0000
  H   H2351     1.0  0.97355  0.50766  0.27300  1.0000
  H   H2352     1.0  0.99587  0.64113  0.00425  1.0000
  C   C1325     1.0  0.99213  0.52166  0.52599  1.0000
  H   H2353     1.0  0.97319  0.74576  0.30570  1.0000
  H   H2354     1.0  0.87812  0.74590  0.81811  1.0000
  H   H2355     1.0  0.99713  0.53038  0.54402  1.0000
  C   C1326     1.0  0.84826  0.50786  0.58020  1.0000
  H   H2356     1.0  0.99773  0.69359  0.88711  1.0000
  H   H2357     1.0  0.88295  0.74620  0.86515  1.0000
  H   H2358     1.0  0.98737  0.61252  0.10397  1.0000
  H   H2359     1.0  0.85697  0.50560  0.55657  1.0000
  H   H2360     1.0  0.86119  0.74818  0.85110  1.0000
  H   H2361     1.0  0.87461  0.74565  0.55600  1.0000
  H   H2362     1.0  0.86524  0.74471  0.43274  1.0000
  C   C1327     1.0  0.89472  0.74734  0.47206  1.0000
  N   N74       1.0  0.00088  0.63675  0.92801  1.0000
  H   H2363     1.0  0.90298  0.74907  0.38155  1.0000
  H   H2364     1.0  0.94750  0.74917  0.16268  1.0000
  H   H2365     1.0  0.00101  0.60086  0.23632  1.0000
  C   C1328     1.0  0.88428  0.74900  0.53686  1.0000
  H   H2366     1.0  0.87421  0.74920  0.39072  1.0000
  H   H2367     1.0  0.82767  0.49976  0.55210  1.0000
  Fe  Fe147     1.0  0.90891  0.78128  0.61298  1.0000
  S   S297      1.0  0.90104  0.80857  0.62726  1.0000
  S   S298      1.0  0.92089  0.77351  0.55888  1.0000
  Fe  Fe148     1.0  0.90174  0.76776  0.68815  1.0000
  S   S299      1.0  0.89336  0.79434  0.70786  1.0000
  C   C1329     1.0  0.79478  0.98577  0.27155  1.0000
  Fe  Fe149     1.0  0.87908  0.80032  0.65625  1.0000
  S   S300      1.0  0.85131  0.81434  0.65599  1.0000
  Fe  Fe150     1.0  0.91585  0.80079  0.67750  1.0000
  S   S301      1.0  0.93058  0.81843  0.70430  1.0000
  S   S302      1.0  0.88593  0.77311  0.63820  1.0000
  S   S303      1.0  0.92525  0.77413  0.66142  1.0000
  H   H2368     1.0  0.93925  0.80363  0.58176  1.0000
  S   S304      1.0  0.77165  0.92522  0.69215  1.0000
  H   H2369     1.0  0.88929  0.88174  0.26427  1.0000
  Fe  Fe151     1.0  0.76091  0.91119  0.59838  1.0000
  S   S305      1.0  0.78308  0.92357  0.60787  1.0000
  H   H2370     1.0  0.89954  0.77662  0.19511  1.0000
  Fe  Fe152     1.0  0.78729  0.90580  0.65600  1.0000
  S   S306      1.0  0.81491  0.89211  0.66262  1.0000
  Fe  Fe153     1.0  0.76561  0.94169  0.64281  1.0000
  H   H2371     1.0  0.84246  0.86885  0.37259  1.0000
  S   S307      1.0  0.76531  0.89304  0.64581  1.0000
  C   C1330     1.0  0.98140  0.81300  0.67919  1.0000
  Fe  Fe154     1.0  0.88923  0.80322  0.36655  1.0000
  S   S308      1.0  0.89332  0.82313  0.32573  1.0000
  S   S309      1.0  0.88308  0.81109  0.42399  1.0000
  Fe  Fe155     1.0  0.88973  0.77587  0.30989  1.0000
  S   S310      1.0  0.89324  0.79419  0.26509  1.0000
  H   H2372     1.0  0.94537  0.76036  0.25203  1.0000
  Fe  Fe156     1.0  0.91246  0.80249  0.30071  1.0000
  S   S311      1.0  0.93789  0.80451  0.27443  1.0000
  Fe  Fe157     1.0  0.87369  0.81342  0.29412  1.0000
  S   S312      1.0  0.85361  0.83272  0.26484  1.0000
  S   S313      1.0  0.90988  0.78341  0.34424  1.0000
  S   S314      1.0  0.86867  0.79437  0.33614  1.0000
  Fe  Fe158     1.0  0.77708  0.91050  0.31731  1.0000
  C   C1331     1.0  0.75669  0.92003  0.44136  1.0000
  S   S315      1.0  0.79046  0.88352  0.33171  1.0000
  Fe  Fe159     1.0  0.77823  0.94731  0.29477  1.0000
  C   C1332     1.0  0.75261  0.96134  0.73894  1.0000
  H   H2373     1.0  0.79282  0.85945  0.60445  1.0000
  H   H2374     1.0  0.77477  0.96127  0.46485  1.0000
  H   H2375     1.0  0.77787  0.86798  0.26753  1.0000
  H   H2376     1.0  0.79600  0.96376  0.47221  1.0000
  H   H2377     1.0  0.79078  0.82046  0.28098  1.0000
  S   S316      1.0  0.78338  0.93266  0.34674  1.0000
  S   S317      1.0  0.77423  0.92453  0.26421  1.0000
  H   H2378     1.0  0.79920  0.83932  0.27159  1.0000
  C   C1333     1.0  0.86981  0.77040  0.42549  1.0000
  H   H2379     1.0  0.78956  0.87442  0.48444  1.0000
  C   C1334     1.0  0.95579  0.80959  0.33519  1.0000
  H   H2380     1.0  0.94928  0.80212  0.51978  1.0000
  H   H2381     1.0  0.88589  0.85328  0.24225  1.0000
  H   H2382     1.0  0.87082  0.90916  0.34486  1.0000
  C   C1335     1.0  0.95587  0.80815  0.29779  1.0000
  C   C1336     1.0  0.97069  0.80951  0.27815  1.0000
  H   H2383     1.0  0.85849  0.86261  0.42875  1.0000
  H   H2384     1.0  0.97083  0.80850  0.24919  1.0000
  H   H2385     1.0  0.94447  0.80858  0.35061  1.0000
  C   C1337     1.0  0.83588  0.84653  0.28374  1.0000
  C   C1338     1.0  0.82979  0.84410  0.31856  1.0000
  C   C1339     1.0  0.81590  0.85553  0.33263  1.0000
  C   C1340     1.0  0.80805  0.86970  0.31242  1.0000
  C   C1341     1.0  0.81408  0.87213  0.27753  1.0000
  C   C1342     1.0  0.82781  0.86054  0.26324  1.0000
  H   H2386     1.0  0.83576  0.83335  0.33460  1.0000
  H   H2387     1.0  0.81124  0.85339  0.35947  1.0000
  H   H2388     1.0  0.80808  0.88283  0.26141  1.0000
  H   H2389     1.0  0.83233  0.86252  0.23619  1.0000
  H   H2390     1.0  0.98692  0.77571  0.32255  1.0000
  H   H2391     1.0  0.88038  0.87016  0.36607  1.0000
  H   H2392     1.0  0.93506  0.76324  0.39655  1.0000
  H   H2393     1.0  0.90434  0.76383  0.41488  1.0000
  H   H2394     1.0  0.77170  0.84490  0.30525  1.0000
  C   C1343     1.0  0.86707  0.87680  0.36273  1.0000
  H   H2395     1.0  0.86828  0.89034  0.25026  1.0000
  H   H2396     1.0  0.81950  0.92172  0.26714  1.0000
  C   C1344     1.0  0.85607  0.86314  0.37036  1.0000
  N   N75       1.0  0.77711  0.98348  0.49496  1.0000
  C   C1345     1.0  0.82345  0.91509  0.29297  1.0000
  H   H2397     1.0  0.79041  0.83837  0.59359  1.0000
  H   H2398     1.0  0.87436  0.84761  0.40546  1.0000
  H   H2399     1.0  0.85874  0.86668  0.29161  1.0000
  C   C1346     1.0  0.84127  0.90462  0.28892  1.0000
  H   H2400     1.0  0.85309  0.84381  0.41026  1.0000
  H   H2401     1.0  0.89562  0.76086  0.47459  1.0000
  C   C1347     1.0  0.95189  0.82122  0.69921  1.0000
  H   H2402     1.0  0.91904  0.90069  0.33021  1.0000
  C   C1348     1.0  0.96455  0.80997  0.68103  1.0000
  H   H2403     1.0  0.90125  0.91781  0.33475  1.0000
  H   H2404     1.0  0.96143  0.79885  0.66923  1.0000
  C   C1349     1.0  0.91096  0.78465  0.52152  1.0000
  C   C1350     1.0  0.91838  0.78218  0.48713  1.0000
  C   C1351     1.0  0.91013  0.79042  0.45683  1.0000
  C   C1352     1.0  0.89443  0.80109  0.46094  1.0000
  C   C1353     1.0  0.88731  0.80389  0.49543  1.0000
  C   C1354     1.0  0.89550  0.79567  0.52563  1.0000
  H   H2405     1.0  0.76235  0.86959  0.58665  1.0000
  H   H2406     1.0  0.91589  0.78858  0.43039  1.0000
  H   H2407     1.0  0.87530  0.81233  0.49868  1.0000
  H   H2408     1.0  0.88973  0.79769  0.55205  1.0000
  C   C1355     1.0  0.84111  0.83604  0.65453  1.0000
  C   C1356     1.0  0.84961  0.84911  0.64435  1.0000
  C   C1357     1.0  0.84131  0.86615  0.64619  1.0000
  C   C1358     1.0  0.82419  0.87040  0.65696  1.0000
  C   C1359     1.0  0.81542  0.85729  0.66517  1.0000
  C   C1360     1.0  0.82384  0.84027  0.66405  1.0000
  H   H2409     1.0  0.86264  0.84611  0.63542  1.0000
  H   H2410     1.0  0.84823  0.87613  0.63949  1.0000
  H   H2411     1.0  0.80229  0.86028  0.67366  1.0000
  H   H2412     1.0  0.81699  0.83031  0.67151  1.0000
  H   H2413     1.0  0.90547  0.90697  0.29244  1.0000
  C   C1361     1.0  0.95618  0.83535  0.71529  1.0000
  C   C1362     1.0  0.78645  0.85194  0.58634  1.0000
  H   H2414     1.0  0.85790  0.85365  0.34883  1.0000
  C   C1363     1.0  0.98416  0.79817  0.51382  1.0000
  H   H2415     1.0  0.78419  0.86846  0.53980  1.0000
  C   C1364     1.0  0.79074  0.85545  0.54636  1.0000
  H   H2416     1.0  0.85043  0.80531  0.76372  1.0000
  H   H2417     1.0  0.78436  0.84717  0.52983  1.0000
  C   C1365     1.0  0.87781  0.86520  0.23265  1.0000
  C   C1366     1.0  0.98532  0.82572  0.56554  1.0000
  H   H2418     1.0  0.86508  0.86265  0.22642  1.0000
  H   H2419     1.0  0.89978  0.88038  0.32194  1.0000
  H   H2420     1.0  0.86449  0.88618  0.38468  1.0000
  H   H2421     1.0  0.87967  0.86210  0.30696  1.0000
  H   H2422     1.0  0.84294  0.90250  0.34712  1.0000
  H   H2423     1.0  0.94661  0.84407  0.72950  1.0000
  H   H2424     1.0  0.82314  0.92479  0.31387  1.0000
  S   S318      1.0  0.79549  0.96366  0.26937  1.0000
  H   H2425     1.0  0.93075  0.83810  0.54289  1.0000
  H   H2426     1.0  0.88351  0.86949  0.20751  1.0000
  C   C1367     1.0  0.76739  0.85617  0.59353  1.0000
  H   H2427     1.0  0.81417  0.90693  0.30047  1.0000
  H   H2428     1.0  0.93043  0.77379  0.48388  1.0000
  H   H2429     1.0  0.95733  0.82101  0.52199  1.0000
  C   C1368     1.0  0.84658  0.89415  0.32364  1.0000
  N   N76       1.0  0.80934  0.85289  0.53652  1.0000
  C   C1369     1.0  0.81127  0.85385  0.49606  1.0000
  C   C1370     1.0  0.81729  0.83519  0.54861  1.0000
  C   C1371     1.0  0.81844  0.86524  0.55435  1.0000
  C   C1372     1.0  0.80860  0.88358  0.55929  1.0000
  C   C1373     1.0  0.83606  0.82894  0.53742  1.0000
  C   C1374     1.0  0.80308  0.87056  0.47694  1.0000
  C   C1375     1.0  0.80402  0.86884  0.43604  1.0000
  C   C1376     1.0  0.82080  0.89587  0.56348  1.0000
  C   C1377     1.0  0.84272  0.81148  0.55392  1.0000
  H   H2430     1.0  0.82485  0.85205  0.48801  1.0000
  H   H2431     1.0  0.80614  0.84337  0.48376  1.0000
  H   H2432     1.0  0.80983  0.82587  0.53875  1.0000
  H   H2433     1.0  0.81707  0.83410  0.57851  1.0000
  H   H2434     1.0  0.82248  0.86065  0.58187  1.0000
  H   H2435     1.0  0.83048  0.86581  0.53950  1.0000
  H   H2436     1.0  0.80048  0.88418  0.58388  1.0000
  H   H2437     1.0  0.80015  0.88832  0.53681  1.0000
  H   H2438     1.0  0.84414  0.83775  0.54666  1.0000
  H   H2439     1.0  0.83753  0.82763  0.50786  1.0000
  H   H2440     1.0  0.81004  0.88075  0.48350  1.0000
  H   H2441     1.0  0.79835  0.88108  0.42299  1.0000
  H   H2442     1.0  0.81736  0.86536  0.42658  1.0000
  H   H2443     1.0  0.79682  0.85914  0.42742  1.0000
  H   H2444     1.0  0.81361  0.90873  0.56860  1.0000
  H   H2445     1.0  0.82932  0.89194  0.58649  1.0000
  H   H2446     1.0  0.82850  0.89643  0.53856  1.0000
  H   H2447     1.0  0.85638  0.80758  0.54746  1.0000
  H   H2448     1.0  0.84121  0.81166  0.58360  1.0000
  H   H2449     1.0  0.83584  0.80195  0.54317  1.0000
  H   H2450     1.0  0.75710  0.95762  0.76653  1.0000
  H   H2451     1.0  0.88868  0.76305  0.17028  1.0000
  H   H2452     1.0  0.99590  0.82475  0.54562  1.0000
  C   C1378     1.0  0.79565  0.99556  0.67169  1.0000
  C   C1379     1.0  0.99053  0.83441  0.59848  1.0000
  H   H2453     1.0  0.78930  0.82967  0.23630  1.0000
  C   C1380     1.0  0.78684  0.98247  0.66405  1.0000
  H   H2454     1.0  0.99120  0.80429  0.66554  1.0000
  H   H2455     1.0  0.98580  0.78108  0.42784  1.0000
  H   H2456     1.0  0.78559  0.93099  0.47874  1.0000
  H   H2457     1.0  0.97402  0.83399  0.55417  1.0000
  H   H2458     1.0  0.80578  0.93393  0.49568  1.0000
  H   H2459     1.0  0.76470  0.85399  0.62247  1.0000
  H   H2460     1.0  0.85560  0.81663  0.80201  1.0000
  H   H2461     1.0  0.97012  0.81383  0.38156  1.0000
  H   H2462     1.0  0.98358  0.77262  0.55232  1.0000
  N   N77       1.0  0.97314  0.79942  0.54739  1.0000
  H   H2463     1.0  0.96438  0.75873  0.63763  1.0000
  H   H2464     1.0  0.75813  0.91528  0.19786  1.0000
  H   H2465     1.0  0.77392  0.88577  0.20561  1.0000
  H   H2466     1.0  0.96141  0.77721  0.54529  1.0000
  C   C1381     1.0  0.87645  0.87883  0.26103  1.0000
  C   C1382     1.0  0.78718  0.99584  0.29994  1.0000
  C   C1383     1.0  0.98515  0.81393  0.33301  1.0000
  C   C1384     1.0  0.86083  0.85379  0.40594  1.0000
  H   H2467     1.0  0.96578  0.79572  0.47189  1.0000
  C   C1385     1.0  0.75874  0.98644  0.50692  1.0000
  H   H2468     1.0  0.88354  0.76291  0.53727  1.0000
  C   C1386     1.0  0.77045  0.98634  0.65056  1.0000
  H   H2469     1.0  0.95849  0.78742  0.61178  1.0000
  C   C1387     1.0  0.78411  0.95185  0.51592  1.0000
  C   C1388     1.0  0.90546  0.75008  0.41064  1.0000
  H   H2470     1.0  0.75541  0.98822  0.77734  1.0000
  H   H2471     1.0  0.97498  0.77397  0.27022  1.0000
  H   H2472     1.0  0.87218  0.80349  0.77645  1.0000
  H   H2473     1.0  0.76163  0.83601  0.26916  1.0000
  C   C1389     1.0  0.98527  0.81234  0.29564  1.0000
  H   H2474     1.0  0.83817  0.88465  0.32498  1.0000
  H   H2475     1.0  0.89616  0.89093  0.36416  1.0000
  H   H2476     1.0  0.84105  0.89596  0.26618  1.0000
  C   C1390     1.0  0.92750  0.82655  0.55589  1.0000
  H   H2477     1.0  0.94894  0.82175  0.59016  1.0000
  C   C1391     1.0  0.98181  0.80788  0.57555  1.0000
  H   H2478     1.0  0.80895  0.98565  0.22194  1.0000
  H   H2479     1.0  0.84977  0.91358  0.28197  1.0000
  C   C1392     1.0  0.75171  0.88806  0.24147  1.0000
  H   H2480     1.0  0.77120  0.95097  0.52551  1.0000
  H   H2481     1.0  0.97499  0.76239  0.23076  1.0000
  N   N78       1.0  0.87741  0.85232  0.74086  1.0000
  C   C1393     1.0  0.88849  0.86188  0.76140  1.0000
  C   C1394     1.0  0.86078  0.86387  0.73358  1.0000
  C   C1395     1.0  0.87494  0.83702  0.76312  1.0000
  C   C1396     1.0  0.88553  0.84641  0.70538  1.0000
  C   C1397     1.0  0.89025  0.86044  0.67990  1.0000
  C   C1398     1.0  0.90724  0.85302  0.76536  1.0000
  C   C1399     1.0  0.86127  0.82736  0.74985  1.0000
  C   C1400     1.0  0.84993  0.87016  0.76714  1.0000
  C   C1401     1.0  0.83272  0.88024  0.75605  1.0000
  C   C1402     1.0  0.90020  0.85298  0.64684  1.0000
  C   C1403     1.0  0.91695  0.86325  0.78867  1.0000
  C   C1404     1.0  0.87585  0.89903  0.32548  1.0000
  H   H2482     1.0  0.88332  0.86439  0.78910  1.0000
  H   H2483     1.0  0.88834  0.87463  0.74905  1.0000
  H   H2484     1.0  0.86284  0.87543  0.71859  1.0000
  H   H2485     1.0  0.85297  0.85772  0.71555  1.0000
  H   H2486     1.0  0.87185  0.84047  0.79159  1.0000
  H   H2487     1.0  0.88697  0.82764  0.76422  1.0000
  H   H2488     1.0  0.89700  0.83660  0.70973  1.0000
  H   H2489     1.0  0.87706  0.83982  0.69010  1.0000
  H   H2490     1.0  0.89817  0.86822  0.69346  1.0000
  H   H2491     1.0  0.87869  0.86890  0.67012  1.0000
  H   H2492     1.0  0.90820  0.84028  0.77798  1.0000
  H   H2493     1.0  0.91381  0.85162  0.73883  1.0000
  H   H2494     1.0  0.86453  0.82248  0.72261  1.0000
  H   H2495     1.0  0.84857  0.83550  0.74894  1.0000
  H   H2496     1.0  0.84757  0.85956  0.78481  1.0000
  H   H2497     1.0  0.85634  0.87857  0.78304  1.0000
  H   H2498     1.0  0.82550  0.87216  0.74115  1.0000
  H   H2499     1.0  0.82523  0.88497  0.78031  1.0000
  H   H2500     1.0  0.83428  0.89126  0.73863  1.0000
  H   H2501     1.0  0.90353  0.86331  0.62950  1.0000
  H   H2502     1.0  0.91211  0.84452  0.65489  1.0000
  H   H2503     1.0  0.89252  0.84580  0.63087  1.0000
  H   H2504     1.0  0.93032  0.85667  0.79069  1.0000
  H   H2505     1.0  0.91680  0.87599  0.77651  1.0000
  H   H2506     1.0  0.91136  0.86453  0.81622  1.0000
  H   H2507     1.0  0.98523  0.81094  0.50310  1.0000
  H   H2508     1.0  0.79164  0.95468  0.53886  1.0000
  C   C1405     1.0  0.85985  0.81230  0.77466  1.0000
  C   C1406     1.0  0.75449  0.90476  0.18296  1.0000
  H   H2509     1.0  0.91879  0.83046  0.57889  1.0000
  C   C1407     1.0  0.89476  0.89268  0.33457  1.0000
  C   C1408     1.0  0.94342  0.81484  0.56938  1.0000
  C   C1409     1.0  0.98551  0.82730  0.69550  1.0000
  C   C1410     1.0  0.95596  0.80946  0.53789  1.0000
  H   H2510     1.0  0.97976  0.83735  0.61781  1.0000
  H   H2511     1.0  0.97660  0.77579  0.48991  1.0000
  H   H2512     1.0  0.84833  0.79058  0.41697  1.0000
  H   H2513     1.0  0.00014  0.78285  0.25337  1.0000
  C   C1411     1.0  0.97276  0.83836  0.71341  1.0000
  H   H2514     1.0  0.76044  0.91552  0.41471  1.0000
  C   C1412     1.0  0.77166  0.84320  0.27568  1.0000
  C   C1413     1.0  0.78864  0.98834  0.52290  1.0000
  C   C1414     1.0  0.79224  0.93434  0.50269  1.0000
  S   S319      1.0  0.75869  0.97056  0.64016  1.0000
  H   H2515     1.0  0.75791  0.99403  0.73138  1.0000
  C   C1415     1.0  0.90574  0.90537  0.32218  1.0000
  H   H2516     1.0  0.75910  0.89486  0.25918  1.0000
  C   C1416     1.0  0.97035  0.81255  0.35266  1.0000
  H   H2517     1.0  0.84945  0.77330  0.38654  1.0000
  H   H2518     1.0  0.92083  0.81994  0.53636  1.0000
  H   H2519     1.0  0.75516  0.87820  0.31158  1.0000
  N   N79       1.0  0.86492  0.88567  0.32636  1.0000
  H   H2520     1.0  0.87538  0.90560  0.29893  1.0000
  C   C1417     1.0  0.78320  0.96524  0.48514  1.0000
  C   C1418     1.0  0.96925  0.77845  0.60051  1.0000
  C   C1419     1.0  0.00071  0.77074  0.32126  1.0000
  H   H2521     1.0  0.87784  0.77723  0.40835  1.0000
  C   C1420     1.0  0.86971  0.87270  0.29741  1.0000
  H   H2522     1.0  0.86818  0.75009  0.49143  1.0000
  H   H2523     1.0  0.79277  0.96942  0.66846  1.0000
  H   H2524     1.0  0.97575  0.84938  0.72611  1.0000
  H   H2525     1.0  0.76217  0.97227  0.55916  1.0000
  H   H2526     1.0  0.75826  0.99464  0.56309  1.0000
  C   C1421     1.0  0.97180  0.78162  0.55962  1.0000
  H   H2527     1.0  0.78743  0.98154  0.54880  1.0000
  H   H2528     1.0  0.79134  0.92472  0.52416  1.0000
  H   H2529     1.0  0.94794  0.76768  0.29681  1.0000
  H   H2530     1.0  0.99653  0.81356  0.28021  1.0000
  C   C1422     1.0  0.97808  0.78880  0.48195  1.0000
  C   C1423     1.0  0.85144  0.77662  0.41477  1.0000
  H   H2531     1.0  0.90642  0.77102  0.14999  1.0000
  H   H2532     1.0  0.79230  0.99330  0.45362  1.0000
  H   H2533     1.0  0.97453  0.80895  0.60124  1.0000
  H   H2534     1.0  0.99734  0.79183  0.52032  1.0000
  C   C1424     1.0  0.75494  0.98411  0.54764  1.0000
  H   H2535     1.0  0.87094  0.77401  0.45377  1.0000
  C   C1425     1.0  0.91335  0.75096  0.19033  1.0000
  C   C1426     1.0  0.78878  0.83256  0.26540  1.0000
  C   C1427     1.0  0.76882  0.86065  0.25599  1.0000
  H   H2536     1.0  0.77565  0.97758  0.41648  1.0000
  H   H2537     1.0  0.84276  0.77097  0.43286  1.0000
  H   H2538     1.0  0.80212  0.98427  0.51446  1.0000
  N   N80       1.0  0.99837  0.75640  0.26015  1.0000
  H   H2539     1.0  0.77305  0.85827  0.22762  1.0000
  H   H2540     1.0  0.76072  0.84806  0.57739  1.0000
  H   H2541     1.0  0.76364  0.96242  0.72118  1.0000
  H   H2542     1.0  0.76639  0.98411  0.22075  1.0000
  C   C1428     1.0  0.96601  0.76061  0.60820  1.0000
  C   C1429     1.0  0.90125  0.76631  0.17534  1.0000
  H   H2543     1.0  0.78100  0.99011  0.32167  1.0000
  C   C1430     1.0  0.76928  0.98980  0.42782  1.0000
  C   C1431     1.0  0.80298  0.99327  0.24386  1.0000
  S   S320      1.0  0.75954  0.90058  0.54292  1.0000
  H   H2544     1.0  0.95429  0.75873  0.59480  1.0000
  H   H2545     1.0  0.76081  0.90420  0.15612  1.0000
  C   C1432     1.0  0.87510  0.75110  0.42015  1.0000
  C   C1433     1.0  0.77872  0.99412  0.46147  1.0000
  H   H2546     1.0  0.75597  0.98893  0.43448  1.0000
  C   C1434     1.0  0.95023  0.75647  0.27929  1.0000
  C   C1435     1.0  0.75992  0.88801  0.20326  1.0000
  H   H2547     1.0  0.76565  0.89598  0.46739  1.0000
  H   H2548     1.0  0.98080  0.77977  0.61533  1.0000
  C   C1436     1.0  0.75971  0.90898  0.47125  1.0000
  C   C1437     1.0  0.97933  0.76119  0.25902  1.0000
  Fe  Fe160     1.0  0.75539  0.94009  0.35594  1.0000
  H   H2549     1.0  0.99428  0.79986  0.58215  1.0000
  H   H2550     1.0  0.98942  0.77583  0.19404  1.0000
  C   C1438     1.0  0.99069  0.78747  0.45044  1.0000
  H   H2551     1.0  0.99243  0.80021  0.44083  1.0000
  H   H2552     1.0  0.80838  0.99246  0.68194  1.0000
  C   C1439     1.0  0.75519  0.91473  0.50604  1.0000
  H   H2553     1.0  0.99455  0.84642  0.59022  1.0000
  H   H2554     1.0  0.75667  0.87784  0.18665  1.0000
  H   H2555     1.0  0.75180  0.97817  0.49177  1.0000
  H   H2556     1.0  0.99963  0.75821  0.37361  1.0000
  H   H2557     1.0  0.87432  0.75060  0.24033  1.0000
  H   H2558     1.0  0.97683  0.75105  0.59858  1.0000
  H   H2559     1.0  0.99074  0.77535  0.88324  1.0000
  C   C1440     1.0  0.75237  0.98566  0.22204  1.0000
  H   H2560     1.0  0.92529  0.75500  0.19705  1.0000
