data_image0
_chemical_formula_structural       SFeC5H3C2FeC2H3CHCH2C3S2C2H3NHCH6CH3CH4C5H5CH4SHCHSHSHCH3C2H2CH2CH5CHCHSCH3CH2CH2CHCHCH2C2HCH2CFeHC3H5CHSHC2NFeC2HCH3SH5FeH2NH2CH2CH2S2H3FeS2FeS2Fe2S2C6SH8C2HCHC2H4CNCHC2H2C5HC2H4SH3C3HFeHCH2C2H2CH2CH4CHCNH7CHNCHCH5SH4CHC2HCH3C3H2C2H3CH5SC3NCH5CH6C2S2CHFeCHNH3C2SHSC3H2FeSH2CSH3CSCHCH2CHCHCH2NC2H4CH4CHFeH2SFeCHCHCH3CSCFeHC2H4C3SCH3SCH3C3HCHCFeH2SH2C2H2C2H2NH3CH2FeH3SCH2CH2CHCSH3C2SCSHCNH2SC2HCHCH5CH5CHCHCHC2H2SH2SHFeSHC3H2CHCH2C3H3CH3CHCHCHCHCHCH4CHSCH6FeSCSNCSHCH5NCH3CH5FeH4C2HCH5SHCH3SH6CHCFeSNCH2SH2CH2FeC2SHS2HCHC2HCHCHSFeCSH2C2HCHCHSFeCH3C2H2SH2C2H2FeH2SH3CHCH2CH2CH2CH13SNHCHCH2CH3CH2CH3CHCS2H2C2HC3H2C2H2SCHCH2CSC2H6CSHNC3HCH6CH3FeC2H3C2HFeCHC2HCH5CH2CH3CHCSH2FeHC2NHC2H2SH7CH2C2H3CH3FeH2SH3CH4SH3SCHFeH2C2HCH3C4H2CH3CSHCSCHNSH5C2H3CH2CHCH5CH2C3H2C2H4C2HCH2FeCHC2HNH2CHC2HCHCHC3H4C2H5FeH3CHCH4CSHCHC2FeCHFeNHCHCH14CHCHFeSH2FeCH4CHC2H3CSH3CH4CHCHC2H4C2HCHFeHCH2C2H4CSH2SH2CHCHCH4CH7CHCH2C2H2CH5SHCHCSCHCHSH2CH3CSHCNHCHCHC3H2SCSCHSHCFe2S2FeHFeHS3C7H4C2HCHFeHC2HCH6C2H4CFeCHCH2C2H3CH5SH3C2HCH5SC2HCSHCH4CNSCHSCFeHCH3C3H5SH5FeHFeH2CH6CFeCHFeS2FeCFeS2FeSHC7H6CH4CH2CHC2SH6CH3C5FeC2HCH16CH4CNHCHNC6SC5H2FeH8CH2SH4C2H3C2HCHCHSC4HSHS2H2CH2C2HCHCHNCHCH6CHCSHCH4CH4SFeHCH2C3SFeSFe2S2FeCSHC5H2FeH2C6H4CHC2H2C2HC3H3C4H7C2H2C2H2C2H2CNH5NHNHC3H3CH2CH15CHCHNHC2HCSH3CH2CH3CH2SC2HSC2SCH2CH3CH5C2H2NC2HCH10C2H2CHCH5CHCH8C3H3CH2FeSCFeS2FeSFeS2HSC4HCH4C6H5C2H2CHSHCHC2HNC11H13CH12C3HSHC2HC2HCH4C3H2C2H3SHCH2CHSH2C2H4C3H4CH3FeHNCHCH7CH13CH2CH2CH2
_chemical_formula_sum              "S128 Fe64 C576 H1024 N32"
_cell_length_a       30.8638
_cell_length_b       43.8891
_cell_length_c       33.5261
_cell_angle_alpha    90.1952
_cell_angle_beta     116.407
_cell_angle_gamma    89.9419

_space_group_name_H-M_alt    "P 1"
_space_group_IT_number       1

loop_
  _space_group_symop_operation_xyz
  'x, y, z'

loop_
  _atom_site_type_symbol
  _atom_site_label
  _atom_site_symmetry_multiplicity
  _atom_site_fract_x
  _atom_site_fract_y
  _atom_site_fract_z
  _atom_site_occupancy
  S   S1        1.0  0.03299  0.16216  0.07981  1.0000
  Fe  Fe1       1.0  0.03982  0.19471  0.03136  1.0000
  C   C1        1.0  0.02877  0.26540  0.09572  1.0000
  C   C2        1.0  0.03598  0.31885  0.11876  1.0000
  C   C3        1.0  0.03069  0.03903  0.11380  1.0000
  C   C4        1.0  0.02993  0.27989  0.26334  1.0000
  C   C5        1.0  0.02737  0.31566  0.35321  1.0000
  H   H1        1.0  0.01723  0.06553  0.16384  1.0000
  H   H2        1.0  0.06268  0.09818  0.46272  1.0000
  H   H3        1.0  0.04150  0.27367  0.29857  1.0000
  C   C6        1.0  0.05609  0.27123  0.07264  1.0000
  C   C7        1.0  0.06261  0.32468  0.09512  1.0000
  Fe  Fe2       1.0  0.06558  0.12752  0.05164  1.0000
  C   C8        1.0  0.01857  0.28923  0.11854  1.0000
  C   C9        1.0  0.00342  0.31105  0.25146  1.0000
  H   H4        1.0  0.06684  0.31144  0.36801  1.0000
  H   H5        1.0  0.06254  0.28079  0.25737  1.0000
  H   H6        1.0  0.02607  0.30553  0.41617  1.0000
  C   C10       1.0  0.07237  0.30098  0.07201  1.0000
  H   H7        1.0  0.01591  0.24255  0.09624  1.0000
  C   C11       1.0  0.01527  0.32426  0.39137  1.0000
  H   H8        1.0  0.07608  0.13749  0.47886  1.0000
  H   H9        1.0  0.03700  0.01783  0.19359  1.0000
  C   C12       1.0  0.06599  0.00083  0.48550  1.0000
  C   C13       1.0  0.49621  0.11768  0.48006  1.0000
  C   C14       1.0  0.38842  0.00277  0.00772  1.0000
  S   S2        1.0  0.07311  0.24204  0.04605  1.0000
  S   S3        1.0  0.07813  0.16089  0.00740  1.0000
  C   C15       1.0  0.49129  0.07843  0.11630  1.0000
  C   C16       1.0  0.49445  0.19302  0.39213  1.0000
  H   H10       1.0  0.00665  0.06303  0.46374  1.0000
  H   H11       1.0  0.00818  0.16241  0.46062  1.0000
  H   H12       1.0  0.05014  0.05654  0.10390  1.0000
  N   N1        1.0  0.06613  0.01609  0.14529  1.0000
  H   H13       1.0  0.30886  0.18325  0.13870  1.0000
  C   C17       1.0  0.46555  0.02256  0.01035  1.0000
  H   H14       1.0  0.48403  0.00328  0.28834  1.0000
  H   H15       1.0  0.18626  0.14716  0.01373  1.0000
  H   H16       1.0  0.11959  0.32036  0.21196  1.0000
  H   H17       1.0  0.00546  0.02783  0.08196  1.0000
  H   H18       1.0  0.20834  0.25246  0.16999  1.0000
  H   H19       1.0  0.39936  0.11100  0.46516  1.0000
  C   C18       1.0  0.32942  0.07701  0.13085  1.0000
  H   H20       1.0  0.46532  0.07323  0.48564  1.0000
  H   H21       1.0  0.99797  0.31573  0.21678  1.0000
  H   H22       1.0  0.36379  0.27367  0.23979  1.0000
  C   C19       1.0  0.24786  0.11600  0.03704  1.0000
  H   H23       1.0  0.48641  0.13486  0.45301  1.0000
  H   H24       1.0  0.26866  0.15820  0.07336  1.0000
  H   H25       1.0  0.38416  0.08109  0.42407  1.0000
  H   H26       1.0  0.45649  0.16481  0.06163  1.0000
  C   C20       1.0  0.40441  0.14965  0.08448  1.0000
  C   C21       1.0  0.09321  0.00253  0.08424  1.0000
  C   C22       1.0  0.07544  0.11422  0.49131  1.0000
  C   C23       1.0  0.21407  0.22018  0.10545  1.0000
  C   C24       1.0  0.26154  0.09127  0.18716  1.0000
  H   H27       1.0  0.25739  0.12266  0.01004  1.0000
  H   H28       1.0  0.40678  0.14344  0.02081  1.0000
  H   H29       1.0  0.28348  0.32538  0.20551  1.0000
  H   H30       1.0  0.28969  0.07451  0.20313  1.0000
  H   H31       1.0  0.46996  0.05831  0.10169  1.0000
  C   C25       1.0  0.48203  0.21741  0.41236  1.0000
  H   H32       1.0  0.13093  0.01098  0.10254  1.0000
  H   H33       1.0  0.17834  0.31974  0.25990  1.0000
  H   H34       1.0  0.21045  0.05903  0.14163  1.0000
  H   H35       1.0  0.32020  0.03508  0.09284  1.0000
  S   S4        1.0  0.47713  0.06398  0.18933  1.0000
  H   H36       1.0  0.39799  0.18255  0.03335  1.0000
  C   C26       1.0  0.26940  0.12152  0.20196  1.0000
  H   H37       1.0  0.14209  0.27517  0.18048  1.0000
  S   S5        1.0  0.12240  0.09196  0.09064  1.0000
  H   H38       1.0  0.47267  0.17259  0.38294  1.0000
  S   S6        1.0  0.47100  0.02293  0.38649  1.0000
  H   H39       1.0  0.25304  0.09105  0.04217  1.0000
  C   C27       1.0  0.37878  0.19315  0.19140  1.0000
  H   H40       1.0  0.23607  0.31362  0.10591  1.0000
  H   H41       1.0  0.39664  0.14092  0.15983  1.0000
  H   H42       1.0  0.35430  0.19243  0.12081  1.0000
  C   C28       1.0  0.35688  0.14491  0.14416  1.0000
  C   C29       1.0  0.23016  0.25330  0.11744  1.0000
  H   H43       1.0  0.17625  0.33355  0.37123  1.0000
  H   H44       1.0  0.15678  0.32372  0.15723  1.0000
  C   C30       1.0  0.41687  0.16080  0.04765  1.0000
  H   H45       1.0  0.42440  0.12818  0.09754  1.0000
  H   H46       1.0  0.41824  0.16686  0.11164  1.0000
  C   C31       1.0  0.34749  0.09704  0.10324  1.0000
  H   H47       1.0  0.34429  0.13403  0.16707  1.0000
  H   H48       1.0  0.17422  0.21880  0.08517  1.0000
  H   H49       1.0  0.09443  0.07495  0.19153  1.0000
  H   H50       1.0  0.00768  0.29427  0.33817  1.0000
  H   H51       1.0  0.15905  0.15101  0.13134  1.0000
  C   C32       1.0  0.23227  0.14295  0.18143  1.0000
  H   H52       1.0  0.10170  0.04480  0.23090  1.0000
  C   C33       1.0  0.18754  0.13433  0.14653  1.0000
  H   H53       1.0  0.23793  0.16630  0.19307  1.0000
  S   S7        1.0  0.41386  0.06038  0.26662  1.0000
  C   C34       1.0  0.40833  0.10093  0.43932  1.0000
  H   H54       1.0  0.46742  0.07885  0.43368  1.0000
  H   H55       1.0  0.09632  0.00128  0.47753  1.0000
  H   H56       1.0  0.09566  0.31382  0.31894  1.0000
  C   C35       1.0  0.11570  0.05449  0.20844  1.0000
  H   H57       1.0  0.16743  0.08182  0.26287  1.0000
  H   H58       1.0  0.18246  0.07688  0.21729  1.0000
  C   C36       1.0  0.16738  0.06528  0.23772  1.0000
  H   H59       1.0  0.12724  0.04351  0.15191  1.0000
  H   H60       1.0  0.26659  0.12745  0.10608  1.0000
  C   C37       1.0  0.20424  0.26833  0.14292  1.0000
  H   H61       1.0  0.18220  0.11548  0.04627  1.0000
  C   C38       1.0  0.17928  0.10399  0.13231  1.0000
  H   H62       1.0  0.19103  0.04579  0.25546  1.0000
  C   C39       1.0  0.34012  0.04333  0.12770  1.0000
  H   H63       1.0  0.33141  0.16762  0.05573  1.0000
  H   H64       1.0  0.33662  0.13127  0.03577  1.0000
  C   C40       1.0  0.34610  0.28213  0.26019  1.0000
  C   C41       1.0  0.11434  0.03100  0.17340  1.0000
  H   H65       1.0  0.38755  0.09480  0.11964  1.0000
  C   C42       1.0  0.21165  0.32019  0.12086  1.0000
  H   H66       1.0  0.16474  0.26833  0.12000  1.0000
  H   H67       1.0  0.37190  0.18160  0.21746  1.0000
  C   C43       1.0  0.34902  0.14502  0.06687  1.0000
  Fe  Fe3       1.0  0.39625  0.10879  0.27529  1.0000
  H   H68       1.0  0.27575  0.28893  0.25611  1.0000
  C   C44       1.0  0.17137  0.28932  0.20584  1.0000
  C   C45       1.0  0.27890  0.13380  0.08059  1.0000
  C   C46       1.0  0.34711  0.17951  0.14556  1.0000
  H   H69       1.0  0.37947  0.03960  0.13941  1.0000
  H   H70       1.0  0.34784  0.08365  0.16654  1.0000
  H   H71       1.0  0.28988  0.07903  0.11898  1.0000
  H   H72       1.0  0.28093  0.25683  0.22432  1.0000
  H   H73       1.0  0.40137  0.11805  0.41283  1.0000
  C   C47       1.0  0.19400  0.12251  0.02085  1.0000
  H   H74       1.0  0.45055  0.21559  0.41849  1.0000
  S   S8        1.0  0.45159  0.12888  0.25670  1.0000
  H   H75       1.0  0.46498  0.03597  0.03820  1.0000
  C   C48       1.0  0.04512  0.00093  0.17323  1.0000
  C   C49       1.0  0.15025  0.30557  0.23355  1.0000
  N   N2        1.0  0.33301  0.13019  0.09875  1.0000
  Fe  Fe4       1.0  0.47222  0.08070  0.25173  1.0000
  C   C50       1.0  0.29103  0.28096  0.23358  1.0000
  C   C51       1.0  0.19012  0.31254  0.18227  1.0000
  H   H76       1.0  0.35845  0.30578  0.27145  1.0000
  C   C52       1.0  0.27343  0.30180  0.19221  1.0000
  H   H77       1.0  0.37033  0.21773  0.19165  1.0000
  H   H78       1.0  0.23143  0.21033  0.08560  1.0000
  H   H79       1.0  0.35773  0.26747  0.29015  1.0000
  S   S9        1.0  0.44609  0.10916  0.34888  1.0000
  H   H80       1.0  0.32830  0.02977  0.14904  1.0000
  H   H81       1.0  0.29581  0.29711  0.17446  1.0000
  H   H82       1.0  0.17413  0.31683  0.09426  1.0000
  H   H83       1.0  0.22460  0.20636  0.13603  1.0000
  H   H84       1.0  0.22113  0.26541  0.08571  1.0000
  Fe  Fe5       1.0  0.46888  0.06189  0.33946  1.0000
  H   H85       1.0  0.26996  0.25328  0.13782  1.0000
  H   H86       1.0  0.41770  0.19088  0.19959  1.0000
  N   N3        1.0  0.22027  0.30024  0.16040  1.0000
  H   H87       1.0  0.09220  0.30574  0.05307  1.0000
  H   H88       1.0  0.14271  0.01354  0.19041  1.0000
  C   C53       1.0  0.21659  0.08255  0.15243  1.0000
  H   H89       1.0  0.33551  0.08633  0.06985  1.0000
  H   H90       1.0  0.20013  0.27383  0.22820  1.0000
  C   C54       1.0  0.46102  0.09040  0.45995  1.0000
  H   H91       1.0  0.13685  0.28845  0.24966  1.0000
  H   H92       1.0  0.38483  0.02309  0.02587  1.0000
  S   S10       1.0  0.32409  0.13360  0.24678  1.0000
  S   S11       1.0  0.49477  0.27318  0.45268  1.0000
  H   H93       1.0  0.01811  0.23251  0.24241  1.0000
  H   H94       1.0  0.07076  0.02112  0.06246  1.0000
  H   H95       1.0  0.21009  0.33092  0.20652  1.0000
  Fe  Fe6       1.0  0.11155  0.08289  0.73808  1.0000
  S   S12       1.0  0.15040  0.12530  0.73546  1.0000
  S   S13       1.0  0.11206  0.07131  0.80462  1.0000
  Fe  Fe7       1.0  0.08447  0.06619  0.63958  1.0000
  S   S14       1.0  0.12230  0.10781  0.63122  1.0000
  S   S15       1.0  0.03209  0.03567  0.58213  1.0000
  Fe  Fe8       1.0  0.18180  0.09671  0.69930  1.0000
  Fe  Fe9       1.0  0.08841  0.13310  0.66828  1.0000
  S   S16       1.0  0.05063  0.17895  0.65240  1.0000
  S   S17       1.0  0.14685  0.05303  0.70555  1.0000
  C   C55       1.0  0.05389  0.20682  0.61593  1.0000
  C   C56       1.0  0.05492  0.25233  0.55691  1.0000
  C   C57       1.0  0.20034  0.20527  0.72021  1.0000
  C   C58       1.0  0.08038  0.09418  0.82677  1.0000
  C   C59       1.0  0.06620  0.10896  0.89056  1.0000
  C   C60       1.0  0.07853  0.20173  0.59018  1.0000
  S   S18       1.0  0.04691  0.09253  0.67340  1.0000
  H   H96       1.0  0.07582  0.10775  0.92567  1.0000
  H   H97       1.0  0.18371  0.26238  0.74206  1.0000
  H   H98       1.0  0.11576  0.22216  0.71952  1.0000
  H   H99       1.0  0.10206  0.02869  0.54484  1.0000
  H   H100      1.0  0.17482  0.22123  0.69480  1.0000
  H   H101      1.0  0.12822  0.24837  0.76471  1.0000
  H   H102      1.0  0.22566  0.26180  0.79955  1.0000
  H   H103      1.0  0.12322  0.07882  0.89403  1.0000
  C   C61       1.0  0.09289  0.09270  0.87253  1.0000
  C   C62       1.0  0.21892  0.25261  0.76621  1.0000
  H   H104      1.0  0.09703  0.18034  0.59285  1.0000
  C   C63       1.0  0.07869  0.22436  0.56049  1.0000
  H   H105      1.0  0.05451  0.21875  0.74778  1.0000
  C   C64       1.0  0.17906  0.20991  0.78246  1.0000
  C   C65       1.0  0.12794  0.22392  0.75593  1.0000
  H   H106      1.0  0.19187  0.21653  0.81808  1.0000
  H   H107      1.0  0.17393  0.18479  0.78121  1.0000
  H   H108      1.0  0.17884  0.18407  0.71562  1.0000
  H   H109      1.0  0.06043  0.12739  0.54565  1.0000
  C   C66       1.0  0.26071  0.30118  0.76110  1.0000
  N   N4        1.0  0.21634  0.21824  0.76656  1.0000
  C   C67       1.0  0.25699  0.26672  0.75343  1.0000
  H   H110      1.0  0.24608  0.26290  0.71749  1.0000
  C   C68       1.0  0.04146  0.11253  0.79938  1.0000
  C   C69       1.0  0.09046  0.20795  0.76678  1.0000
  H   H111      1.0  0.08724  0.18350  0.75703  1.0000
  H   H112      1.0  0.10054  0.20971  0.80291  1.0000
  C   C70       1.0  0.21835  0.18740  0.65704  1.0000
  C   C71       1.0  0.24044  0.19679  0.70609  1.0000
  C   C72       1.0  0.03061  0.01608  0.53470  1.0000
  C   C73       1.0  0.02576  0.12600  0.86273  1.0000
  C   C74       1.0  0.03940  0.03732  0.94413  1.0000
  H   H113      1.0  0.19745  0.20653  0.63537  1.0000
  C   C75       1.0  0.03085  0.25746  0.58311  1.0000
  C   C76       1.0  0.03019  0.23474  0.61231  1.0000
  H   H114      1.0  0.09743  0.22027  0.54033  1.0000
  H   H115      1.0  0.22527  0.31234  0.74108  1.0000
  H   H116      1.0  0.06622  0.02987  0.89514  1.0000
  H   H117      1.0  0.14340  0.12215  0.55064  1.0000
  S   S19       1.0  0.05472  0.27995  0.51851  1.0000
  H   H118      1.0  0.03142  0.11390  0.76414  1.0000
  H   H119      1.0  0.10732  0.06167  0.96121  1.0000
  H   H120      1.0  0.27292  0.30660  0.79690  1.0000
  C   C77       1.0  0.01401  0.12807  0.81722  1.0000
  C   C78       1.0  0.04650  0.01635  0.91000  1.0000
  C   C79       1.0  0.06939  0.01647  0.52375  1.0000
  H   H121      1.0  0.28763  0.31080  0.75101  1.0000
  Fe  Fe10      1.0  0.02821  0.32812  0.52004  1.0000
  H   H122      1.0  0.04482  0.08918  0.52857  1.0000
  C   C80       1.0  0.44691  0.00715  0.79753  1.0000
  H   H123      1.0  0.19407  0.16743  0.65102  1.0000
  H   H124      1.0  0.02410  0.02457  0.96341  1.0000
  C   C81       1.0  0.04280  0.11276  0.51559  1.0000
  C   C82       1.0  0.12758  0.10556  0.52270  1.0000
  H   H125      1.0  0.12911  0.08235  0.53641  1.0000
  H   H126      1.0  0.01489  0.12657  0.58259  1.0000
  C   C83       1.0  0.26461  0.20603  0.80015  1.0000
  H   H127      1.0  0.01279  0.16848  0.51431  1.0000
  H   H128      1.0  0.24611  0.16775  0.83207  1.0000
  C   C84       1.0  0.08771  0.05052  0.97801  1.0000
  H   H129      1.0  0.41066  0.07311  0.99779  1.0000
  H   H130      1.0  0.26577  0.21581  0.71108  1.0000
  H   H131      1.0  0.24757  0.18084  0.64794  1.0000
  H   H132      1.0  0.45608  0.33014  0.85595  1.0000
  C   C85       1.0  0.39559  0.10807  0.81108  1.0000
  H   H133      1.0  0.48732  0.12878  0.50541  1.0000
  C   C86       1.0  0.42661  0.32569  0.67998  1.0000
  N   N5        1.0  0.41536  0.01061  0.98095  1.0000
  H   H134      1.0  0.44937  0.01826  0.71287  1.0000
  H   H135      1.0  0.46700  0.00342  0.93164  1.0000
  H   H136      1.0  0.34904  0.06084  0.98039  1.0000
  H   H137      1.0  0.29359  0.25729  0.77343  1.0000
  H   H138      1.0  0.14986  0.10574  0.50426  1.0000
  H   H139      1.0  0.27716  0.21886  0.83215  1.0000
  H   H140      1.0  0.01478  0.05654  0.92777  1.0000
  C   C87       1.0  0.47882  0.00693  0.74204  1.0000
  H   H141      1.0  0.35350  0.13316  0.75089  1.0000
  N   N6        1.0  0.48347  0.02153  0.78474  1.0000
  C   C88       1.0  0.35887  0.09066  0.93488  1.0000
  H   H142      1.0  0.48807  0.01645  0.66313  1.0000
  C   C89       1.0  0.49326  0.10885  0.76550  1.0000
  H   H143      1.0  0.47733  0.03906  0.99181  1.0000
  H   H144      1.0  0.00844  0.02813  0.82166  1.0000
  H   H145      1.0  0.45484  0.11317  0.74183  1.0000
  H   H146      1.0  0.38619  0.00610  0.72962  1.0000
  H   H147      1.0  0.38762  0.28496  0.78058  1.0000
  S   S20       1.0  0.48063  0.14653  0.95659  1.0000
  H   H148      1.0  0.26205  0.17718  0.72566  1.0000
  H   H149      1.0  0.29316  0.20984  0.78918  1.0000
  H   H150      1.0  0.40593  0.04262  0.92892  1.0000
  H   H151      1.0  0.37444  0.28840  0.70249  1.0000
  C   C90       1.0  0.26577  0.17170  0.81170  1.0000
  H   H152      1.0  0.33507  0.17307  0.87134  1.0000
  C   C91       1.0  0.46232  0.28260  0.87441  1.0000
  C   C92       1.0  0.35352  0.06705  0.82702  1.0000
  H   H153      1.0  0.42550  0.28106  0.87010  1.0000
  C   C93       1.0  0.31042  0.09836  0.76128  1.0000
  H   H154      1.0  0.38145  0.03552  0.76513  1.0000
  H   H155      1.0  0.17245  0.10953  0.98974  1.0000
  H   H156      1.0  0.35103  0.02643  0.92376  1.0000
  C   C94       1.0  0.45391  0.29147  0.74413  1.0000
  C   C95       1.0  0.47956  0.31043  0.86633  1.0000
  C   C96       1.0  0.37732  0.06493  0.96907  1.0000
  H   H157      1.0  0.39799  0.31254  0.65234  1.0000
  H   H158      1.0  0.33948  0.16415  0.82063  1.0000
  C   C97       1.0  0.31768  0.16062  0.83912  1.0000
  C   C98       1.0  0.38682  0.03534  0.94852  1.0000
  H   H159      1.0  0.46397  0.30068  0.62071  1.0000
  H   H160      1.0  0.42812  0.12121  0.81937  1.0000
  H   H161      1.0  0.48163  0.27491  0.76578  1.0000
  C   C99       1.0  0.49192  0.28741  0.64824  1.0000
  H   H162      1.0  0.47284  0.06499  0.80948  1.0000
  H   H163      1.0  0.31757  0.13590  0.84606  1.0000
  H   H164      1.0  0.24859  0.15749  0.78121  1.0000
  H   H165      1.0  0.45178  0.01603  0.83052  1.0000
  H   H166      1.0  0.35356  0.04813  0.84754  1.0000
  S   S21       1.0  0.25873  0.10717  0.71125  1.0000
  C   C100      1.0  0.47330  0.27884  0.68269  1.0000
  C   C101      1.0  0.35324  0.11482  0.77227  1.0000
  C   C102      1.0  0.40484  0.27417  0.72574  1.0000
  N   N7        1.0  0.46738  0.30475  0.70956  1.0000
  C   C103      1.0  0.47238  0.05521  0.77856  1.0000
  H   H167      1.0  0.45303  0.30987  0.76688  1.0000
  H   H168      1.0  0.42204  0.25014  0.78794  1.0000
  H   H169      1.0  0.46871  0.24493  0.61051  1.0000
  H   H170      1.0  0.40643  0.25311  0.70803  1.0000
  H   H171      1.0  0.32593  0.08343  0.90485  1.0000
  C   C104      1.0  0.39275  0.26456  0.76339  1.0000
  H   H172      1.0  0.43534  0.05922  0.75166  1.0000
  H   H173      1.0  0.38716  0.09752  0.92474  1.0000
  H   H174      1.0  0.01111  0.23883  0.63219  1.0000
  H   H175      1.0  0.43809  0.26716  0.66333  1.0000
  H   H176      1.0  0.35873  0.25113  0.74955  1.0000
  H   H177      1.0  0.27784  0.06159  0.78068  1.0000
  C   C105      1.0  0.49240  0.25685  0.88823  1.0000
  C   C106      1.0  0.39615  0.08387  0.83829  1.0000
  S   S22       1.0  0.45044  0.07306  0.88466  1.0000
  S   S23       1.0  0.46864  0.22219  0.89671  1.0000
  C   C107      1.0  0.31053  0.07461  0.78910  1.0000
  H   H178      1.0  0.34971  0.11087  0.94964  1.0000
  Fe  Fe11      1.0  0.00415  0.14784  0.95590  1.0000
  C   C108      1.0  0.39283  0.01163  0.76418  1.0000
  H   H179      1.0  0.01230  0.27883  0.58055  1.0000
  N   N8        1.0  0.00179  0.00196  0.87350  1.0000
  H   H180      1.0  0.08111  0.06778  0.99896  1.0000
  H   H181      1.0  0.11110  0.03236  0.00002  1.0000
  H   H182      1.0  0.49731  0.26092  0.70508  1.0000
  C   C109      1.0  0.03735  0.50646  0.04438  1.0000
  C   C110      1.0  0.05886  0.41761  0.39468  1.0000
  S   S24       1.0  0.03901  0.43706  0.17359  1.0000
  H   H183      1.0  0.03785  0.54553  0.32103  1.0000
  S   S25       1.0  0.06036  0.63365  0.41995  1.0000
  C   C111      1.0  0.06732  0.43936  0.33133  1.0000
  C   C112      1.0  0.05477  0.53750  0.38924  1.0000
  C   C113      1.0  0.06665  0.55226  0.35415  1.0000
  H   H184      1.0  0.06363  0.55460  0.27019  1.0000
  H   H185      1.0  0.05316  0.51233  0.38526  1.0000
  Fe  Fe12      1.0  0.06930  0.39121  0.16772  1.0000
  S   S26       1.0  0.02364  0.34806  0.14863  1.0000
  H   H186      1.0  0.07522  0.40868  0.42820  1.0000
  H   H187      1.0  0.04336  0.55116  0.18909  1.0000
  C   C114      1.0  0.01698  0.44037  0.30745  1.0000
  S   S27       1.0  0.03861  0.59085  0.48930  1.0000
  H   H188      1.0  0.03465  0.45916  0.45712  1.0000
  H   H189      1.0  0.02330  0.36338  0.33500  1.0000
  H   H190      1.0  0.02745  0.36609  0.22881  1.0000
  C   C115      1.0  0.01270  0.36640  0.25360  1.0000
  S   S28       1.0  0.07447  0.49798  0.10216  1.0000
  C   C116      1.0  0.08813  0.42825  0.37517  1.0000
  H   H191      1.0  0.02850  0.38697  0.27407  1.0000
  C   C117      1.0  0.04598  0.48046  0.47717  1.0000
  H   H192      1.0  0.02189  0.49922  0.45746  1.0000
  H   H193      1.0  0.01901  0.54566  0.38517  1.0000
  C   C118      1.0  0.04099  0.53543  0.02796  1.0000
  H   H194      1.0  0.07722  0.51593  0.19985  1.0000
  C   C119      1.0  0.07977  0.54115  0.19906  1.0000
  H   H195      1.0  0.07528  0.34751  0.09424  1.0000
  C   C120      1.0  0.00841  0.41840  0.37049  1.0000
  H   H196      1.0  0.48789  0.47302  0.37856  1.0000
  H   H197      1.0  0.22620  0.63392  0.49766  1.0000
  N   N9        1.0  0.02785  0.33792  0.28171  1.0000
  C   C121      1.0  0.00417  0.48563  0.01470  1.0000
  C   C122      1.0  0.41699  0.51347  0.49399  1.0000
  H   H198      1.0  0.06489  0.57727  0.35787  1.0000
  H   H199      1.0  0.06641  0.55181  0.05034  1.0000
  H   H200      1.0  0.09331  0.59838  0.31287  1.0000
  H   H201      1.0  0.09181  0.54716  0.17338  1.0000
  C   C123      1.0  0.10057  0.54507  0.28116  1.0000
  H   H202      1.0  0.11393  0.64674  0.35773  1.0000
  H   H203      1.0  0.11783  0.57852  0.24131  1.0000
  H   H204      1.0  0.42824  0.49283  0.48169  1.0000
  H   H205      1.0  0.22869  0.36544  0.07094  1.0000
  C   C124      1.0  0.01144  0.34108  0.31770  1.0000
  H   H206      1.0  0.30127  0.63677  0.48656  1.0000
  Fe  Fe13      1.0  0.42186  0.61873  0.48972  1.0000
  H   H207      1.0  0.16707  0.36917  0.06371  1.0000
  H   H208      1.0  0.08226  0.54384  0.42324  1.0000
  S   S29       1.0  0.48770  0.59901  0.48585  1.0000
  Fe  Fe14      1.0  0.09025  0.45606  0.14819  1.0000
  C   C125      1.0  0.21914  0.35498  0.13017  1.0000
  H   H209      1.0  0.09263  0.33455  0.27266  1.0000
  C   C126      1.0  0.21863  0.58523  0.48834  1.0000
  H   H210      1.0  0.19715  0.60023  0.39062  1.0000
  C   C127      1.0  0.30338  0.58850  0.47527  1.0000
  H   H211      1.0  0.10364  0.36304  0.36158  1.0000
  H   H212      1.0  0.09560  0.51990  0.28052  1.0000
  H   H213      1.0  0.15186  0.54371  0.25142  1.0000
  C   C128      1.0  0.45290  0.49554  0.27043  1.0000
  S   S30       1.0  0.44113  0.42299  0.40968  1.0000
  C   C129      1.0  0.47115  0.66458  0.15785  1.0000
  Fe  Fe15      1.0  0.10383  0.61246  0.48651  1.0000
  H   H214      1.0  0.17152  0.65021  0.40597  1.0000
  C   C130      1.0  0.34071  0.38160  0.29737  1.0000
  C   C131      1.0  0.24122  0.61345  0.49069  1.0000
  H   H215      1.0  0.17738  0.35314  0.32422  1.0000
  H   H216      1.0  0.16911  0.64952  0.35127  1.0000
  H   H217      1.0  0.42470  0.65188  0.08886  1.0000
  H   H218      1.0  0.03519  0.34518  0.40847  1.0000
  C   C132      1.0  0.09839  0.48833  0.48832  1.0000
  C   C133      1.0  0.23883  0.55896  0.47965  1.0000
  C   C134      1.0  0.16646  0.35494  0.35156  1.0000
  S   S31       1.0  0.42921  0.66372  0.46118  1.0000
  C   C135      1.0  0.13151  0.59032  0.32857  1.0000
  H   H219      1.0  0.10540  0.38335  0.31568  1.0000
  H   H220      1.0  0.23662  0.49193  0.43625  1.0000
  H   H221      1.0  0.25746  0.36022  0.15295  1.0000
  S   S32       1.0  0.16656  0.58032  0.49759  1.0000
  C   C136      1.0  0.18537  0.54660  0.34122  1.0000
  H   H222      1.0  0.48590  0.48989  0.26668  1.0000
  H   H223      1.0  0.44214  0.54482  0.25524  1.0000
  H   H224      1.0  0.43726  0.59703  0.28204  1.0000
  C   C137      1.0  0.20582  0.37270  0.08713  1.0000
  C   C138      1.0  0.42745  0.52265  0.23899  1.0000
  C   C139      1.0  0.38695  0.41375  0.36168  1.0000
  H   H225      1.0  0.22192  0.53714  0.47774  1.0000
  C   C140      1.0  0.11221  0.36112  0.33287  1.0000
  H   H226      1.0  0.40457  0.53155  0.30330  1.0000
  C   C141      1.0  0.11603  0.55346  0.24439  1.0000
  Fe  Fe16      1.0  0.17383  0.41400  0.21018  1.0000
  H   H227      1.0  0.14411  0.54617  0.39472  1.0000
  H   H228      1.0  0.28520  0.46474  0.45353  1.0000
  S   S33       1.0  0.10492  0.45436  0.30880  1.0000
  H   H229      1.0  0.47614  0.65713  0.19100  1.0000
  H   H230      1.0  0.10068  0.49085  0.45648  1.0000
  C   C142      1.0  0.24683  0.50581  0.34859  1.0000
  C   C143      1.0  0.28393  0.61504  0.48465  1.0000
  H   H231      1.0  0.18693  0.37407  0.37370  1.0000
  H   H232      1.0  0.42368  0.49032  0.38331  1.0000
  C   C144      1.0  0.37429  0.52768  0.36482  1.0000
  C   C145      1.0  0.08222  0.33541  0.30050  1.0000
  H   H233      1.0  0.21171  0.39743  0.09484  1.0000
  H   H234      1.0  0.17703  0.48833  0.46697  1.0000
  N   N10       1.0  0.46434  0.50036  0.31873  1.0000
  H   H235      1.0  0.37015  0.55118  0.35138  1.0000
  H   H236      1.0  0.22348  0.45186  0.42335  1.0000
  H   H237      1.0  0.17096  0.44840  0.46445  1.0000
  C   C146      1.0  0.43289  0.52091  0.19590  1.0000
  H   H238      1.0  0.45154  0.52725  0.38942  1.0000
  H   H239      1.0  0.34225  0.51387  0.34318  1.0000
  Fe  Fe17      1.0  0.10160  0.43898  0.24216  1.0000
  H   H240      1.0  0.11528  0.51668  0.35586  1.0000
  H   H241      1.0  0.20846  0.55260  0.37672  1.0000
  H   H242      1.0  0.47161  0.52280  0.20314  1.0000
  S   S34       1.0  0.15136  0.46143  0.21810  1.0000
  C   C147      1.0  0.24512  0.46421  0.49286  1.0000
  H   H243      1.0  0.19615  0.36392  0.14519  1.0000
  H   H244      1.0  0.12705  0.42734  0.39365  1.0000
  C   C148      1.0  0.42905  0.64651  0.12281  1.0000
  H   H245      1.0  0.38814  0.52231  0.22988  1.0000
  H   H246      1.0  0.43631  0.62172  0.12874  1.0000
  C   C149      1.0  0.47927  0.62216  0.34262  1.0000
  H   H247      1.0  0.41782  0.49917  0.17807  1.0000
  C   C150      1.0  0.11715  0.54193  0.35959  1.0000
  S   S35       1.0  0.12777  0.39203  0.23796  1.0000
  H   H248      1.0  0.42894  0.47527  0.25678  1.0000
  H   H249      1.0  0.34969  0.45413  0.36656  1.0000
  H   H250      1.0  0.33862  0.36151  0.27787  1.0000
  C   C151      1.0  0.30092  0.40150  0.28315  1.0000
  C   C152      1.0  0.48041  0.47045  0.34307  1.0000
  S   S36       1.0  0.35511  0.58804  0.46484  1.0000
  C   C153      1.0  0.24754  0.46841  0.44869  1.0000
  S   S37       1.0  0.24899  0.39341  0.23250  1.0000
  H   H251      1.0  0.27400  0.44314  0.29780  1.0000
  C   C154      1.0  0.42037  0.51292  0.36747  1.0000
  N   N11       1.0  0.13365  0.55597  0.32763  1.0000
  H   H252      1.0  0.18417  0.49860  0.35941  1.0000
  H   H253      1.0  0.29452  0.54005  0.46505  1.0000
  S   S38       1.0  0.11693  0.40983  0.13865  1.0000
  C   C155      1.0  0.15792  0.60544  0.37522  1.0000
  C   C156      1.0  0.15266  0.64009  0.37210  1.0000
  H   H254      1.0  0.39491  0.65168  0.12494  1.0000
  C   C157      1.0  0.30424  0.42756  0.30856  1.0000
  H   H255      1.0  0.37597  0.52902  0.39854  1.0000
  C   C158      1.0  0.38331  0.38750  0.33662  1.0000
  H   H256      1.0  0.14295  0.59760  0.39796  1.0000
  H   H257      1.0  0.41360  0.37197  0.34709  1.0000
  H   H258      1.0  0.20092  0.55966  0.32220  1.0000
  H   H259      1.0  0.38875  0.49237  0.30175  1.0000
  H   H260      1.0  0.17202  0.50371  0.30235  1.0000
  C   C159      1.0  0.28018  0.56063  0.47252  1.0000
  H   H261      1.0  0.45064  0.45331  0.32854  1.0000
  H   H262      1.0  0.27092  0.51403  0.38275  1.0000
  H   H263      1.0  0.14787  0.60029  0.30795  1.0000
  H   H264      1.0  0.41311  0.54016  0.17386  1.0000
  H   H265      1.0  0.25231  0.48089  0.34703  1.0000
  C   C160      1.0  0.19382  0.51216  0.33674  1.0000
  H   H266      1.0  0.45320  0.61923  0.35570  1.0000
  C   C161      1.0  0.47032  0.60959  0.30085  1.0000
  H   H267      1.0  0.37685  0.51386  0.47911  1.0000
  C   C162      1.0  0.41780  0.50934  0.32033  1.0000
  H   H268      1.0  0.25683  0.51723  0.32435  1.0000
  C   C163      1.0  0.34725  0.43379  0.34740  1.0000
  C   C164      1.0  0.19234  0.46725  0.48667  1.0000
  H   H269      1.0  0.42970  0.53390  0.48273  1.0000
  H   H270      1.0  0.00060  0.44987  0.27429  1.0000
  S   S39       1.0  0.49195  0.35414  0.49208  1.0000
  H   H271      1.0  0.48403  0.54769  0.33735  1.0000
  H   H272      1.0  0.00070  0.46329  0.02648  1.0000
  S   S40       1.0  0.49100  0.59726  0.23042  1.0000
  H   H273      1.0  0.12030  0.44136  0.49818  1.0000
  Fe  Fe18      1.0  0.05935  0.39122  0.56089  1.0000
  S   S41       1.0  0.11612  0.42408  0.60786  1.0000
  H   H274      1.0  0.15884  0.50185  0.58743  1.0000
  C   C165      1.0  0.20890  0.43192  0.67326  1.0000
  C   C166      1.0  0.17359  0.41080  0.64655  1.0000
  C   C167      1.0  0.18491  0.37979  0.65071  1.0000
  H   H275      1.0  0.20017  0.45591  0.67068  1.0000
  H   H276      1.0  0.15803  0.36333  0.63031  1.0000
  C   C168      1.0  0.19705  0.50453  0.59377  1.0000
  H   H277      1.0  0.10256  0.49959  0.63418  1.0000
  C   C169      1.0  0.23115  0.36999  0.68155  1.0000
  H   H278      1.0  0.23955  0.34594  0.68462  1.0000
  H   H279      1.0  0.08629  0.53203  0.65767  1.0000
  C   C170      1.0  0.04787  0.45667  0.65712  1.0000
  C   C171      1.0  0.07518  0.53784  0.59052  1.0000
  C   C172      1.0  0.07372  0.40481  0.69278  1.0000
  H   H280      1.0  0.11167  0.54793  0.60137  1.0000
  H   H281      1.0  0.03854  0.44409  0.62550  1.0000
  H   H282      1.0  0.08669  0.46278  0.66967  1.0000
  C   C173      1.0  0.02402  0.50332  0.61330  1.0000
  H   H283      1.0  0.05724  0.39315  0.65991  1.0000
  H   H284      1.0  0.04902  0.55686  0.58319  1.0000
  H   H285      1.0  0.07336  0.50271  0.71030  1.0000
  C   C174      1.0  0.07490  0.51759  0.62746  1.0000
  H   H286      1.0  0.12825  0.46026  0.54736  1.0000
  C   C175      1.0  0.03343  0.50446  0.68991  1.0000
  H   H287      1.0  0.07193  0.50914  0.78372  1.0000
  C   C176      1.0  0.20372  0.49839  0.55122  1.0000
  H   H288      1.0  0.20933  0.44347  0.59086  1.0000
  C   C177      1.0  0.21506  0.44305  0.56044  1.0000
  H   H289      1.0  0.21975  0.48881  0.62085  1.0000
  C   C178      1.0  0.21266  0.53693  0.61103  1.0000
  H   H290      1.0  0.06359  0.44410  0.72527  1.0000
  C   C179      1.0  0.04592  0.43396  0.69142  1.0000
  H   H291      1.0  0.07257  0.38902  0.71810  1.0000
  H   H292      1.0  0.11220  0.41003  0.70171  1.0000
  H   H293      1.0  0.06596  0.52441  0.55968  1.0000
  H   H294      1.0  0.20926  0.54042  0.64234  1.0000
  C   C180      1.0  0.24158  0.38770  0.57228  1.0000
  H   H295      1.0  0.26925  0.48149  0.51644  1.0000
  S   S42       1.0  0.02612  0.35136  0.57902  1.0000
  C   C181      1.0  0.20269  0.40998  0.54236  1.0000
  H   H296      1.0  0.22996  0.36397  0.56104  1.0000
  H   H297      1.0  0.24295  0.50119  0.56124  1.0000
  H   H298      1.0  0.18925  0.55387  0.58625  1.0000
  H   H299      1.0  0.24754  0.38993  0.60735  1.0000
  H   H300      1.0  0.18615  0.51729  0.52743  1.0000
  H   H301      1.0  0.25444  0.44704  0.57254  1.0000
  Fe  Fe19      1.0  0.03201  0.63457  0.52171  1.0000
  S   S43       1.0  0.10083  0.65438  0.52409  1.0000
  C   C182      1.0  0.25549  0.42214  0.70356  1.0000
  S   S44       1.0  0.01827  0.64283  0.58256  1.0000
  N   N12       1.0  0.01732  0.48498  0.64832  1.0000
  C   C183      1.0  0.03390  0.51675  0.76434  1.0000
  S   S45       1.0  0.32370  0.37728  0.74716  1.0000
  H   H302      1.0  0.01726  0.48895  0.58370  1.0000
  C   C184      1.0  0.01225  0.54346  0.98283  1.0000
  H   H303      1.0  0.01580  0.56579  0.97106  1.0000
  H   H304      1.0  0.25982  0.44128  0.50571  1.0000
  H   H305      1.0  0.02598  0.52902  0.68083  1.0000
  H   H306      1.0  0.25092  0.54096  0.61802  1.0000
  H   H307      1.0  0.00830  0.42730  0.68334  1.0000
  N   N13       1.0  0.18613  0.46790  0.52886  1.0000
  C   C185      1.0  0.00906  0.49857  0.72100  1.0000
  H   H308      1.0  0.03339  0.54151  0.75729  1.0000
  H   H309      1.0  0.01439  0.51325  0.78496  1.0000
  H   H310      1.0  0.00952  0.47428  0.72970  1.0000
  C   C186      1.0  0.37467  0.58550  0.59165  1.0000
  H   H311      1.0  0.16782  0.40292  0.54173  1.0000
  H   H312      1.0  0.01165  0.65585  0.66321  1.0000
  H   H313      1.0  0.47870  0.51169  0.55711  1.0000
  H   H314      1.0  0.34556  0.56818  0.57904  1.0000
  H   H315      1.0  0.46213  0.34735  0.64209  1.0000
  Fe  Fe20      1.0  0.47143  0.43385  0.76181  1.0000
  H   H316      1.0  0.37291  0.35490  0.59745  1.0000
  H   H317      1.0  0.49237  0.54269  0.79307  1.0000
  H   H318      1.0  0.19939  0.40759  0.50822  1.0000
  H   H319      1.0  0.28237  0.43852  0.72418  1.0000
  C   C187      1.0  0.35806  0.61158  0.61186  1.0000
  C   C188      1.0  0.39473  0.37009  0.62592  1.0000
  H   H320      1.0  0.32246  0.47641  0.61665  1.0000
  C   C189      1.0  0.26667  0.39106  0.70808  1.0000
  H   H321      1.0  0.27627  0.39208  0.57079  1.0000
  H   H322      1.0  0.35475  0.50761  0.57404  1.0000
  H   H323      1.0  0.37885  0.47993  0.66590  1.0000
  H   H324      1.0  0.37228  0.37783  0.64235  1.0000
  H   H325      1.0  0.46080  0.37016  0.68578  1.0000
  S   S46       1.0  0.44854  0.38599  0.76359  1.0000
  H   H326      1.0  0.40562  0.39044  0.61291  1.0000
  C   C190      1.0  0.37166  0.50939  0.61087  1.0000
  H   H327      1.0  0.37659  0.45988  0.61777  1.0000
  H   H328      1.0  0.42189  0.56907  0.65791  1.0000
  H   H329      1.0  0.48298  0.54701  0.94368  1.0000
  S   S47       1.0  0.41235  0.45347  0.77610  1.0000
  H   H330      1.0  0.37871  0.59491  0.56280  1.0000
  H   H331      1.0  0.48847  0.54936  0.84437  1.0000
  H   H332      1.0  0.40804  0.33569  0.69892  1.0000
  H   H333      1.0  0.32339  0.62096  0.58628  1.0000
  H   H334      1.0  0.35380  0.52779  0.62086  1.0000
  H   H335      1.0  0.38531  0.63020  0.62328  1.0000
  C   C191      1.0  0.42659  0.51563  0.63054  1.0000
  H   H336      1.0  0.45027  0.59112  0.63208  1.0000
  C   C192      1.0  0.43896  0.51285  0.54482  1.0000
  Fe  Fe21      1.0  0.46630  0.45021  0.84921  1.0000
  S   S48       1.0  0.46326  0.63322  0.56122  1.0000
  N   N14       1.0  0.44143  0.54318  0.61288  1.0000
  C   C193      1.0  0.43993  0.35357  0.65922  1.0000
  H   H337      1.0  0.42632  0.49167  0.55429  1.0000
  H   H338      1.0  0.38385  0.54244  0.54497  1.0000
  S   S49       1.0  0.44224  0.40273  0.85661  1.0000
  H   H339      1.0  0.43952  0.51766  0.66718  1.0000
  H   H340      1.0  0.43667  0.56192  0.55154  1.0000
  C   C194      1.0  0.36192  0.47955  0.62888  1.0000
  H   H341      1.0  0.44478  0.49488  0.62637  1.0000
  H   H342      1.0  0.35207  0.60334  0.64030  1.0000
  Fe  Fe22      1.0  0.39294  0.40494  0.78260  1.0000
  C   C195      1.0  0.42386  0.57219  0.62578  1.0000
  C   C196      1.0  0.42387  0.54150  0.56300  1.0000
  S   S50       1.0  0.47670  0.49295  0.89265  1.0000
  H   H343      1.0  0.47297  0.44823  0.61322  1.0000
  S   S51       1.0  0.06722  0.36685  0.50552  1.0000
  S   S52       1.0  0.48251  0.45074  0.70276  1.0000
  H   H344      1.0  0.04169  0.47745  0.50812  1.0000
  C   C197      1.0  0.13341  0.46310  0.51693  1.0000
  H   H345      1.0  0.10690  0.51056  0.50604  1.0000
  C   C198      1.0  0.49605  0.54426  0.63411  1.0000
  C   C199      1.0  0.05287  0.88147  0.18030  1.0000
  H   H346      1.0  0.06030  0.89956  0.44121  1.0000
  C   C200      1.0  0.02974  0.77518  0.39244  1.0000
  H   H347      1.0  0.03982  0.86190  0.44024  1.0000
  C   C201      1.0  0.05071  0.88881  0.13862  1.0000
  H   H348      1.0  0.06096  0.77513  0.38575  1.0000
  S   S53       1.0  0.06495  0.72064  0.43397  1.0000
  Fe  Fe23      1.0  0.04155  0.88942  0.01910  1.0000
  C   C202      1.0  0.01792  0.89248  0.19281  1.0000
  S   S54       1.0  0.02193  0.88190  0.24518  1.0000
  H   H349      1.0  0.07794  0.88023  0.12946  1.0000
  H   H350      1.0  0.04212  0.82771  0.09006  1.0000
  C   C203      1.0  0.01396  0.90770  0.10938  1.0000
  C   C204      1.0  0.04391  0.81139  0.11594  1.0000
  H   H351      1.0  0.03990  0.82423  0.14237  1.0000
  C   C205      1.0  0.02389  0.98461  0.45754  1.0000
  H   H352      1.0  0.08176  0.86708  0.20300  1.0000
  C   C206      1.0  0.06758  0.87847  0.46166  1.0000
  H   H353      1.0  0.01831  0.96130  0.22189  1.0000
  S   S55       1.0  0.01054  0.91799  0.05711  1.0000
  Fe  Fe24      1.0  0.05217  0.67429  0.45703  1.0000
  C   C207      1.0  0.02263  0.75088  0.41607  1.0000
  H   H354      1.0  0.00951  0.99041  0.15107  1.0000
  H   H355      1.0  0.01036  0.92185  0.48404  1.0000
  H   H356      1.0  0.00176  0.81757  0.35781  1.0000
  C   C208      1.0  0.49250  0.71589  0.04552  1.0000
  C   C209      1.0  0.00413  0.78677  0.09497  1.0000
  H   H357      1.0  0.01163  0.76834  0.11996  1.0000
  H   H358      1.0  0.01135  0.77651  0.06810  1.0000
  S   S56       1.0  0.09377  0.85033  0.04146  1.0000
  H   H359      1.0  0.49761  0.97941  0.04608  1.0000
  H   H360      1.0  0.45618  0.70863  0.02326  1.0000
  C   C210      1.0  0.09444  0.79731  0.13610  1.0000
  C   C211      1.0  0.05727  0.96736  0.23909  1.0000
  H   H361      1.0  0.42167  0.95750  0.03194  1.0000
  H   H362      1.0  0.04315  0.82320  0.48096  1.0000
  Fe  Fe25      1.0  0.48759  0.82081  0.00514  1.0000
  H   H363      1.0  0.18401  0.73832  0.00411  1.0000
  H   H364      1.0  0.03937  0.97894  0.09804  1.0000
  S   S57       1.0  0.99880  0.88853  0.34781  1.0000
  H   H365      1.0  0.11013  0.87999  0.40320  1.0000
  H   H366      1.0  0.08845  0.84174  0.40402  1.0000
  H   H367      1.0  0.14671  0.88193  0.48586  1.0000
  C   C212      1.0  0.11702  0.86550  0.46798  1.0000
  H   H368      1.0  0.11613  0.76520  0.01022  1.0000
  C   C213      1.0  0.01295  0.89721  0.49277  1.0000
  H   H369      1.0  0.06212  0.98675  0.26210  1.0000
  H   H370      1.0  0.30580  0.85097  0.05798  1.0000
  C   C214      1.0  0.07387  0.99156  0.11740  1.0000
  H   H371      1.0  0.09899  0.78129  0.16326  1.0000
  H   H372      1.0  0.10078  0.78502  0.11011  1.0000
  C   C215      1.0  0.07635  0.97561  0.20548  1.0000
  H   H373      1.0  0.44957  0.71603  0.41185  1.0000
  H   H374      1.0  0.35667  0.77470  0.00991  1.0000
  C   C216      1.0  0.49251  0.98932  0.46278  1.0000
  H   H375      1.0  0.37084  0.86727  0.03835  1.0000
  H   H376      1.0  0.47090  0.93078  0.12565  1.0000
  H   H377      1.0  0.45470  0.98299  0.44644  1.0000
  H   H378      1.0  0.16444  0.75605  0.06391  1.0000
  H   H379      1.0  0.07534  0.95459  0.18653  1.0000
  H   H380      1.0  0.05611  0.96884  0.03241  1.0000
  H   H381      1.0  0.11452  0.98275  0.22477  1.0000
  H   H382      1.0  0.42392  0.80560  0.09444  1.0000
  H   H383      1.0  0.40483  0.74584  0.39563  1.0000
  H   H384      1.0  0.12199  0.81563  0.15021  1.0000
  H   H385      1.0  0.42446  0.70420  0.14432  1.0000
  H   H386      1.0  0.07749  0.94745  0.25914  1.0000
  H   H387      1.0  0.12529  0.84378  0.48679  1.0000
  S   S58       1.0  0.46557  0.77141  0.00408  1.0000
  N   N15       1.0  0.49705  0.72017  0.18743  1.0000
  H   H388      1.0  0.43406  0.73368  0.45285  1.0000
  C   C217      1.0  0.11679  0.85879  0.42312  1.0000
  H   H389      1.0  0.48234  0.76517  0.40119  1.0000
  C   C218      1.0  0.24990  0.87760  0.00708  1.0000
  H   H390      1.0  0.42789  0.72213  0.27225  1.0000
  H   H391      1.0  0.44082  0.73575  0.20447  1.0000
  C   C219      1.0  0.09364  0.97637  0.05422  1.0000
  H   H392      1.0  0.42774  0.75082  0.10787  1.0000
  H   H393      1.0  0.11466  0.95673  0.07442  1.0000
  H   H394      1.0  0.44889  0.68337  0.22956  1.0000
  C   C220      1.0  0.41105  0.97822  0.04422  1.0000
  H   H395      1.0  0.34243  0.95814  0.03472  1.0000
  H   H396      1.0  0.48056  0.81163  0.14323  1.0000
  C   C221      1.0  0.45929  0.79510  0.11649  1.0000
  H   H397      1.0  0.36444  0.98826  0.07617  1.0000
  H   H398      1.0  0.47892  0.79038  0.09628  1.0000
  H   H399      1.0  0.49155  0.72650  0.31013  1.0000
  C   C222      1.0  0.47885  0.76171  0.43236  1.0000
  H   H400      1.0  0.15764  0.79462  0.04371  1.0000
  C   C223      1.0  0.18763  0.76298  0.01220  1.0000
  S   S59       1.0  0.20508  0.86455  0.02286  1.0000
  S   S60       1.0  0.47474  0.85277  0.05105  1.0000
  H   H401      1.0  0.46422  0.70389  0.11902  1.0000
  H   H402      1.0  0.22528  0.76755  0.03742  1.0000
  C   C224      1.0  0.47703  0.69998  0.25029  1.0000
  C   C225      1.0  0.47850  0.72699  0.22128  1.0000
  H   H403      1.0  0.11051  0.98394  0.03282  1.0000
  C   C226      1.0  0.37521  0.96847  0.06187  1.0000
  C   C227      1.0  0.33448  0.87582  0.01958  1.0000
  C   C228      1.0  0.45112  0.76559  0.13623  1.0000
  H   H404      1.0  0.10025  0.97426  0.13883  1.0000
  H   H405      1.0  0.44337  0.98775  0.07271  1.0000
  C   C229      1.0  0.43954  0.73777  0.42270  1.0000
  C   C230      1.0  0.46253  0.69937  0.15101  1.0000
  H   H406      1.0  0.46587  0.78314  0.44108  1.0000
  H   H407      1.0  0.43113  0.77152  0.15565  1.0000
  S   S61       1.0  0.02236  0.96503  0.41004  1.0000
  C   C231      1.0  0.29747  0.86667  0.03073  1.0000
  H   H408      1.0  0.46172  0.69066  0.30626  1.0000
  C   C232      1.0  0.15434  0.77024  0.03372  1.0000
  H   H409      1.0  0.39194  0.95107  0.08827  1.0000
  H   H410      1.0  0.15240  0.84938  0.42855  1.0000
  C   C233      1.0  0.46371  0.71066  0.28688  1.0000
  S   S62       1.0  0.07163  0.84126  0.93644  1.0000
  C   C234      1.0  0.09881  0.91063  0.52779  1.0000
  C   C235      1.0  0.07557  0.85824  0.53439  1.0000
  H   H411      1.0  0.20351  0.90678  0.95364  1.0000
  H   H412      1.0  0.13660  0.90209  0.54123  1.0000
  H   H413      1.0  0.11484  0.85295  0.54795  1.0000
  H   H414      1.0  0.17128  0.87269  0.87151  1.0000
  H   H415      1.0  0.18646  0.84110  0.84562  1.0000
  H   H416      1.0  0.12781  0.84266  0.84583  1.0000
  C   C236      1.0  0.13458  0.94895  0.59126  1.0000
  S   S63       1.0  0.07367  0.91038  0.97670  1.0000
  H   H417      1.0  0.16807  0.83916  0.92845  1.0000
  N   N16       1.0  0.20336  0.77685  0.94456  1.0000
  C   C237      1.0  0.20084  0.74371  0.93148  1.0000
  C   C238      1.0  0.18238  0.79587  0.90276  1.0000
  C   C239      1.0  0.18775  0.83093  0.90978  1.0000
  H   H418      1.0  0.13509  0.78050  0.94816  1.0000
  C   C240      1.0  0.16695  0.84772  0.86531  1.0000
  H   H419      1.0  0.21792  0.74029  0.90875  1.0000
  H   H420      1.0  0.19831  0.78918  0.88002  1.0000
  H   H421      1.0  0.14293  0.79141  0.88357  1.0000
  H   H422      1.0  0.22617  0.83781  0.92832  1.0000
  H   H423      1.0  0.13569  0.96620  0.56756  1.0000
  H   H424      1.0  0.12849  0.96105  0.61751  1.0000
  C   C241      1.0  0.09369  0.92612  0.56728  1.0000
  H   H425      1.0  0.09475  0.90919  0.59213  1.0000
  H   H426      1.0  0.07006  0.86361  0.56422  1.0000
  H   H427      1.0  0.04308  0.77886  0.91500  1.0000
  Fe  Fe26      1.0  0.02010  0.88076  0.92178  1.0000
  C   C242      1.0  0.02704  0.75700  0.91465  1.0000
  C   C243      1.0  0.02559  0.73450  0.88423  1.0000
  H   H428      1.0  0.04032  0.73924  0.86106  1.0000
  H   H429      1.0  0.13024  0.73074  0.92856  1.0000
  H   H430      1.0  0.12733  0.74200  0.87583  1.0000
  C   C244      1.0  0.14934  0.72979  0.90733  1.0000
  C   C245      1.0  0.17456  0.78282  0.97019  1.0000
  H   H431      1.0  0.17002  0.93709  0.60719  1.0000
  Fe  Fe27      1.0  0.03978  0.82543  0.98121  1.0000
  C   C246      1.0  0.25558  0.78502  0.97373  1.0000
  H   H432      1.0  0.22239  0.72936  0.96109  1.0000
  C   C247      1.0  0.07086  0.80103  0.54391  1.0000
  C   C248      1.0  0.23984  0.89808  0.97211  1.0000
  H   H433      1.0  0.04296  0.82133  0.82438  1.0000
  C   C249      1.0  0.15148  0.69632  0.89565  1.0000
  H   H434      1.0  0.10719  0.79704  0.54559  1.0000
  H   H435      1.0  0.09583  0.92922  0.50399  1.0000
  H   H436      1.0  0.16893  0.69385  0.87311  1.0000
  H   H437      1.0  0.44287  0.79955  0.79635  1.0000
  H   H438      1.0  0.04041  0.92800  0.81353  1.0000
  C   C250      1.0  0.07082  0.94339  0.83415  1.0000
  H   H439      1.0  0.09170  0.93301  0.86750  1.0000
  H   H440      1.0  0.25836  0.80786  0.98929  1.0000
  C   C251      1.0  0.05165  0.97476  0.83847  1.0000
  H   H441      1.0  0.27791  0.80139  0.92325  1.0000
  H   H442      1.0  0.17935  0.80679  0.98198  1.0000
  H   H443      1.0  0.04856  0.78033  0.52936  1.0000
  C   C252      1.0  0.32460  0.89626  0.98470  1.0000
  H   H444      1.0  0.09510  0.94572  0.81788  1.0000
  C   C253      1.0  0.00530  0.70583  0.88359  1.0000
  S   S64       1.0  0.00664  0.67807  0.84609  1.0000
  H   H445      1.0  0.08308  0.98946  0.85876  1.0000
  H   H446      1.0  0.03361  0.95681  0.88875  1.0000
  Fe  Fe28      1.0  0.12273  0.86912  0.99512  1.0000
  H   H447      1.0  0.48008  0.76757  0.67616  1.0000
  C   C254      1.0  0.28946  0.78454  0.95063  1.0000
  C   C255      1.0  0.01611  0.97225  0.85963  1.0000
  N   N17       1.0  0.06309  0.88543  0.50380  1.0000
  H   H448      1.0  0.26903  0.92346  0.93434  1.0000
  C   C256      1.0  0.27710  0.90749  0.96122  1.0000
  C   C257      1.0  0.00819  0.75099  0.94473  1.0000
  H   H449      1.0  0.01416  0.97294  0.95097  1.0000
  H   H450      1.0  0.07440  0.80448  0.57807  1.0000
  S   S65       1.0  0.01059  0.77865  0.98394  1.0000
  H   H451      1.0  0.05915  0.93896  0.55530  1.0000
  H   H452      1.0  0.40582  0.00050  0.88938  1.0000
  H   H453      1.0  0.07259  0.99845  0.93025  1.0000
  H   H454      1.0  0.11419  0.68698  0.87834  1.0000
  H   H455      1.0  0.17176  0.68272  0.92628  1.0000
  H   H456      1.0  0.34330  0.81486  0.99919  1.0000
  H   H457      1.0  0.49384  0.97616  0.67617  1.0000
  C   C258      1.0  0.49747  0.78144  0.57848  1.0000
  H   H458      1.0  0.41084  0.85639  0.61756  1.0000
  H   H459      1.0  0.35080  0.99547  0.98473  1.0000
  C   C259      1.0  0.46383  0.82510  0.66361  1.0000
  C   C260      1.0  0.43430  0.98876  0.91854  1.0000
  H   H460      1.0  0.37864  0.97333  0.93613  1.0000
  H   H461      1.0  0.36822  0.96689  0.77400  1.0000
  H   H462      1.0  0.29003  0.76170  0.93666  1.0000
  C   C261      1.0  0.49478  0.90532  0.79496  1.0000
  H   H463      1.0  0.46144  0.83444  0.74658  1.0000
  H   H464      1.0  0.47273  0.86827  0.63603  1.0000
  H   H465      1.0  0.36424  0.79327  0.96559  1.0000
  Fe  Fe29      1.0  0.47504  0.67716  0.53272  1.0000
  H   H466      1.0  0.45541  0.96349  0.87414  1.0000
  H   H467      1.0  0.43748  0.96425  0.97586  1.0000
  S   S66       1.0  0.46129  0.72378  0.55413  1.0000
  H   H468      1.0  0.36433  0.99669  0.80982  1.0000
  H   H469      1.0  0.46226  0.83697  0.81967  1.0000
  H   H470      1.0  0.44440  0.87130  0.67302  1.0000
  C   C262      1.0  0.41583  0.98303  0.95407  1.0000
  H   H471      1.0  0.45280  0.98210  0.80154  1.0000
  H   H472      1.0  0.46083  0.81115  0.63480  1.0000
  H   H473      1.0  0.32157  0.99552  0.75193  1.0000
  H   H474      1.0  0.47745  0.94753  0.92895  1.0000
  S   S67       1.0  0.45142  0.85082  0.94472  1.0000
  H   H475      1.0  0.47608  0.89716  0.84925  1.0000
  H   H476      1.0  0.46712  0.98267  0.73981  1.0000
  H   H477      1.0  0.47051  0.78009  0.73892  1.0000
  S   S68       1.0  0.37092  0.90911  0.97076  1.0000
  C   C263      1.0  0.44603  0.95887  0.90187  1.0000
  H   H478      1.0  0.41440  0.94323  0.88959  1.0000
  Fe  Fe30      1.0  0.44287  0.88395  0.99230  1.0000
  H   H479      1.0  0.46008  0.78872  0.56248  1.0000
  H   H480      1.0  0.45798  0.91027  0.77106  1.0000
  C   C264      1.0  0.44712  0.85729  0.64659  1.0000
  C   C265      1.0  0.35993  0.99134  0.77586  1.0000
  H   H481      1.0  0.43850  0.81547  0.67555  1.0000
  C   C266      1.0  0.34147  0.79231  0.98354  1.0000
  H   H482      1.0  0.03298  0.98446  0.80442  1.0000
  H   H483      1.0  0.47235  0.71268  0.67183  1.0000
  H   H484      1.0  0.00591  0.89574  0.52254  1.0000
  C   C267      1.0  0.04664  0.82853  0.51456  1.0000
  C   C268      1.0  0.00394  0.82428  0.80159  1.0000
  C   C269      1.0  0.47401  0.81556  0.80964  1.0000
  C   C270      1.0  0.49128  0.82247  0.77438  1.0000
  H   H485      1.0  0.01001  0.83053  0.51288  1.0000
  H   H486      1.0  0.27167  0.76899  0.00226  1.0000
  C   C271      1.0  0.73613  0.21758  0.05650  1.0000
  H   H487      1.0  0.65033  0.04423  0.18540  1.0000
  H   H488      1.0  0.61184  0.11121  0.40974  1.0000
  H   H489      1.0  0.64750  0.02982  0.25506  1.0000
  C   C272      1.0  0.52678  0.11338  0.17835  1.0000
  S   S69       1.0  0.56824  0.14208  0.08516  1.0000
  H   H490      1.0  0.76082  0.23325  0.47417  1.0000
  C   C273      1.0  0.61651  0.09899  0.47452  1.0000
  S   S70       1.0  0.55549  0.16358  0.36431  1.0000
  C   C274      1.0  0.69530  0.28796  0.46348  1.0000
  H   H491      1.0  0.66146  0.27752  0.46079  1.0000
  N   N18       1.0  0.54949  0.11030  0.49937  1.0000
  S   S71       1.0  0.89907  0.14306  0.04291  1.0000
  H   H492      1.0  0.71779  0.30612  0.41476  1.0000
  H   H493      1.0  0.54672  0.02252  0.09396  1.0000
  H   H494      1.0  0.56530  0.03236  0.05149  1.0000
  H   H495      1.0  0.68494  0.27371  0.01954  1.0000
  H   H496      1.0  0.87283  0.27143  0.49719  1.0000
  C   C275      1.0  0.55312  0.01343  0.06605  1.0000
  C   C276      1.0  0.80645  0.13685  0.03422  1.0000
  H   H497      1.0  0.57202  0.26694  0.42566  1.0000
  H   H498      1.0  0.82382  0.13589  0.07022  1.0000
  H   H499      1.0  0.95051  0.03338  0.39927  1.0000
  C   C277      1.0  0.53563  0.19495  0.38495  1.0000
  H   H500      1.0  0.64271  0.29696  0.34751  1.0000
  H   H501      1.0  0.76995  0.20387  0.07044  1.0000
  C   C278      1.0  0.94499  0.20674  0.46064  1.0000
  H   H502      1.0  0.50467  0.08840  0.05931  1.0000
  C   C279      1.0  0.61321  0.03712  0.22689  1.0000
  H   H503      1.0  0.59405  0.22362  0.38976  1.0000
  H   H504      1.0  0.72379  0.20727  0.11393  1.0000
  H   H505      1.0  0.57533  0.03092  0.44579  1.0000
  H   H506      1.0  0.56881  0.14992  0.17008  1.0000
  H   H507      1.0  0.75934  0.27602  0.01277  1.0000
  C   C280      1.0  0.51073  0.09542  0.09232  1.0000
  H   H508      1.0  0.92926  0.11364  0.42585  1.0000
  H   H509      1.0  0.78505  0.28107  0.46660  1.0000
  C   C281      1.0  0.69843  0.18762  0.47605  1.0000
  C   C282      1.0  0.54684  0.13007  0.15475  1.0000
  C   C283      1.0  0.53930  0.12113  0.11181  1.0000
  H   H510      1.0  0.96515  0.25152  0.23991  1.0000
  H   H511      1.0  0.87949  0.20783  0.01406  1.0000
  C   C284      1.0  0.94959  0.05868  0.39773  1.0000
  C   C285      1.0  0.55056  0.24635  0.41654  1.0000
  H   H512      1.0  0.96944  0.03994  0.13040  1.0000
  H   H513      1.0  0.78098  0.31269  0.49784  1.0000
  H   H514      1.0  0.57839  0.01586  0.28049  1.0000
  H   H515      1.0  0.64564  0.07770  0.21458  1.0000
  C   C286      1.0  0.69323  0.28816  0.41638  1.0000
  C   C287      1.0  0.70415  0.20560  0.07708  1.0000
  H   H516      1.0  0.59299  0.05169  0.24006  1.0000
  C   C288      1.0  0.96807  0.10720  0.44404  1.0000
  H   H517      1.0  0.54738  0.12109  0.43527  1.0000
  H   H518      1.0  0.66674  0.22890  0.48503  1.0000
  Fe  Fe31      1.0  0.96080  0.14917  0.02287  1.0000
  C   C289      1.0  0.64236  0.29534  0.38041  1.0000
  H   H519      1.0  0.63188  0.07966  0.49780  1.0000
  C   C290      1.0  0.51090  0.00906  0.44086  1.0000
  C   C291      1.0  0.49955  0.08720  0.15948  1.0000
  H   H520      1.0  0.70476  0.26595  0.40840  1.0000
  N   N19       1.0  0.73962  0.27331  0.49968  1.0000
  H   H521      1.0  0.80536  0.23316  0.03643  1.0000
  H   H522      1.0  0.54327  0.08198  0.44408  1.0000
  C   C292      1.0  0.99714  0.05593  0.12997  1.0000
  H   H523      1.0  0.61663  0.27711  0.37852  1.0000
  C   C293      1.0  0.56009  0.01662  0.46243  1.0000
  C   C294      1.0  0.96939  0.07181  0.44483  1.0000
  H   H524      1.0  0.90861  0.21736  0.44401  1.0000
  C   C295      1.0  0.56181  0.10321  0.46146  1.0000
  H   H525      1.0  0.53528  0.17500  0.48370  1.0000
  C   C296      1.0  0.83512  0.13992  0.01143  1.0000
  H   H526      1.0  0.54274  0.00932  0.33509  1.0000
  C   C297      1.0  0.75547  0.13539  0.01093  1.0000
  C   C298      1.0  0.62634  0.05690  0.19640  1.0000
  C   C299      1.0  0.71073  0.21455  0.00502  1.0000
  H   H527      1.0  0.98617  0.25922  0.19836  1.0000
  H   H528      1.0  0.59336  0.06410  0.16663  1.0000
  H   H529      1.0  0.73405  0.13340  0.02903  1.0000
  H   H530      1.0  0.99644  0.09950  0.09865  1.0000
  C   C300      1.0  0.97042  0.08211  0.09886  1.0000
  C   C301      1.0  0.62500  0.09216  0.43387  1.0000
  H   H531      1.0  0.96646  0.30758  0.24875  1.0000
  H   H532      1.0  0.88329  0.24556  0.03741  1.0000
  H   H533      1.0  0.74571  0.24163  0.06699  1.0000
  H   H534      1.0  0.94848  0.07371  0.06433  1.0000
  H   H535      1.0  0.54527  0.01873  0.17837  1.0000
  Fe  Fe32      1.0  0.55491  0.14064  0.01249  1.0000
  H   H536      1.0  0.91945  0.16447  0.42543  1.0000
  H   H537      1.0  0.91156  0.06596  0.37742  1.0000
  H   H538      1.0  0.99746  0.28465  0.13632  1.0000
  C   C302      1.0  0.78359  0.28738  0.49816  1.0000
  H   H539      1.0  0.67037  0.21921  0.06560  1.0000
  C   C303      1.0  0.56321  0.22180  0.39667  1.0000
  H   H540      1.0  0.53348  0.12040  0.21157  1.0000
  H   H541      1.0  0.69468  0.18131  0.06786  1.0000
  H   H542      1.0  0.96346  0.21557  0.49536  1.0000
  H   H543      1.0  0.51997  0.01035  0.23573  1.0000
  C   C304      1.0  0.94003  0.17205  0.46053  1.0000
  S   S72       1.0  0.52864  0.07823  0.32339  1.0000
  H   H544      1.0  0.94694  0.06269  0.46033  1.0000
  C   C305      1.0  0.74134  0.23912  0.49430  1.0000
  H   H545      1.0  0.69261  0.31212  0.47223  1.0000
  C   C306      1.0  0.58161  0.00951  0.20120  1.0000
  C   C307      1.0  0.57324  0.16686  0.49910  1.0000
  Fe  Fe33      1.0  0.50264  0.12542  0.32928  1.0000
  C   C308      1.0  0.99052  0.15667  0.48219  1.0000
  H   H546      1.0  0.72244  0.17953  0.46148  1.0000
  Fe  Fe34      1.0  0.52786  0.32051  0.46550  1.0000
  N   N20       1.0  0.99097  0.12265  0.48895  1.0000
  H   H547      1.0  0.96610  0.21367  0.44259  1.0000
  C   C309      1.0  0.51018  0.24404  0.42491  1.0000
  H   H548      1.0  0.62952  0.31744  0.38749  1.0000
  C   C310      1.0  0.69209  0.22217  0.47144  1.0000
  H   H549      1.0  0.94574  0.09322  0.11052  1.0000
  H   H550      1.0  0.91843  0.16672  0.47862  1.0000
  H   H551      1.0  0.92339  0.11658  0.49323  1.0000
  H   H552      1.0  0.98483  0.11538  0.42269  1.0000
  H   H553      1.0  0.60627  0.07085  0.41725  1.0000
  H   H554      1.0  0.66431  0.08924  0.44436  1.0000
  H   H555      1.0  0.66259  0.17639  0.45785  1.0000
  H   H556      1.0  0.67471  0.22736  0.43538  1.0000
  H   H557      1.0  0.97210  0.06610  0.38131  1.0000
  H   H558      1.0  0.70737  0.32499  0.00259  1.0000
  H   H559      1.0  0.58464  0.16317  0.47242  1.0000
  H   H560      1.0  0.63738  0.11986  0.49036  1.0000
  H   H561      1.0  0.97584  0.32835  0.37879  1.0000
  H   H562      1.0  0.59670  0.00061  0.17899  1.0000
  C   C311      1.0  0.87062  0.23226  0.00597  1.0000
  H   H563      1.0  0.79198  0.19908  0.00445  1.0000
  C   C312      1.0  0.99770  0.25430  0.23415  1.0000
  H   H564      1.0  0.70963  0.18988  0.99722  1.0000
  Fe  Fe35      1.0  0.51456  0.18047  0.92875  1.0000
  S   S73       1.0  0.53182  0.14547  0.88904  1.0000
  H   H565      1.0  0.91937  0.09109  0.79614  1.0000
  H   H566      1.0  0.94862  0.09662  0.58747  1.0000
  Fe  Fe36      1.0  0.60372  0.13998  0.95001  1.0000
  C   C313      1.0  0.81211  0.14111  0.96489  1.0000
  H   H567      1.0  0.93141  0.05010  0.85025  1.0000
  H   H568      1.0  0.51672  0.12268  0.75527  1.0000
  H   H569      1.0  0.72245  0.19711  0.93160  1.0000
  H   H570      1.0  0.50009  0.06922  0.73161  1.0000
  C   C314      1.0  0.54883  0.08509  0.56909  1.0000
  H   H571      1.0  0.98728  0.06826  0.85868  1.0000
  C   C315      1.0  0.73242  0.13692  0.96438  1.0000
  C   C316      1.0  0.53287  0.01721  0.82331  1.0000
  H   H572      1.0  0.74386  0.14056  0.90561  1.0000
  H   H573      1.0  0.49956  0.11632  0.79932  1.0000
  H   H574      1.0  0.89053  0.24036  0.98739  1.0000
  C   C317      1.0  0.87490  0.28607  0.52507  1.0000
  S   S74       1.0  0.99334  0.11174  0.99837  1.0000
  H   H575      1.0  0.62767  0.01170  0.52198  1.0000
  H   H576      1.0  0.91015  0.28186  0.55443  1.0000
  H   H577      1.0  0.59393  0.19783  0.55572  1.0000
  C   C318      1.0  0.56194  0.08292  0.52954  1.0000
  H   H578      1.0  0.95184  0.00913  0.80442  1.0000
  H   H579      1.0  0.56597  0.14349  0.55192  1.0000
  H   H580      1.0  0.64955  0.18513  0.86160  1.0000
  H   H581      1.0  0.80649  0.22341  0.94609  1.0000
  C   C319      1.0  0.76117  0.13941  0.94160  1.0000
  H   H582      1.0  0.51413  0.26579  0.60200  1.0000
  C   C320      1.0  0.70235  0.28186  0.59672  1.0000
  H   H583      1.0  0.95242  0.01552  0.90052  1.0000
  C   C321      1.0  0.71234  0.22131  0.93283  1.0000
  C   C322      1.0  0.60459  0.19250  0.52889  1.0000
  H   H584      1.0  0.65682  0.22172  0.84042  1.0000
  H   H585      1.0  0.83969  0.29219  0.56705  1.0000
  H   H586      1.0  0.56170  0.02654  0.81572  1.0000
  H   H587      1.0  0.66356  0.27538  0.52628  1.0000
  C   C323      1.0  0.94482  0.12148  0.58050  1.0000
  C   C324      1.0  0.55711  0.28692  0.88550  1.0000
  H   H588      1.0  0.63473  0.31052  0.81072  1.0000
  C   C325      1.0  0.55856  0.30387  0.76646  1.0000
  H   H589      1.0  0.55335  0.29553  0.79522  1.0000
  Fe  Fe37      1.0  0.50297  0.11138  0.92077  1.0000
  H   H590      1.0  0.56562  0.28414  0.74947  1.0000
  C   C326      1.0  0.52486  0.00617  0.73422  1.0000
  H   H591      1.0  0.67088  0.31793  0.94361  1.0000
  H   H592      1.0  0.73014  0.27745  0.95407  1.0000
  C   C327      1.0  0.53990  0.25907  0.89369  1.0000
  C   C328      1.0  0.50561  0.07508  0.76577  1.0000
  H   H593      1.0  0.95722  0.07139  0.77625  1.0000
  H   H594      1.0  0.87366  0.31035  0.51542  1.0000
  H   H595      1.0  0.67216  0.22068  0.99320  1.0000
  H   H596      1.0  0.98285  0.14127  0.79544  1.0000
  C   C329      1.0  0.97682  0.13135  0.55880  1.0000
  S   S75       1.0  0.66812  0.13769  0.93299  1.0000
  H   H597      1.0  0.71389  0.18087  0.51162  1.0000
  H   H598      1.0  0.54792  0.05644  0.62154  1.0000
  S   S76       1.0  0.96603  0.18432  0.97633  1.0000
  H   H599      1.0  0.59363  0.28867  0.88936  1.0000
  H   H600      1.0  0.61393  0.33038  0.75849  1.0000
  C   C330      1.0  0.93226  0.06826  0.79169  1.0000
  H   H601      1.0  0.76306  0.22830  0.52730  1.0000
  C   C331      1.0  0.69942  0.26909  0.55310  1.0000
  H   H602      1.0  0.54476  0.06209  0.50996  1.0000
  C   C332      1.0  0.98043  0.02196  0.83265  1.0000
  H   H603      1.0  0.80903  0.26090  0.96947  1.0000
  H   H604      1.0  0.69971  0.30713  0.59536  1.0000
  H   H605      1.0  0.60006  0.21178  0.84039  1.0000
  H   H606      1.0  0.64591  0.24781  0.90068  1.0000
  C   C333      1.0  0.95823  0.05269  0.83696  1.0000
  H   H607      1.0  0.61689  0.13154  0.54511  1.0000
  H   H608      1.0  0.70178  0.24391  0.55631  1.0000
  H   H609      1.0  0.95603  0.13387  0.61256  1.0000
  H   H610      1.0  0.83356  0.14344  0.94686  1.0000
  H   H611      1.0  0.90056  0.05459  0.76896  1.0000
  H   H612      1.0  0.90631  0.12689  0.55861  1.0000
  H   H613      1.0  0.57247  0.10199  0.59393  1.0000
  C   C334      1.0  0.57787  0.13735  0.52610  1.0000
  H   H614      1.0  0.77483  0.27237  0.57197  1.0000
  C   C335      1.0  0.68220  0.27806  0.98590  1.0000
  H   H615      1.0  0.56304  0.23928  0.90406  1.0000
  H   H616      1.0  0.64343  0.18609  0.54387  1.0000
  C   C336      1.0  0.65685  0.22361  0.90554  1.0000
  C   C337      1.0  0.64001  0.20971  0.85915  1.0000
  H   H617      1.0  0.83540  0.25420  0.54487  1.0000
  H   H618      1.0  0.63767  0.21131  0.92180  1.0000
  C   C338      1.0  0.52721  0.31271  0.87222  1.0000
  H   H619      1.0  0.72764  0.23439  0.91370  1.0000
  H   H620      1.0  0.59945  0.21339  0.50861  1.0000
  H   H621      1.0  0.67183  0.27285  0.60223  1.0000
  H   H622      1.0  0.60142  0.07826  0.54475  1.0000
  H   H623      1.0  0.53580  0.03065  0.85274  1.0000
  S   S77       1.0  0.57578  0.10268  0.97885  1.0000
  H   H624      1.0  0.97257  0.15634  0.55386  1.0000
  C   C339      1.0  0.58984  0.00540  0.50562  1.0000
  H   H625      1.0  0.64890  0.26674  0.96170  1.0000
  C   C340      1.0  0.51389  0.32240  0.73416  1.0000
  S   S78       1.0  0.58787  0.17770  0.98755  1.0000
  C   C341      1.0  0.55624  0.05435  0.59265  1.0000
  H   H626      1.0  0.59430  0.04654  0.60496  1.0000
  C   C342      1.0  0.74135  0.28134  0.54421  1.0000
  H   H627      1.0  0.52598  0.30071  0.66341  1.0000
  S   S79       1.0  0.98644  0.14250  0.88254  1.0000
  H   H628      1.0  0.51069  0.09193  0.55817  1.0000
  H   H629      1.0  0.73687  0.27510  0.62529  1.0000
  C   C343      1.0  0.60415  0.32361  0.78532  1.0000
  H   H630      1.0  0.74293  0.30663  0.54855  1.0000
  H   H631      1.0  0.54482  0.02798  0.74251  1.0000
  H   H632      1.0  0.96815  0.08935  0.52322  1.0000
  C   C344      1.0  0.83343  0.27879  0.53675  1.0000
  S   S80       1.0  0.60302  0.33137  0.51743  1.0000
  H   H633      1.0  0.53098  0.24503  0.65307  1.0000
  C   C345      1.0  0.67567  0.31237  0.97764  1.0000
  N   N21       1.0  0.73368  0.23210  0.98065  1.0000
  H   H634      1.0  0.53191  0.03680  0.56956  1.0000
  C   C346      1.0  0.96298  0.11399  0.51440  1.0000
  H   H635      1.0  0.64275  0.32006  0.98035  1.0000
  C   C347      1.0  0.72830  0.26626  0.98306  1.0000
  H   H636      1.0  0.54429  0.07239  0.78949  1.0000
  C   C348      1.0  0.81620  0.23635  0.97747  1.0000
  C   C349      1.0  0.50199  0.25894  0.62732  1.0000
  C   C350      1.0  0.78699  0.22426  0.00172  1.0000
  H   H637      1.0  0.53961  0.42616  0.40057  1.0000
  H   H638      1.0  0.52061  0.52110  0.37770  1.0000
  S   S81       1.0  0.53055  0.35308  0.41505  1.0000
  C   C351      1.0  0.94570  0.39769  0.19414  1.0000
  S   S82       1.0  0.53369  0.60141  0.13167  1.0000
  C   C352      1.0  0.55429  0.64326  0.34881  1.0000
  H   H639      1.0  0.84443  0.66139  0.37085  1.0000
  S   S83       1.0  0.95392  0.34403  0.47143  1.0000
  H   H640      1.0  0.79242  0.49305  0.38997  1.0000
  C   C353      1.0  0.75622  0.37267  0.45396  1.0000
  Fe  Fe38      1.0  0.59969  0.63174  0.15927  1.0000
  Fe  Fe39      1.0  0.65669  0.58970  0.23808  1.0000
  S   S84       1.0  0.59578  0.55583  0.21593  1.0000
  S   S85       1.0  0.71776  0.58952  0.30843  1.0000
  Fe  Fe40      1.0  0.58726  0.56304  0.14585  1.0000
  H   H641      1.0  0.56654  0.46530  0.05221  1.0000
  Fe  Fe41      1.0  0.54737  0.59642  0.20369  1.0000
  H   H642      1.0  0.96519  0.41895  0.20999  1.0000
  S   S86       1.0  0.65300  0.59380  0.16978  1.0000
  S   S87       1.0  0.60827  0.62964  0.22906  1.0000
  S   S88       1.0  0.94159  0.59269  0.36113  1.0000
  C   C354      1.0  0.50173  0.52503  0.34108  1.0000
  C   C355      1.0  0.77954  0.59179  0.32163  1.0000
  C   C356      1.0  0.81282  0.59854  0.36567  1.0000
  C   C357      1.0  0.86265  0.59964  0.37798  1.0000
  C   C358      1.0  0.87941  0.59347  0.34636  1.0000
  C   C359      1.0  0.84620  0.58655  0.30238  1.0000
  C   C360      1.0  0.79630  0.58590  0.28993  1.0000
  H   H643      1.0  0.79995  0.60290  0.39036  1.0000
  H   H644      1.0  0.88811  0.60477  0.41201  1.0000
  H   H645      1.0  0.85913  0.58150  0.27790  1.0000
  H   H646      1.0  0.77088  0.58023  0.25608  1.0000
  C   C361      1.0  0.89237  0.51535  0.42247  1.0000
  C   C362      1.0  0.54597  0.63000  0.30770  1.0000
  H   H647      1.0  0.94344  0.37965  0.25253  1.0000
  C   C363      1.0  0.95732  0.37240  0.22858  1.0000
  H   H648      1.0  0.93690  0.35194  0.21054  1.0000
  Fe  Fe42      1.0  0.50014  0.38767  0.44545  1.0000
  H   H649      1.0  0.75116  0.63505  0.22995  1.0000
  C   C364      1.0  0.80726  0.37227  0.47660  1.0000
  C   C365      1.0  0.50372  0.61330  0.28323  1.0000
  H   H650      1.0  0.52238  0.55872  0.02484  1.0000
  C   C366      1.0  0.80745  0.50589  0.37032  1.0000
  H   H651      1.0  0.77332  0.48303  0.30347  1.0000
  H   H652      1.0  0.83088  0.38993  0.35452  1.0000
  H   H653      1.0  0.69194  0.53981  0.06720  1.0000
  H   H654      1.0  0.95000  0.51266  0.38078  1.0000
  H   H655      1.0  0.89174  0.53946  0.41176  1.0000
  H   H656      1.0  0.70900  0.48532  0.32755  1.0000
  C   C367      1.0  0.54088  0.52958  0.32434  1.0000
  C   C368      1.0  0.66008  0.55436  0.04761  1.0000
  H   H657      1.0  0.69697  0.65524  0.22096  1.0000
  H   H658      1.0  0.60677  0.55530  0.34098  1.0000
  H   H659      1.0  0.83068  0.65197  0.29551  1.0000
  H   H660      1.0  0.93692  0.47279  0.36718  1.0000
  C   C369      1.0  0.54749  0.51294  0.04446  1.0000
  Fe  Fe43      1.0  0.60410  0.36667  0.46932  1.0000
  C   C370      1.0  0.86677  0.46319  0.39781  1.0000
  H   H661      1.0  0.92333  0.52525  0.30164  1.0000
  C   C371      1.0  0.92559  0.49639  0.35538  1.0000
  H   H662      1.0  0.57213  0.63296  0.29485  1.0000
  H   H663      1.0  0.95612  0.39064  0.16772  1.0000
  C   C372      1.0  0.84519  0.40731  0.38145  1.0000
  C   C373      1.0  0.98773  0.42969  0.32680  1.0000
  H   H664      1.0  0.55755  0.50789  0.32148  1.0000
  H   H665      1.0  0.91081  0.56078  0.48700  1.0000
  H   H666      1.0  0.73835  0.37283  0.41793  1.0000
  C   C374      1.0  0.53578  0.42451  0.36611  1.0000
  H   H667      1.0  0.85707  0.43820  0.33751  1.0000
  H   H668      1.0  0.77651  0.52347  0.30204  1.0000
  H   H669      1.0  0.90625  0.40242  0.17825  1.0000
  H   H670      1.0  0.85424  0.45931  0.42379  1.0000
  H   H671      1.0  0.80619  0.53034  0.37904  1.0000
  S   S89       1.0  0.66385  0.37323  0.44699  1.0000
  H   H672      1.0  0.91022  0.48537  0.28677  1.0000
  H   H673      1.0  0.97132  0.49755  0.32149  1.0000
  H   H674      1.0  0.88729  0.49228  0.47863  1.0000
  C   C375      1.0  0.77045  0.50409  0.32020  1.0000
  C   C376      1.0  0.71842  0.50606  0.31417  1.0000
  H   H675      1.0  0.93049  0.50758  0.43516  1.0000
  C   C377      1.0  0.91595  0.53702  0.49969  1.0000
  H   H676      1.0  0.94877  0.43040  0.30787  1.0000
  H   H677      1.0  0.84978  0.48780  0.31598  1.0000
  H   H678      1.0  0.82378  0.40622  0.40066  1.0000
  H   H679      1.0  0.88338  0.40163  0.40398  1.0000
  H   H680      1.0  0.82838  0.37190  0.45812  1.0000
  S   S90       1.0  0.96951  0.40546  0.39288  1.0000
  C   C378      1.0  0.72809  0.37274  0.47748  1.0000
  C   C379      1.0  0.87212  0.50195  0.34550  1.0000
  H   H681      1.0  0.71350  0.52638  0.33154  1.0000
  C   C380      1.0  0.52119  0.63930  0.36664  1.0000
  S   S91       1.0  0.57953  0.52040  0.10293  1.0000
  H   H682      1.0  0.86361  0.52605  0.33442  1.0000
  C   C381      1.0  0.84092  0.43901  0.36122  1.0000
  H   H683      1.0  0.69311  0.50795  0.27818  1.0000
  H   H684      1.0  0.90602  0.45738  0.41407  1.0000
  H   H685      1.0  0.56637  0.57259  0.36005  1.0000
  H   H686      1.0  0.80180  0.44373  0.34311  1.0000
  C   C382      1.0  0.54811  0.48321  0.02861  1.0000
  N   N22       1.0  0.85920  0.49609  0.38328  1.0000
  S   S92       1.0  0.98341  0.65747  0.45677  1.0000
  C   C383      1.0  0.93282  0.50145  0.31364  1.0000
  H   H687      1.0  0.63835  0.55651  0.06647  1.0000
  S   S93       1.0  0.53257  0.65774  0.41756  1.0000
  C   C384      1.0  0.52329  0.53577  0.01338  1.0000
  Fe  Fe44      1.0  0.99516  0.61525  0.42478  1.0000
  H   H688      1.0  0.84423  0.52265  0.45493  1.0000
  C   C385      1.0  0.52689  0.45599  0.34459  1.0000
  H   H689      1.0  0.50533  0.40887  0.34648  1.0000
  H   H690      1.0  0.52474  0.54029  0.29093  1.0000
  H   H691      1.0  0.97126  0.34182  0.30293  1.0000
  C   C386      1.0  0.88179  0.51532  0.46368  1.0000
  C   C387      1.0  0.73554  0.65804  0.22846  1.0000
  C   C388      1.0  0.58138  0.55056  0.35551  1.0000
  H   H692      1.0  0.60180  0.53963  0.38850  1.0000
  H   H693      1.0  0.52467  0.45302  0.31092  1.0000
  H   H694      1.0  0.87566  0.66337  0.45231  1.0000
  H   H695      1.0  0.55874  0.47024  0.36528  1.0000
  H   H696      1.0  0.56966  0.41463  0.36764  1.0000
  S   S94       1.0  0.57374  0.40383  0.49630  1.0000
  H   H697      1.0  0.67242  0.57748  0.04390  1.0000
  H   H698      1.0  0.50432  0.65838  0.15463  1.0000
  H   H699      1.0  0.61785  0.51719  0.00790  1.0000
  H   H700      1.0  0.58677  0.65649  0.36704  1.0000
  H   H701      1.0  0.75421  0.66223  0.29761  1.0000
  Fe  Fe45      1.0  0.99313  0.38463  0.46158  1.0000
  H   H702      1.0  0.90559  0.66149  0.29105  1.0000
  Fe  Fe46      1.0  0.49840  0.64533  0.46335  1.0000
  H   H703      1.0  0.62297  0.59934  0.49811  1.0000
  H   H704      1.0  0.50801  0.56367  0.62003  1.0000
  C   C389      1.0  0.96413  0.47749  0.63017  1.0000
  H   H705      1.0  0.97870  0.62745  0.70760  1.0000
  H   H706      1.0  0.69463  0.52039  0.75303  1.0000
  H   H707      1.0  0.50840  0.34089  0.75422  1.0000
  H   H708      1.0  0.70309  0.58247  0.55327  1.0000
  H   H709      1.0  0.88184  0.43947  0.59605  1.0000
  H   H710      1.0  0.61896  0.49612  0.57865  1.0000
  C   C390      1.0  0.63640  0.43795  0.96970  1.0000
  Fe  Fe47      1.0  0.56704  0.36752  0.54053  1.0000
  C   C391      1.0  0.57503  0.55574  0.70237  1.0000
  H   H711      1.0  0.58853  0.49006  0.94520  1.0000
  Fe  Fe48      1.0  0.85550  0.61535  0.78338  1.0000
  S   S95       1.0  0.87515  0.56685  0.77788  1.0000
  S   S96       1.0  0.78249  0.63922  0.75412  1.0000
  Fe  Fe49      1.0  0.96117  0.63510  0.82979  1.0000
  C   C392      1.0  0.60980  0.46998  0.62969  1.0000
  Fe  Fe50      1.0  0.93323  0.57214  0.84926  1.0000
  S   S97       1.0  0.90612  0.63410  0.75830  1.0000
  S   S98       1.0  0.90895  0.61986  0.85578  1.0000
  Fe  Fe51      1.0  0.52945  0.61690  0.55548  1.0000
  S   S99       1.0  0.58633  0.58538  0.60465  1.0000
  H   H712      1.0  0.71898  0.62362  0.61074  1.0000
  C   C393      1.0  0.72913  0.62389  0.71140  1.0000
  C   C394      1.0  0.69109  0.64366  0.68586  1.0000
  C   C395      1.0  0.64740  0.63222  0.65244  1.0000
  C   C396      1.0  0.64128  0.60083  0.64480  1.0000
  C   C397      1.0  0.67937  0.58109  0.67015  1.0000
  C   C398      1.0  0.72329  0.59256  0.70324  1.0000
  C   C399      1.0  0.65736  0.53779  0.97383  1.0000
  H   H713      1.0  0.61818  0.64762  0.63326  1.0000
  H   H714      1.0  0.67489  0.55688  0.66391  1.0000
  H   H715      1.0  0.75245  0.57725  0.72282  1.0000
  H   H716      1.0  0.66775  0.40554  0.75280  1.0000
  H   H717      1.0  0.58293  0.51493  0.60179  1.0000
  H   H718      1.0  0.73258  0.49309  0.88538  1.0000
  C   C400      1.0  0.94148  0.45878  0.58621  1.0000
  H   H719      1.0  0.86800  0.47543  0.56642  1.0000
  H   H720      1.0  0.77392  0.54585  0.79508  1.0000
  H   H721      1.0  0.52633  0.45346  0.97110  1.0000
  H   H722      1.0  0.59941  0.47872  0.90024  1.0000
  C   C401      1.0  0.75171  0.37225  0.52406  1.0000
  H   H723      1.0  0.77817  0.52883  0.61390  1.0000
  H   H724      1.0  0.87193  0.65401  0.61089  1.0000
  C   C402      1.0  0.65754  0.46802  0.96332  1.0000
  H   H725      1.0  0.50485  0.56388  0.69860  1.0000
  C   C403      1.0  0.78334  0.57408  0.64287  1.0000
  C   C404      1.0  0.80277  0.37226  0.54669  1.0000
  S   S100      1.0  0.54459  0.66195  0.53324  1.0000
  H   H726      1.0  0.83641  0.53747  0.65986  1.0000
  H   H727      1.0  0.58916  0.48592  0.77951  1.0000
  H   H728      1.0  0.78521  0.61995  0.53765  1.0000
  H   H729      1.0  0.59410  0.55422  0.73925  1.0000
  H   H730      1.0  0.79567  0.63394  0.66884  1.0000
  H   H731      1.0  0.57773  0.57957  0.69259  1.0000
  C   C405      1.0  0.52107  0.41303  0.61215  1.0000
  H   H732      1.0  0.94299  0.49899  0.62465  1.0000
  H   H733      1.0  0.62538  0.46357  0.82831  1.0000
  H   H734      1.0  0.65110  0.50454  0.87891  1.0000
  C   C406      1.0  0.55493  0.39091  0.63684  1.0000
  C   C407      1.0  0.88750  0.45345  0.57118  1.0000
  C   C408      1.0  0.50831  0.42616  0.67715  1.0000
  C   C409      1.0  0.80886  0.64161  0.64457  1.0000
  C   C410      1.0  0.95663  0.58867  0.66359  1.0000
  Fe  Fe52      1.0  0.95389  0.37009  0.52941  1.0000
  C   C411      1.0  0.70789  0.37702  0.72947  1.0000
  C   C412      1.0  0.50200  0.49937  0.95144  1.0000
  H   H735      1.0  0.55798  0.48363  0.56333  1.0000
  C   C413      1.0  0.69874  0.60685  0.54368  1.0000
  H   H736      1.0  0.70501  0.42865  0.68682  1.0000
  H   H737      1.0  0.73278  0.54170  0.95196  1.0000
  H   H738      1.0  0.84842  0.63687  0.66115  1.0000
  H   H739      1.0  0.54871  0.39924  0.73570  1.0000
  H   H740      1.0  0.61367  0.42697  0.93706  1.0000
  H   H741      1.0  0.73065  0.37227  0.54264  1.0000
  H   H742      1.0  0.80528  0.51262  0.78980  1.0000
  H   H743      1.0  0.67956  0.47774  0.99688  1.0000
  H   H744      1.0  0.66615  0.42209  0.98979  1.0000
  H   H745      1.0  0.73027  0.41650  0.77100  1.0000
  H   H746      1.0  0.77178  0.51103  0.82242  1.0000
  H   H747      1.0  0.58109  0.46729  0.64072  1.0000
  H   H748      1.0  0.70832  0.60977  0.51574  1.0000
  H   H749      1.0  0.66735  0.56144  0.96904  1.0000
  H   H750      1.0  0.51122  0.52340  0.62627  1.0000
  H   H751      1.0  0.87231  0.61569  0.59195  1.0000
  C   C414      1.0  0.54091  0.40326  0.70134  1.0000
  H   H752      1.0  0.52093  0.52432  0.70067  1.0000
  H   H753      1.0  0.58925  0.44482  0.77660  1.0000
  H   H754      1.0  0.68110  0.46241  0.94721  1.0000
  H   H755      1.0  0.59073  0.36900  0.70064  1.0000
  C   C415      1.0  0.58589  0.53987  0.90193  1.0000
  N   N23       1.0  0.78448  0.62376  0.60171  1.0000
  H   H756      1.0  0.83952  0.58882  0.62653  1.0000
  C   C416      1.0  0.61693  0.48993  0.93340  1.0000
  H   H757      1.0  0.87185  0.44087  0.53900  1.0000
  N   N24       1.0  0.67452  0.46384  0.71202  1.0000
  C   C417      1.0  0.72363  0.47611  0.74378  1.0000
  C   C418      1.0  0.67987  0.43075  0.70243  1.0000
  C   C419      1.0  0.65794  0.48098  0.66860  1.0000
  C   C420      1.0  0.63690  0.46763  0.72905  1.0000
  C   C421      1.0  0.65463  0.46626  0.78025  1.0000
  C   C422      1.0  0.72677  0.51121  0.75038  1.0000
  S   S101      1.0  0.89509  0.37279  0.55347  1.0000
  C   C423      1.0  0.69691  0.40853  0.74232  1.0000
  C   C424      1.0  0.59147  0.49264  0.59113  1.0000
  C   C425      1.0  0.61195  0.46519  0.79173  1.0000
  C   C426      1.0  0.77220  0.52061  0.79198  1.0000
  C   C427      1.0  0.66276  0.52273  0.90476  1.0000
  H   H758      1.0  0.75109  0.46978  0.73205  1.0000
  H   H759      1.0  0.73695  0.46544  0.77706  1.0000
  Fe  Fe53      1.0  0.92963  0.58622  0.75699  1.0000
  H   H760      1.0  0.57938  0.53156  0.83405  1.0000
  H   H761      1.0  0.68635  0.48025  0.65660  1.0000
  H   H762      1.0  0.65250  0.50547  0.67365  1.0000
  H   H763      1.0  0.61794  0.48988  0.71842  1.0000
  H   H764      1.0  0.60785  0.45029  0.71336  1.0000
  H   H765      1.0  0.67627  0.48680  0.79657  1.0000
  H   H766      1.0  0.67753  0.44612  0.79540  1.0000
  H   H767      1.0  0.72875  0.52213  0.72142  1.0000
  C   C428      1.0  0.56449  0.38601  0.68138  1.0000
  H   H768      1.0  0.82065  0.37225  0.58272  1.0000
  H   H769      1.0  0.59330  0.54053  0.68805  1.0000
  S   S102      1.0  0.58929  0.37086  0.61491  1.0000
  H   H770      1.0  0.65756  0.54462  0.88636  1.0000
  H   H771      1.0  0.80150  0.58405  0.67682  1.0000
  H   H772      1.0  0.73555  0.53397  0.87911  1.0000
  H   H773      1.0  0.93793  0.55427  0.61270  1.0000
  C   C429      1.0  0.83087  0.37239  0.52314  1.0000
  C   C430      1.0  0.52534  0.47641  0.98254  1.0000
  H   H774      1.0  0.74371  0.57543  0.63084  1.0000
  H   H775      1.0  0.95898  0.43610  0.59076  1.0000
  H   H776      1.0  0.78637  0.57755  0.57944  1.0000
  C   C431      1.0  0.73043  0.62739  0.58394  1.0000
  C   C432      1.0  0.99459  0.62101  0.61297  1.0000
  H   H777      1.0  0.71908  0.36138  0.75833  1.0000
  C   C433      1.0  0.64513  0.61480  0.52610  1.0000
  H   H778      1.0  0.78530  0.52916  0.67032  1.0000
  C   C434      1.0  0.79668  0.54031  0.64680  1.0000
  H   H779      1.0  0.94472  0.47083  0.55868  1.0000
  S   S103      1.0  0.55056  0.34731  0.86310  1.0000
  C   C435      1.0  0.79945  0.59080  0.61103  1.0000
  C   C436      1.0  0.79924  0.63533  0.56715  1.0000
  C   C437      1.0  0.51290  0.55054  0.82808  1.0000
  C   C438      1.0  0.52194  0.54674  0.68576  1.0000
  H   H780      1.0  0.61501  0.44785  0.61622  1.0000
  S   S104      1.0  0.93243  0.56767  0.69422  1.0000
  H   H781      1.0  0.78233  0.65783  0.55404  1.0000
  S   S105      1.0  0.52657  0.43406  0.83360  1.0000
  S   S106      1.0  0.94052  0.53161  0.89581  1.0000
  H   H782      1.0  0.97173  0.58266  0.56844  1.0000
  H   H783      1.0  0.64484  0.42129  0.67770  1.0000
  C   C439      1.0  0.74389  0.51513  0.90350  1.0000
  H   H784      1.0  0.67535  0.36727  0.70146  1.0000
  H   H785      1.0  0.71982  0.65125  0.57300  1.0000
  C   C440      1.0  0.85450  0.63819  0.58226  1.0000
  C   C441      1.0  0.55702  0.53011  0.85228  1.0000
  H   H786      1.0  0.95653  0.46444  0.65463  1.0000
  C   C442      1.0  0.95466  0.57624  0.62405  1.0000
  H   H787      1.0  0.54349  0.50643  0.84956  1.0000
  C   C443      1.0  0.97519  0.49373  0.96965  1.0000
  H   H788      1.0  0.55999  0.53796  0.91662  1.0000
  N   N25       1.0  0.63162  0.52209  0.92917  1.0000
  C   C444      1.0  0.62906  0.54006  0.00205  1.0000
  H   H789      1.0  0.73772  0.37834  0.71954  1.0000
  C   C445      1.0  0.71843  0.52018  0.93306  1.0000
  H   H790      1.0  0.78370  0.51450  0.92445  1.0000
  H   H791      1.0  0.59431  0.56463  0.90256  1.0000
  H   H792      1.0  0.99713  0.52220  0.60132  1.0000
  H   H793      1.0  0.69208  0.52642  0.99516  1.0000
  H   H794      1.0  0.95426  0.53026  0.51059  1.0000
  H   H795      1.0  0.59658  0.55464  0.98541  1.0000
  C   C446      1.0  0.97704  0.61752  0.67734  1.0000
  H   H796      1.0  0.72885  0.50136  0.95740  1.0000
  C   C447      1.0  0.97363  0.59227  0.59887  1.0000
  S   S107      1.0  0.98919  0.58784  0.82731  1.0000
  H   H797      1.0  0.63332  0.61212  0.55269  1.0000
  C   C448      1.0  0.97893  0.52268  0.95320  1.0000
  H   H798      1.0  0.51353  0.41704  0.57783  1.0000
  H   H799      1.0  0.97064  0.50591  0.70438  1.0000
  H   H800      1.0  0.94973  0.47737  0.94730  1.0000
  H   H801      1.0  0.52418  0.57456  0.82800  1.0000
  C   C449      1.0  0.86471  0.65033  0.54461  1.0000
  H   H802      1.0  0.90821  0.53635  0.52901  1.0000
  H   H803      1.0  0.90440  0.65245  0.55639  1.0000
  H   H804      1.0  0.63813  0.63861  0.51363  1.0000
  H   H805      1.0  0.61406  0.44190  0.98764  1.0000
  S   S108      1.0  0.98729  0.41195  0.51586  1.0000
  Fe  Fe54      1.0  0.49880  0.38697  0.83617  1.0000
  H   H806      1.0  0.52468  0.33418  0.71080  1.0000
  C   C450      1.0  0.99577  0.63357  0.65211  1.0000
  H   H807      1.0  0.59859  0.34440  0.80151  1.0000
  H   H808      1.0  0.85030  0.63449  0.51567  1.0000
  C   C451      1.0  0.50096  0.52902  0.96727  1.0000
  C   C452      1.0  0.49831  0.43082  0.63242  1.0000
  C   C453      1.0  0.50009  0.74986  0.16602  1.0000
  S   S109      1.0  0.89928  0.87510  0.25687  1.0000
  Fe  Fe55      1.0  0.96938  0.93466  0.35265  1.0000
  S   S110      1.0  0.89592  0.91620  0.33903  1.0000
  Fe  Fe56      1.0  0.92495  0.87053  0.33081  1.0000
  Fe  Fe57      1.0  0.87618  0.92213  0.26615  1.0000
  S   S111      1.0  0.80692  0.94354  0.21392  1.0000
  S   S112      1.0  0.94755  0.94450  0.27990  1.0000
  Fe  Fe58      1.0  0.54700  0.87300  0.06436  1.0000
  C   C454      1.0  0.86664  0.70297  0.41018  1.0000
  S   S113      1.0  0.60182  0.87827  0.13698  1.0000
  H   H809      1.0  0.91512  0.67303  0.36385  1.0000
  C   C455      1.0  0.54160  0.96017  0.19985  1.0000
  C   C456      1.0  0.55383  0.75521  0.07217  1.0000
  C   C457      1.0  0.58662  0.73428  0.10204  1.0000
  C   C458      1.0  0.57262  0.70407  0.10369  1.0000
  C   C459      1.0  0.52524  0.69498  0.07578  1.0000
  H   H810      1.0  0.81683  0.73055  0.24631  1.0000
  H   H811      1.0  0.62318  0.74147  0.12369  1.0000
  Fe  Fe59      1.0  0.97148  0.89698  0.27454  1.0000
  H   H812      1.0  0.95408  0.91993  0.17295  1.0000
  H   H813      1.0  0.97755  0.73315  0.44422  1.0000
  C   C460      1.0  0.75071  0.92431  0.19151  1.0000
  C   C461      1.0  0.70999  0.93843  0.15789  1.0000
  C   C462      1.0  0.66462  0.92385  0.13930  1.0000
  C   C463      1.0  0.65933  0.89535  0.15514  1.0000
  C   C464      1.0  0.69977  0.88154  0.18942  1.0000
  C   C465      1.0  0.74550  0.89566  0.20698  1.0000
  H   H814      1.0  0.71350  0.96094  0.14659  1.0000
  H   H815      1.0  0.63339  0.93508  0.11389  1.0000
  H   H816      1.0  0.69573  0.85978  0.20247  1.0000
  H   H817      1.0  0.77645  0.88473  0.23324  1.0000
  C   C466      1.0  0.62418  0.97054  0.26050  1.0000
  H   H818      1.0  0.72536  0.84341  0.13271  1.0000
  C   C467      1.0  0.67735  0.92491  0.02868  1.0000
  C   C468      1.0  0.55409  0.99825  0.25742  1.0000
  H   H819      1.0  0.65105  0.90688  0.00959  1.0000
  H   H820      1.0  0.83264  0.91952  0.08461  1.0000
  C   C469      1.0  0.70682  0.94987  0.27645  1.0000
  C   C470      1.0  0.98102  0.91131  0.16350  1.0000
  H   H821      1.0  0.51243  0.68834  0.26701  1.0000
  C   C471      1.0  0.81570  0.93100  0.10362  1.0000
  C   C472      1.0  0.89365  0.84174  0.03610  1.0000
  C   C473      1.0  0.50686  0.74598  0.04333  1.0000
  H   H822      1.0  0.64649  0.70118  0.24064  1.0000
  H   H823      1.0  0.86819  0.82737  0.00842  1.0000
  H   H824      1.0  0.49975  0.74577  0.24384  1.0000
  C   C474      1.0  0.70818  0.83690  0.09693  1.0000
  C   C475      1.0  0.58743  0.72625  0.24466  1.0000
  C   C476      1.0  0.98506  0.98430  0.46842  1.0000
  C   C477      1.0  0.54721  0.70654  0.20869  1.0000
  H   H825      1.0  0.92004  0.73521  0.07833  1.0000
  H   H826      1.0  0.95135  0.93429  0.10005  1.0000
  H   H827      1.0  0.74791  0.95018  0.09561  1.0000
  H   H828      1.0  0.73086  0.94300  0.26137  1.0000
  H   H829      1.0  0.92859  0.79453  0.19214  1.0000
  H   H830      1.0  0.96989  0.89001  0.42134  1.0000
  H   H831      1.0  0.61413  0.78752  0.44870  1.0000
  C   C478      1.0  0.50844  0.92662  0.13074  1.0000
  C   C479      1.0  0.92852  0.74080  0.05036  1.0000
  H   H832      1.0  0.90164  0.69710  0.01831  1.0000
  H   H833      1.0  0.78084  0.89724  0.02509  1.0000
  C   C480      1.0  0.98244  0.75131  0.42492  1.0000
  C   C481      1.0  0.95638  0.81815  0.15097  1.0000
  H   H834      1.0  0.59427  0.74706  0.22962  1.0000
  H   H835      1.0  0.76825  0.87340  0.08234  1.0000
  C   C482      1.0  0.58582  0.74414  0.41880  1.0000
  C   C483      1.0  0.93396  0.79534  0.11166  1.0000
  H   H836      1.0  0.55900  0.70139  0.18249  1.0000
  H   H837      1.0  0.96896  0.84546  0.08149  1.0000
  C   C484      1.0  0.54100  0.95377  0.15401  1.0000
  N   N26       1.0  0.57617  0.98438  0.22932  1.0000
  H   H838      1.0  0.85352  0.72672  0.40851  1.0000
  H   H839      1.0  0.51727  0.95741  0.26641  1.0000
  H   H840      1.0  0.82998  0.97223  0.14420  1.0000
  H   H841      1.0  0.87492  0.74621  0.28482  1.0000
  H   H842      1.0  0.76232  0.95767  0.05080  1.0000
  N   N27       1.0  0.84661  0.69630  0.32666  1.0000
  H   H843      1.0  0.67562  0.85762  0.03237  1.0000
  N   N28       1.0  0.72889  0.91356  0.04715  1.0000
  H   H844      1.0  0.88218  0.69957  0.47979  1.0000
  C   C485      1.0  0.92885  0.81779  0.17927  1.0000
  C   C486      1.0  0.54222  0.97565  0.28681  1.0000
  C   C487      1.0  0.73626  0.88714  0.07851  1.0000
  H   H845      1.0  0.60560  0.96813  0.01240  1.0000
  H   H846      1.0  0.55145  0.78809  0.41373  1.0000
  H   H847      1.0  0.61849  0.95008  0.27711  1.0000
  C   C488      1.0  0.83622  0.74393  0.27730  1.0000
  H   H848      1.0  0.73401  0.82309  0.08967  1.0000
  H   H849      1.0  0.91880  0.88455  0.48161  1.0000
  C   C489      1.0  0.55947  0.80289  0.49204  1.0000
  H   H850      1.0  0.83266  0.79060  0.29845  1.0000
  H   H851      1.0  0.79862  0.68952  0.35759  1.0000
  H   H852      1.0  0.51417  0.67172  0.07676  1.0000
  H   H853      1.0  0.63158  0.68859  0.28448  1.0000
  H   H854      1.0  0.96613  0.73340  0.05934  1.0000
  H   H855      1.0  0.81904  0.91573  0.13118  1.0000
  H   H856      1.0  0.57747  0.94893  0.15702  1.0000
  H   H857      1.0  0.56120  0.76276  0.35190  1.0000
  H   H858      1.0  0.50348  0.96648  0.19151  1.0000
  H   H859      1.0  0.89109  0.82579  0.15959  1.0000
  H   H860      1.0  0.50891  0.97535  0.33192  1.0000
  H   H861      1.0  0.70244  0.93004  0.29485  1.0000
  H   H862      1.0  0.90567  0.70379  0.41909  1.0000
  H   H863      1.0  0.66444  0.87695  0.07378  1.0000
  H   H864      1.0  0.91451  0.88961  0.04374  1.0000
  C   C490      1.0  0.58031  0.77438  0.44009  1.0000
  H   H865      1.0  0.55500  0.86675  0.49252  1.0000
  C   C491      1.0  0.96969  0.88248  0.45278  1.0000
  H   H866      1.0  0.50788  0.92284  0.09776  1.0000
  N   N29       1.0  0.57078  0.77151  0.48034  1.0000
  H   H867      1.0  0.61824  0.73162  0.44236  1.0000
  C   C492      1.0  0.97007  0.68866  0.31990  1.0000
  C   C493      1.0  0.65779  0.96002  0.23995  1.0000
  H   H868      1.0  0.94087  0.77237  0.12713  1.0000
  C   C494      1.0  0.97957  0.91932  0.12226  1.0000
  S   S114      1.0  0.61587  0.67866  0.14099  1.0000
  H   H869      1.0  0.91757  0.91746  0.44853  1.0000
  H   H870      1.0  0.66395  0.72378  0.29042  1.0000
  H   H871      1.0  0.79460  0.73278  0.31327  1.0000
  C   C495      1.0  0.76196  0.67479  0.27278  1.0000
  H   H872      1.0  0.57754  0.73294  0.27146  1.0000
  H   H873      1.0  0.82013  0.78662  0.24091  1.0000
  C   C496      1.0  0.83204  0.72933  0.31736  1.0000
  H   H874      1.0  0.52628  0.97377  0.13183  1.0000
  H   H875      1.0  0.95565  0.84188  0.13960  1.0000
  H   H876      1.0  0.89130  0.88185  0.42175  1.0000
  C   C497      1.0  0.84553  0.95957  0.12483  1.0000
  H   H877      1.0  0.74617  0.69792  0.26849  1.0000
  H   H878      1.0  0.92946  0.77887  0.01011  1.0000
  S   S115      1.0  0.51441  0.90765  0.00960  1.0000
  C   C498      1.0  0.91540  0.68538  0.30276  1.0000
  C   C499      1.0  0.92170  0.77536  0.03924  1.0000
  H   H879      1.0  0.54804  0.93809  0.21793  1.0000
  S   S116      1.0  0.91196  0.82884  0.36423  1.0000
  C   C500      1.0  0.95555  0.79941  0.38467  1.0000
  C   C501      1.0  0.92147  0.89228  0.45128  1.0000
  S   S117      1.0  0.56172  0.83878  0.02216  1.0000
  C   C502      1.0  0.94892  0.77543  0.40911  1.0000
  H   H880      1.0  0.91785  0.77560  0.41600  1.0000
  H   H881      1.0  0.56517  0.77835  0.07096  1.0000
  C   C503      1.0  0.86126  0.68698  0.44816  1.0000
  H   H882      1.0  0.64501  0.98659  0.28826  1.0000
  H   H883      1.0  0.66875  0.93074  0.05672  1.0000
  H   H884      1.0  0.74491  0.89574  0.11253  1.0000
  C   C504      1.0  0.63522  0.70879  0.26631  1.0000
  H   H885      1.0  0.64192  0.94013  0.21780  1.0000
  H   H886      1.0  0.98153  0.71261  0.33000  1.0000
  H   H887      1.0  0.85509  0.74370  0.34654  1.0000
  H   H888      1.0  0.77522  0.77519  0.25849  1.0000
  H   H889      1.0  0.82267  0.68622  0.44157  1.0000
  C   C505      1.0  0.81466  0.77601  0.26836  1.0000
  C   C506      1.0  0.89501  0.72171  0.01021  1.0000
  H   H890      1.0  0.95234  0.97212  0.44730  1.0000
  H   H891      1.0  0.92055  0.71289  0.35858  1.0000
  N   N30       1.0  0.95189  0.79700  0.07653  1.0000
  C   C507      1.0  0.69277  0.86523  0.06750  1.0000
  C   C508      1.0  0.51802  0.99200  0.31192  1.0000
  H   H892      1.0  0.88248  0.77999  0.02723  1.0000
  C   C509      1.0  0.76184  0.93936  0.07349  1.0000
  H   H893      1.0  0.88030  0.84374  0.06175  1.0000
  H   H894      1.0  0.94689  0.83332  0.20823  1.0000
  H   H895      1.0  0.62619  0.76344  0.38545  1.0000
  H   H896      1.0  0.72478  0.96881  0.30016  1.0000
  H   H897      1.0  0.57567  0.96490  0.31211  1.0000
  H   H898      1.0  0.67588  0.82271  0.09032  1.0000
  H   H899      1.0  0.59567  0.72803  0.36213  1.0000
  H   H900      1.0  0.61255  0.71130  0.49881  1.0000
  H   H901      1.0  0.89393  0.79801  0.09621  1.0000
  H   H902      1.0  0.89765  0.70057  0.27371  1.0000
  C   C510      1.0  0.59263  0.75011  0.37702  1.0000
  C   C511      1.0  0.94575  0.82849  0.05657  1.0000
  H   H903      1.0  0.54757  0.68424  0.22422  1.0000
  H   H904      1.0  0.68730  0.97289  0.01447  1.0000
  C   C512      1.0  0.83726  0.68625  0.36520  1.0000
  H   H905      1.0  0.88313  0.95303  0.14802  1.0000
  C   C513      1.0  0.90013  0.69240  0.34017  1.0000
  H   H906      1.0  0.95855  0.82852  0.03025  1.0000
  H   H907      1.0  0.97094  0.85738  0.45328  1.0000
  H   H908      1.0  0.82230  0.68192  0.25785  1.0000
  H   H909      1.0  0.55345  0.72940  0.40869  1.0000
  H   H910      1.0  0.53376  0.72764  0.46375  1.0000
  C   C514      1.0  0.52748  0.75148  0.47108  1.0000
  H   H911      1.0  0.61205  0.83154  0.48128  1.0000
  C   C515      1.0  0.89197  0.87352  0.01700  1.0000
  H   H912      1.0  0.52904  0.81348  0.46295  1.0000
  H   H913      1.0  0.66499  0.97849  0.22124  1.0000
  H   H914      1.0  0.84665  0.97480  0.09891  1.0000
  H   H915      1.0  0.52222  0.90560  0.15082  1.0000
  H   H916      1.0  0.51937  0.74623  0.14501  1.0000
  H   H917      1.0  0.52180  0.76694  0.19175  1.0000
  H   H918      1.0  0.98050  0.68217  0.29332  1.0000
  H   H919      1.0  0.58240  0.99615  0.07956  1.0000
  C   C516      1.0  0.81726  0.67585  0.28756  1.0000
  C   C517      1.0  0.74261  0.90489  0.01067  1.0000
  C   C518      1.0  0.50707  0.99881  0.03057  1.0000
  H   H920      1.0  0.73737  0.67120  0.20101  1.0000
  H   H921      1.0  0.98952  0.67358  0.34898  1.0000
  H   H922      1.0  0.99421  0.81157  0.17323  1.0000
  C   C519      1.0  0.99630  0.79931  0.37668  1.0000
  H   H923      1.0  0.51592  0.98938  0.00432  1.0000
  H   H924      1.0  0.52160  0.74992  0.50147  1.0000
  Fe  Fe60      1.0  0.57419  0.91225  0.69848  1.0000
  S   S118      1.0  0.63283  0.87747  0.72642  1.0000
  C   C520      1.0  0.83020  0.69264  0.68499  1.0000
  Fe  Fe61      1.0  0.61174  0.93707  0.63338  1.0000
  S   S119      1.0  0.67472  0.90394  0.65910  1.0000
  S   S120      1.0  0.61076  0.97335  0.58296  1.0000
  Fe  Fe62      1.0  0.62000  0.86908  0.65622  1.0000
  S   S121      1.0  0.63068  0.82032  0.63958  1.0000
  Fe  Fe63      1.0  0.68323  0.91456  0.72775  1.0000
  S   S122      1.0  0.74863  0.91838  0.79546  1.0000
  S   S123      1.0  0.62487  0.95041  0.70331  1.0000
  H   H925      1.0  0.71883  0.89599  0.92035  1.0000
  S   S124      1.0  0.97152  0.89424  0.85034  1.0000
  C   C521      1.0  0.58285  0.79390  0.61799  1.0000
  C   C522      1.0  0.59385  0.76277  0.61933  1.0000
  C   C523      1.0  0.55688  0.74107  0.59974  1.0000
  C   C524      1.0  0.58611  0.85654  0.52137  1.0000
  H   H926      1.0  0.67377  0.88367  0.96412  1.0000
  C   C525      1.0  0.53452  0.80322  0.59787  1.0000
  H   H927      1.0  0.63120  0.75545  0.63526  1.0000
  H   H928      1.0  0.67496  0.84136  0.83870  1.0000
  H   H929      1.0  0.67619  0.72955  0.59661  1.0000
  H   H930      1.0  0.55017  0.98832  0.75524  1.0000
  C   C526      1.0  0.80983  0.91050  0.80904  1.0000
  C   C527      1.0  0.82622  0.90619  0.77663  1.0000
  C   C528      1.0  0.87592  0.90143  0.78955  1.0000
  C   C529      1.0  0.90928  0.90032  0.83484  1.0000
  C   C530      1.0  0.89258  0.90419  0.86704  1.0000
  C   C531      1.0  0.84326  0.90941  0.85420  1.0000
  H   H931      1.0  0.80081  0.90724  0.74171  1.0000
  H   H932      1.0  0.88849  0.89870  0.76434  1.0000
  H   H933      1.0  0.91769  0.90400  0.90192  1.0000
  H   H934      1.0  0.83095  0.91299  0.87945  1.0000
  H   H935      1.0  0.97040  0.67773  0.91320  1.0000
  C   C532      1.0  0.58932  0.89245  0.85674  1.0000
  C   C533      1.0  0.57931  0.90006  0.81273  1.0000
  H   H936      1.0  0.62611  0.88762  0.88044  1.0000
  H   H937      1.0  0.60841  0.90122  0.80311  1.0000
  C   C534      1.0  0.50513  0.79273  0.75735  1.0000
  H   H938      1.0  0.60903  0.95645  0.88006  1.0000
  S   S125      1.0  0.55635  0.90108  0.62658  1.0000
  H   H939      1.0  0.67536  0.82479  0.78975  1.0000
  C   C535      1.0  0.96321  0.99480  0.88814  1.0000
  H   H940      1.0  0.67574  0.80043  0.83338  1.0000
  C   C536      1.0  0.55237  0.89123  0.87038  1.0000
  C   C537      1.0  0.53193  0.90631  0.78142  1.0000
  H   H941      1.0  0.76224  0.68209  0.63006  1.0000
  N   N31       1.0  0.88523  0.80032  0.80874  1.0000
  C   C538      1.0  0.83430  0.81051  0.77840  1.0000
  C   C539      1.0  0.89798  0.81097  0.85558  1.0000
  C   C540      1.0  0.91890  0.81634  0.79387  1.0000
  C   C541      1.0  0.89258  0.76626  0.80762  1.0000
  C   C542      1.0  0.84869  0.74536  0.79894  1.0000
  C   C543      1.0  0.81857  0.80718  0.72773  1.0000
  C   C544      1.0  0.97376  0.81161  0.82358  1.0000
  C   C545      1.0  0.86631  0.79854  0.87702  1.0000
  C   C546      1.0  0.87749  0.81490  0.92079  1.0000
  C   C547      1.0  0.86429  0.71203  0.80847  1.0000
  C   C548      1.0  0.76376  0.81043  0.70073  1.0000
  H   H942      1.0  0.52314  0.71311  0.65868  1.0000
  H   H943      1.0  0.82961  0.83504  0.78458  1.0000
  H   H944      1.0  0.80729  0.79829  0.78569  1.0000
  H   H945      1.0  0.93556  0.80425  0.87892  1.0000
  H   H946      1.0  0.89719  0.83638  0.85658  1.0000
  H   H947      1.0  0.91202  0.84135  0.79137  1.0000
  H   H948      1.0  0.91196  0.80861  0.75991  1.0000
  H   H949      1.0  0.90391  0.76015  0.78133  1.0000
  H   H950      1.0  0.92332  0.75878  0.83936  1.0000
  H   H951      1.0  0.82145  0.74688  0.76355  1.0000
  H   H952      1.0  0.83045  0.75158  0.81968  1.0000
  H   H953      1.0  0.83555  0.82545  0.71654  1.0000
  H   H954      1.0  0.82975  0.78483  0.71977  1.0000
  C   C549      1.0  0.51210  0.99868  0.68567  1.0000
  H   H955      1.0  0.50384  0.80558  0.83977  1.0000
  H   H956      1.0  0.82719  0.80166  0.85539  1.0000
  H   H957      1.0  0.87416  0.77398  0.88479  1.0000
  H   H958      1.0  0.91593  0.81150  0.94484  1.0000
  H   H959      1.0  0.87000  0.83970  0.91509  1.0000
  H   H960      1.0  0.85440  0.80544  0.93538  1.0000
  H   H961      1.0  0.83200  0.69732  0.79941  1.0000
  H   H962      1.0  0.88351  0.70453  0.78891  1.0000
  H   H963      1.0  0.88855  0.70880  0.84444  1.0000
  H   H964      1.0  0.74457  0.79195  0.70902  1.0000
  H   H965      1.0  0.75141  0.83284  0.70747  1.0000
  H   H966      1.0  0.75367  0.80904  0.66458  1.0000
  C   C550      1.0  0.51243  0.71164  0.68614  1.0000
  C   C551      1.0  0.51976  0.76915  0.69762  1.0000
  C   C552      1.0  0.60142  0.82649  0.50812  1.0000
  H   H967      1.0  0.54060  0.82786  0.68365  1.0000
  S   S126      1.0  0.98541  0.86287  0.96268  1.0000
  H   H968      1.0  0.90524  0.87302  0.99118  1.0000
  C   C553      1.0  0.71306  0.87899  0.97899  1.0000
  C   C554      1.0  0.60104  0.97988  0.86630  1.0000
  H   H969      1.0  0.90428  0.96685  0.92025  1.0000
  C   C555      1.0  0.94221  0.97007  0.94596  1.0000
  C   C556      1.0  0.66799  0.71602  0.56601  1.0000
  H   H970      1.0  0.59477  0.81807  0.81942  1.0000
  C   C557      1.0  0.80087  0.67663  0.64046  1.0000
  H   H971      1.0  0.59807  0.77500  0.77605  1.0000
  H   H972      1.0  0.70552  0.85595  0.91896  1.0000
  H   H973      1.0  0.82272  0.71749  0.68143  1.0000
  H   H974      1.0  0.82015  0.68380  0.71075  1.0000
  C   C558      1.0  0.61538  0.75974  0.51996  1.0000
  C   C559      1.0  0.53574  0.73742  0.71978  1.0000
  C   C560      1.0  0.72687  0.87495  0.94077  1.0000
  H   H975      1.0  0.50740  0.96286  0.52207  1.0000
  H   H976      1.0  0.99667  0.84898  0.79458  1.0000
  C   C561      1.0  0.50857  0.75036  0.57904  1.0000
  C   C562      1.0  0.66433  0.95299  0.99751  1.0000
  H   H977      1.0  0.98335  0.95987  0.83537  1.0000
  H   H978      1.0  0.52562  0.73431  0.74737  1.0000
  H   H979      1.0  0.52572  0.82719  0.59651  1.0000
  S   S127      1.0  0.56833  0.88191  0.92682  1.0000
  H   H980      1.0  0.52910  0.97714  0.86063  1.0000
  C   C563      1.0  0.66143  0.82199  0.81491  1.0000
  H   H981      1.0  0.57552  0.73469  0.73306  1.0000
  H   H982      1.0  0.53385  0.96778  0.81059  1.0000
  C   C564      1.0  0.97672  0.96992  0.92450  1.0000
  H   H983      1.0  0.52299  0.84545  0.72124  1.0000
  S   S128      1.0  0.51805  0.91583  0.72553  1.0000
  H   H984      1.0  0.56569  0.71711  0.60103  1.0000
  H   H985      1.0  0.59385  0.84470  0.77817  1.0000
  C   C565      1.0  0.54643  0.98381  0.83913  1.0000
  C   C566      1.0  0.60611  0.82192  0.79272  1.0000
  H   H986      1.0  0.97441  0.94707  0.90945  1.0000
  H   H987      1.0  0.61808  0.76995  0.55143  1.0000
  H   H988      1.0  0.98246  0.78711  0.83009  1.0000
  H   H989      1.0  0.52462  0.68929  0.70283  1.0000
  C   C567      1.0  0.61180  0.96267  0.98296  1.0000
  C   C568      1.0  0.98850  0.99986  0.50673  1.0000
  C   C569      1.0  0.98738  0.72242  0.94386  1.0000
  H   H990      1.0  0.64895  0.76715  0.51811  1.0000
  H   H991      1.0  0.69698  0.71964  0.55545  1.0000
  H   H992      1.0  0.81185  0.68661  0.61602  1.0000
  H   H993      1.0  0.54561  0.99777  0.68117  1.0000
  C   C570      1.0  0.58562  0.79653  0.75703  1.0000
  H   H994      1.0  0.60420  0.79797  0.73510  1.0000
  H   H995      1.0  0.86956  0.68913  0.69620  1.0000
  H   H996      1.0  0.59115  0.71834  0.53962  1.0000
  Fe  Fe64      1.0  0.52484  0.87205  0.96574  1.0000
  H   H997      1.0  0.94519  0.99187  0.96395  1.0000
  N   N32       1.0  0.53147  0.79621  0.72883  1.0000
  C   C571      1.0  0.57136  0.98585  0.52770  1.0000
  H   H998      1.0  0.52680  0.77831  0.78687  1.0000
  C   C572      1.0  0.61881  0.72493  0.52871  1.0000
  H   H999      1.0  0.52173  0.83867  0.78919  1.0000
  H   H1000     1.0  0.98528  0.82376  0.85572  1.0000
  H   H1001     1.0  0.76588  0.86939  0.95371  1.0000
  H   H1002     1.0  0.54713  0.80108  0.51856  1.0000
  H   H1003     1.0  0.53644  0.77212  0.67446  1.0000
  H   H1004     1.0  0.61670  0.87297  0.53320  1.0000
  H   H1005     1.0  0.95159  0.95111  0.97023  1.0000
  C   C573      1.0  0.51692  0.82463  0.70058  1.0000
  H   H1006     1.0  0.66726  0.69157  0.57410  1.0000
  H   H1007     1.0  0.85426  0.88216  0.00154  1.0000
  H   H1008     1.0  0.66849  0.94762  0.96702  1.0000
  H   H1009     1.0  0.92951  0.98697  0.85908  1.0000
  H   H1010     1.0  0.95818  0.99942  0.51470  1.0000
  H   H1011     1.0  0.57590  0.85288  0.54888  1.0000
  H   H1012     1.0  0.63381  0.81829  0.53767  1.0000
  H   H1013     1.0  0.58654  0.94428  0.96335  1.0000
  H   H1014     1.0  0.72086  0.85708  0.99724  1.0000
  H   H1015     1.0  0.61555  0.99641  0.89437  1.0000
  H   H1016     1.0  0.97315  0.71747  0.96733  1.0000
  H   H1017     1.0  0.60358  0.98330  0.96178  1.0000
  H   H1018     1.0  0.74107  0.92516  0.99020  1.0000
  C   C574      1.0  0.50491  0.89787  0.83925  1.0000
  H   H1019     1.0  0.69530  0.66794  0.69220  1.0000
  H   H1020     1.0  0.61954  0.98329  0.84480  1.0000
  C   C575      1.0  0.98579  0.69988  0.91326  1.0000
  H   H1021     1.0  0.99569  0.81196  0.77002  1.0000
  H   H1022     1.0  0.90192  0.72645  0.98100  1.0000
  C   C576      1.0  0.52240  0.97777  0.50576  1.0000
  H   H1023     1.0  0.84828  0.67320  0.53398  1.0000
  H   H1024     1.0  0.85652  0.72672  0.00135  1.0000
