data_image0
_chemical_formula_structural       CSHCSCH2CHCH2CH3CHCH6CH2NCH6C2H3CSCHSH6FeCHCHC2H5CFeCH3C2HCHFeCSC2H2C3H4C3H2CHCHNHC2SCHFeCSHCHCH6CHSHCH5CHFeHC2H3CH2CH3CSHSH3C2SH2CHCH4SCH3SCH4CHNH2CHC2SH5CHCH4CSCFeCH2C2H2SCHFeH3CFeHCH2C2H5CFeSHCH2NHCH4CH2C3H2CSH2C2SH4CSC2HCH3CH3CHFeHSH2CHCH3CH2CHCHCHC2NH6SCHFeHCH2CFeCH4CHCHC2HCFeH6CHSH4CH2CH3CHSH5CHSH2CHCNCHC2HSC2HC3HSH2CHCH2FeCH4CHCHC2SC2HCSCH4FeC2SH2SCH3SH2C3HCHCHC2HCHC3SHSCHSH2C2H2SCHCFe2CH6SCH6CH3FeC3HS2CHCHC2H2CSCH3C2H3CFeH2FeH3CH8NH2CH5CHC2H4SC3H3CH2CH2C5HC2H2CNCH5CH2CH3CSHCHCH2SH3C2NSH5CFeHCH2CH2NC2HCSCHC2H6C2H3CHCHCH2CH2C2NHC4NCHCH5CH7C2H2CHCFeSH3CH2CSFeH2CHC2HSH4S2HFeHCH4CSCH8CNHSC2H4SHFeC2H5CHSCHCHC3H2C4H3FeH5CHCHCHCSCSCH3CH2FeSCFeH3C2SHCH3SCHC2HCHCH2CHC2H2CH3CFeH8C2H2CH2C2H2CHCHCHCH7C2H2CHCHSH5C3H2NCH2NSCH2SCH2C3HNH4CHC2HCHCH2NH6CH3CH4SH3FeH3CFeHS2HCHC2FeC2HC2H2SHS2CSCHCH2C2HSCHFeH2CH2SCSCH2C2H2CH3FeHFeH2CSCHSHCHC2HCH4NH2CH2C3H6CH5C2HC2H3CH6CNHCHC2H4CHCNCHSH4CH4CHCH5CHCFeH2CH4C3HSHCH4CHCH2CH3SH8C3HC3H3NC2H5C2SC2HCH2SH8CHFeHC2H2CFeH5FeHS2HCHC2HCHCHCH4SHCHSCHC4H2FeSH3CH2CH3CHCH4SH4CH2FeHCH3NC2HSCHC2FeNSHSH3CHCH5C3HFeH2CH5CH2SCH4FeH5CHCSNHSHSC2HSHCSCH2C3HC2H3NFeCH2CFeHCSCH3CSCH3CHC2SC4H3CH3CHCHCH10FeHC3HCH2CSHSHSHCH2SHCHFe2HC2HC2H2C2HCNH3C2H3FeSH5C2HCHFeCFeH2CHFeHCNC3HCH8CH2CH2SHCSCH6C2H2C3H3SC2SHC2H2CHCH3CH2SHCHCH2CHCH2FeH6CHCHC2H5CH2CH5CHCHS2CSCH2C2HCH2CHSH4CH2C2HC2H2CNH2C2HFeHC2H7CH2CFeHC4H2SHC2H2C2HSH2CH5CHSH4SNH2C2HS2H3CFeH2C5HFeCFeHC4HCHC2SH5FeC2HCHCH5FeCHC3HCSFeCHSFeCHNC4H2SHCSC2H5CHCSH6FeCSCH2C2H2C2H2CHC2HC3H2CH3CH4CH2CHCNSCH5CSH4CHCH4CH7C2H3SCH2CHCNCHCH4CH5CSH5CH5CH3CHCHCH
_chemical_formula_sum              "C576 S128 H1024 N32 Fe64"
_cell_length_a       31.3893
_cell_length_b       26.6405
_cell_length_c       27.2239
_cell_angle_alpha    78.79
_cell_angle_beta     74.9559
_cell_angle_gamma    92.5257

_space_group_name_H-M_alt    "P 1"
_space_group_IT_number       1

loop_
  _space_group_symop_operation_xyz
  'x, y, z'

loop_
  _atom_site_type_symbol
  _atom_site_label
  _atom_site_symmetry_multiplicity
  _atom_site_fract_x
  _atom_site_fract_y
  _atom_site_fract_z
  _atom_site_occupancy
  C   C1        1.0  0.15485  0.25951  0.79502  1.0000
  S   S1        1.0  0.36958  0.30378  0.81111  1.0000
  H   H1        1.0  0.32730  0.09901  0.73851  1.0000
  C   C2        1.0  0.09332  0.32959  0.66941  1.0000
  S   S2        1.0  0.38012  0.16870  0.89278  1.0000
  C   C3        1.0  0.90680  0.26098  0.87834  1.0000
  H   H2        1.0  0.12785  0.24852  0.82987  1.0000
  H   H3        1.0  0.16052  0.04863  0.79897  1.0000
  C   C4        1.0  0.03399  0.19760  0.75180  1.0000
  H   H4        1.0  0.10642  0.26022  0.71690  1.0000
  C   C5        1.0  0.01951  0.28427  0.76535  1.0000
  H   H5        1.0  0.32462  0.18198  0.67836  1.0000
  H   H6        1.0  0.23682  0.08417  0.74566  1.0000
  C   C6        1.0  0.13215  0.00809  0.69022  1.0000
  H   H7        1.0  0.95138  0.20097  0.73633  1.0000
  H   H8        1.0  0.27121  0.21841  0.81498  1.0000
  H   H9        1.0  0.01415  0.09212  0.78185  1.0000
  C   C7        1.0  0.31905  0.10576  0.66084  1.0000
  H   H10       1.0  0.07009  0.16836  0.68377  1.0000
  C   C8        1.0  0.26960  0.47296  0.82398  1.0000
  H   H11       1.0  0.00258  0.18585  0.78307  1.0000
  H   H12       1.0  0.94089  0.26618  0.73990  1.0000
  H   H13       1.0  0.28266  0.10511  0.66827  1.0000
  H   H14       1.0  0.22732  0.37929  0.82810  1.0000
  H   H15       1.0  0.26723  0.46427  0.78641  1.0000
  H   H16       1.0  0.92027  0.29134  0.84252  1.0000
  C   C9        1.0  0.91726  0.41990  0.80130  1.0000
  H   H17       1.0  0.04332  0.07582  0.72158  1.0000
  H   H18       1.0  0.93419  0.24017  0.88856  1.0000
  N   N1        1.0  0.31120  0.02082  0.73165  1.0000
  C   C10       1.0  0.27068  0.01992  0.77633  1.0000
  H   H19       1.0  0.33648  0.01049  0.82947  1.0000
  H   H20       1.0  0.19745  0.05804  0.83785  1.0000
  H   H21       1.0  0.16469  0.33250  0.65759  1.0000
  H   H22       1.0  0.25633  0.19740  0.88424  1.0000
  H   H23       1.0  0.15124  0.36969  0.87988  1.0000
  H   H24       1.0  0.12052  0.04694  0.68940  1.0000
  C   C11       1.0  0.20679  0.23731  0.72180  1.0000
  C   C12       1.0  0.93945  0.02559  0.68639  1.0000
  H   H25       1.0  0.97024  0.05250  0.67309  1.0000
  H   H26       1.0  0.95565  0.37566  0.67067  1.0000
  H   H27       1.0  0.08969  0.35208  0.70019  1.0000
  C   C13       1.0  0.20523  0.28938  0.89529  1.0000
  S   S3        1.0  0.14948  0.48321  0.66546  1.0000
  C   C14       1.0  0.04280  0.10399  0.74686  1.0000
  H   H28       1.0  0.94184  0.12432  0.80013  1.0000
  S   S4        1.0  0.14524  0.16001  0.78576  1.0000
  H   H29       1.0  0.98446  0.45484  0.78332  1.0000
  H   H30       1.0  0.98582  0.26821  0.78990  1.0000
  H   H31       1.0  0.08122  0.30620  0.78226  1.0000
  H   H32       1.0  0.05130  0.32224  0.86715  1.0000
  H   H33       1.0  0.21347  0.20681  0.85069  1.0000
  H   H34       1.0  0.06049  0.19272  0.77215  1.0000
  Fe  Fe1       1.0  0.17342  0.44057  0.73052  1.0000
  C   C15       1.0  0.24678  0.22162  0.85167  1.0000
  H   H35       1.0  0.15982  0.33891  0.79983  1.0000
  C   C16       1.0  0.24809  0.27771  0.85694  1.0000
  H   H36       1.0  0.21947  0.20897  0.69966  1.0000
  C   C17       1.0  0.94502  0.38771  0.70731  1.0000
  C   C18       1.0  0.04803  0.28640  0.80348  1.0000
  H   H37       1.0  0.97959  0.12357  0.87014  1.0000
  H   H38       1.0  0.01896  0.23885  0.65650  1.0000
  H   H39       1.0  0.93431  0.28372  0.64961  1.0000
  H   H40       1.0  0.30355  0.46763  0.82782  1.0000
  H   H41       1.0  0.07386  0.10325  0.75921  1.0000
  C   C19       1.0  0.19024  0.03516  0.81042  1.0000
  Fe  Fe2       1.0  0.10954  0.48716  0.81066  1.0000
  C   C20       1.0  0.37967  0.40771  0.77772  1.0000
  H   H42       1.0  0.16809  0.01288  0.66975  1.0000
  H   H43       1.0  0.09235  0.25119  0.66025  1.0000
  H   H44       1.0  0.34388  0.40468  0.78728  1.0000
  C   C21       1.0  0.93193  0.24355  0.67187  1.0000
  C   C22       1.0  0.92287  0.12441  0.83931  1.0000
  H   H45       1.0  0.90650  0.43292  0.83740  1.0000
  C   C23       1.0  0.23522  0.43822  0.86976  1.0000
  H   H46       1.0  0.05187  0.24731  0.82364  1.0000
  Fe  Fe3       1.0  0.08074  0.46264  0.71838  1.0000
  C   C24       1.0  0.20831  0.32550  0.73324  1.0000
  S   S5        1.0  0.02963  0.43277  0.68359  1.0000
  C   C25       1.0  0.33264  0.07541  0.70819  1.0000
  C   C26       1.0  0.22969  0.04228  0.76209  1.0000
  H   H47       1.0  0.27805  0.28639  0.86911  1.0000
  H   H48       1.0  0.01608  0.32437  0.74669  1.0000
  C   C27       1.0  0.02707  0.31547  0.84537  1.0000
  C   C28       1.0  0.03952  0.15772  0.71650  1.0000
  C   C29       1.0  0.00641  0.25913  0.68852  1.0000
  H   H49       1.0  0.01755  0.35312  0.82792  1.0000
  H   H50       1.0  0.27764  0.01750  0.67160  1.0000
  H   H51       1.0  0.21909  0.02298  0.73404  1.0000
  H   H52       1.0  0.01071  0.15507  0.70030  1.0000
  C   C30       1.0  0.96138  0.43231  0.77076  1.0000
  C   C31       1.0  0.22612  0.28848  0.70579  1.0000
  C   C32       1.0  0.17098  0.22297  0.76649  1.0000
  H   H53       1.0  0.25369  0.29977  0.67123  1.0000
  H   H54       1.0  0.00770  0.30011  0.66906  1.0000
  C   C33       1.0  0.94401  0.12336  0.87892  1.0000
  H   H55       1.0  0.99742  0.29255  0.87344  1.0000
  C   C34       1.0  0.17286  0.31084  0.77785  1.0000
  H   H56       1.0  0.36935  0.07573  0.69360  1.0000
  N   N2        1.0  0.03568  0.25311  0.72480  1.0000
  H   H57       1.0  0.37716  0.05308  0.77759  1.0000
  C   C35       1.0  0.95652  0.24103  0.71368  1.0000
  C   C36       1.0  0.89847  0.05486  0.68865  1.0000
  S   S6        1.0  0.22844  0.39046  0.71041  1.0000
  C   C37       1.0  0.97515  0.41661  0.72351  1.0000
  H   H58       1.0  0.27673  0.49578  0.69197  1.0000
  Fe  Fe4       1.0  0.10638  0.14036  0.87000  1.0000
  C   C38       1.0  0.08291  0.27113  0.69326  1.0000
  S   S7        1.0  0.10450  0.41482  0.78122  1.0000
  H   H59       1.0  0.27865  0.04178  0.80427  1.0000
  C   C39       1.0  0.36301  0.01245  0.79293  1.0000
  H   H60       1.0  0.25230  0.30167  0.81744  1.0000
  C   C40       1.0  0.23606  0.38114  0.86497  1.0000
  H   H61       1.0  0.38775  0.39364  0.88892  1.0000
  H   H62       1.0  0.94682  0.02816  0.80370  1.0000
  H   H63       1.0  0.20238  0.45172  0.86894  1.0000
  H   H64       1.0  0.27108  0.37240  0.85827  1.0000
  H   H65       1.0  0.38699  0.49027  0.75760  1.0000
  H   H66       1.0  0.17866  0.28405  0.87636  1.0000
  C   C41       1.0  0.90123  0.37423  0.73845  1.0000
  H   H67       1.0  0.89646  0.22978  0.69049  1.0000
  S   S8        1.0  0.08671  0.48045  0.89744  1.0000
  H   H68       1.0  0.01741  0.08906  0.14598  1.0000
  C   C42       1.0  0.13146  0.40171  0.06640  1.0000
  H   H69       1.0  0.38114  0.18098  0.10222  1.0000
  H   H70       1.0  0.36452  0.37036  0.95795  1.0000
  H   H71       1.0  0.94382  0.01018  0.89886  1.0000
  H   H72       1.0  0.33566  0.03719  0.91838  1.0000
  H   H73       1.0  0.11574  0.47331  0.02691  1.0000
  C   C43       1.0  0.25566  0.15670  0.99718  1.0000
  H   H74       1.0  0.24676  0.29605  0.04466  1.0000
  Fe  Fe5       1.0  0.01847  0.12131  0.95444  1.0000
  H   H75       1.0  0.94500  0.49542  0.14189  1.0000
  C   C44       1.0  0.21884  0.33874  0.95920  1.0000
  C   C45       1.0  0.15944  0.35893  0.91782  1.0000
  H   H76       1.0  0.33886  0.02404  0.08577  1.0000
  H   H77       1.0  0.28978  0.04700  0.12106  1.0000
  H   H78       1.0  0.93084  0.28939  0.00535  1.0000
  C   C46       1.0  0.13776  0.46045  0.05195  1.0000
  H   H79       1.0  0.19221  0.47071  0.98365  1.0000
  H   H80       1.0  0.26531  0.01937  0.99180  1.0000
  C   C47       1.0  0.30851  0.01293  0.11890  1.0000
  H   H81       1.0  0.03421  0.45211  0.11185  1.0000
  H   H82       1.0  0.97556  0.49863  0.07672  1.0000
  H   H83       1.0  0.15762  0.39430  0.93404  1.0000
  C   C48       1.0  0.21290  0.16703  0.99410  1.0000
  S   S9        1.0  0.12985  0.19638  0.03081  1.0000
  H   H84       1.0  0.27627  0.35973  0.01866  1.0000
  S   S10       1.0  0.38515  0.26512  0.95013  1.0000
  H   H85       1.0  0.15095  0.38690  0.09390  1.0000
  H   H86       1.0  0.30512  0.30304  0.01359  1.0000
  H   H87       1.0  0.18201  0.02141  0.94806  1.0000
  C   C49       1.0  0.26819  0.16004  0.04217  1.0000
  C   C50       1.0  0.19613  0.18705  0.07948  1.0000
  S   S11       1.0  0.05308  0.07441  0.89891  1.0000
  H   H88       1.0  0.11619  0.28604  0.93780  1.0000
  H   H89       1.0  0.00526  0.45013  0.97860  1.0000
  C   C51       1.0  0.23823  0.17460  0.08361  1.0000
  H   H90       1.0  0.12791  0.02199  0.12407  1.0000
  C   C52       1.0  0.07714  0.34440  0.96478  1.0000
  H   H91       1.0  0.23044  0.04709  0.09641  1.0000
  H   H92       1.0  0.07849  0.37495  0.98705  1.0000
  H   H93       1.0  0.15902  0.08346  0.09483  1.0000
  H   H94       1.0  0.36090  0.43616  0.92928  1.0000
  S   S12       1.0  0.06900  0.18995  0.92127  1.0000
  C   C53       1.0  0.28442  0.01083  0.02099  1.0000
  H   H95       1.0  0.21728  0.37635  0.97105  1.0000
  H   H96       1.0  0.20305  0.16366  0.95986  1.0000
  H   H97       1.0  0.14191  0.38541  0.03114  1.0000
  S   S13       1.0  0.32080  0.14489  0.04738  1.0000
  C   C54       1.0  0.27361  0.31987  0.01241  1.0000
  H   H98       1.0  0.36765  0.05792  0.95874  1.0000
  H   H99       1.0  0.27860  0.14509  0.96521  1.0000
  H   H100      1.0  0.04240  0.03217  0.13180  1.0000
  H   H101      1.0  0.12666  0.30575  0.99327  1.0000
  C   C55       1.0  0.21760  0.00904  0.09222  1.0000
  H   H102      1.0  0.91473  0.38296  0.05613  1.0000
  N   N3        1.0  0.20567  0.34177  0.90930  1.0000
  H   H103      1.0  0.26513  0.27935  0.95478  1.0000
  H   H104      1.0  0.09591  0.38845  0.08566  1.0000
  C   C56       1.0  0.35472  0.02406  0.94683  1.0000
  H   H105      1.0  0.90780  0.28686  0.07395  1.0000
  C   C57       1.0  0.00109  0.48479  0.95284  1.0000
  C   C58       1.0  0.18677  0.48062  0.02258  1.0000
  S   S14       1.0  0.05010  0.08826  0.01665  1.0000
  H   H106      1.0  0.19648  0.25822  0.93101  1.0000
  H   H107      1.0  0.29184  0.34422  0.92900  1.0000
  H   H108      1.0  0.96708  0.35761  0.03424  1.0000
  H   H109      1.0  0.90663  0.31590  0.92597  1.0000
  H   H110      1.0  0.07020  0.36190  0.92758  1.0000
  C   C59       1.0  0.26457  0.31969  0.95985  1.0000
  H   H111      1.0  0.19477  0.31144  0.99160  1.0000
  C   C60       1.0  0.18473  0.02084  0.05880  1.0000
  H   H112      1.0  0.93177  0.48496  0.99158  1.0000
  H   H113      1.0  0.12379  0.05658  0.06173  1.0000
  H   H114      1.0  0.04951  0.31472  0.98770  1.0000
  H   H115      1.0  0.24770  0.17682  0.11867  1.0000
  C   C61       1.0  0.38220  0.40403  0.92756  1.0000
  S   S15       1.0  0.94493  0.12572  0.97887  1.0000
  C   C62       1.0  0.14653  0.04733  0.08657  1.0000
  Fe  Fe6       1.0  0.10350  0.15336  0.97971  1.0000
  C   C63       1.0  0.90996  0.30873  0.03410  1.0000
  H   H116      1.0  0.29538  0.04912  0.02642  1.0000
  H   H117      1.0  0.12595  0.47459  0.08817  1.0000
  C   C64       1.0  0.18323  0.18270  0.03487  1.0000
  C   C65       1.0  0.12084  0.31978  0.95482  1.0000
  H   H118      1.0  0.93836  0.38456  0.98752  1.0000
  H   H119      1.0  0.17316  0.19865  0.11145  1.0000
  S   S16       1.0  0.14427  0.10898  0.92609  1.0000
  C   C66       1.0  0.91902  0.12309  0.92962  1.0000
  H   H120      1.0  0.20867  0.45694  0.04184  1.0000
  Fe  Fe7       1.0  0.08858  0.04639  0.95884  1.0000
  H   H121      1.0  0.27547  0.48735  0.97289  1.0000
  H   H122      1.0  0.20128  0.04735  0.02115  1.0000
  H   H123      1.0  0.24256  0.44372  0.90613  1.0000
  C   C67       1.0  0.93381  0.36183  0.02768  1.0000
  Fe  Fe8       1.0  0.37362  0.17948  0.97403  1.0000
  H   H124      1.0  0.89920  0.20557  0.06616  1.0000
  C   C68       1.0  0.39220  0.17926  0.13802  1.0000
  H   H125      1.0  0.38316  0.00502  0.92749  1.0000
  H   H126      1.0  0.17450  0.49087  0.12898  1.0000
  C   C69       1.0  0.02682  0.47351  0.14377  1.0000
  C   C70       1.0  0.01457  0.15119  0.30799  1.0000
  H   H127      1.0  0.34290  0.17939  0.34566  1.0000
  H   H128      1.0  0.90079  0.21533  0.37454  1.0000
  H   H129      1.0  0.00044  0.45067  0.17718  1.0000
  H   H130      1.0  0.04498  0.17420  0.36434  1.0000
  H   H131      1.0  0.03964  0.00540  0.32936  1.0000
  C   C71       1.0  0.92913  0.09469  0.26998  1.0000
  Fe  Fe9       1.0  0.01735  0.44206  0.29249  1.0000
  S   S17       1.0  0.08765  0.47658  0.25930  1.0000
  H   H132      1.0  0.01974  0.10914  0.23073  1.0000
  C   C72       1.0  0.00388  0.00384  0.33032  1.0000
  H   H133      1.0  0.05928  0.07332  0.25291  1.0000
  H   H134      1.0  0.37008  0.20094  0.16338  1.0000
  N   N4        1.0  0.99317  0.05564  0.30496  1.0000
  H   H135      1.0  0.97189  0.09306  0.37031  1.0000
  C   C73       1.0  0.14283  0.04523  0.26929  1.0000
  H   H136      1.0  0.91051  0.25881  0.24876  1.0000
  H   H137      1.0  0.38913  0.13832  0.15837  1.0000
  H   H138      1.0  0.99028  0.16595  0.28716  1.0000
  H   H139      1.0  0.25404  0.09926  0.35438  1.0000
  C   C74       1.0  0.02428  0.07017  0.25079  1.0000
  H   H140      1.0  0.34509  0.03255  0.17106  1.0000
  H   H141      1.0  0.36771  0.08627  0.26055  1.0000
  C   C75       1.0  0.15717  0.09565  0.24140  1.0000
  C   C76       1.0  0.15808  0.13564  0.26795  1.0000
  C   C77       1.0  0.03977  0.06045  0.15717  1.0000
  H   H142      1.0  0.98645  0.18315  0.37626  1.0000
  H   H143      1.0  0.93995  0.40004  0.36225  1.0000
  C   C78       1.0  0.36330  0.05706  0.29710  1.0000
  S   S18       1.0  0.99399  0.37069  0.27158  1.0000
  H   H144      1.0  0.05709  0.47835  0.15698  1.0000
  H   H145      1.0  0.16813  0.10375  0.19926  1.0000
  C   C79       1.0  0.94352  0.28297  0.33012  1.0000
  C   C80       1.0  0.35482  0.21326  0.35833  1.0000
  S   S19       1.0  0.14645  0.17582  0.35486  1.0000
  H   H146      1.0  0.02899  0.08346  0.35452  1.0000
  H   H147      1.0  0.98689  0.01718  0.21932  1.0000
  H   H148      1.0  0.33646  0.06723  0.32806  1.0000
  H   H149      1.0  0.95140  0.10546  0.22995  1.0000
  C   C81       1.0  0.23895  0.09089  0.39716  1.0000
  S   S20       1.0  0.13624  0.46905  0.38249  1.0000
  C   C82       1.0  0.95467  0.33514  0.32653  1.0000
  C   C83       1.0  0.22664  0.34388  0.39021  1.0000
  H   H150      1.0  0.16981  0.17449  0.24626  1.0000
  C   C84       1.0  0.12829  0.07526  0.35015  1.0000
  H   H151      1.0  0.39213  0.39495  0.30418  1.0000
  H   H152      1.0  0.96114  0.26406  0.30032  1.0000
  H   H153      1.0  0.07307  0.08080  0.15058  1.0000
  C   C85       1.0  0.02135  0.03297  0.21418  1.0000
  H   H154      1.0  0.33094  0.41619  0.37557  1.0000
  H   H155      1.0  0.08784  0.37792  0.37369  1.0000
  H   H156      1.0  0.92293  0.04670  0.34500  1.0000
  C   C86       1.0  0.93252  0.35941  0.36558  1.0000
  H   H157      1.0  0.04772  0.15545  0.27938  1.0000
  Fe  Fe10      1.0  0.08458  0.48712  0.33969  1.0000
  H   H158      1.0  0.93682  0.01387  0.29382  1.0000
  S   S21       1.0  0.01632  0.44682  0.37386  1.0000
  H   H159      1.0  0.30594  0.49638  0.35374  1.0000
  H   H160      1.0  0.92635  0.12895  0.28767  1.0000
  C   C87       1.0  0.01830  0.18558  0.34579  1.0000
  H   H161      1.0  0.31998  0.00538  0.27756  1.0000
  C   C88       1.0  0.94502  0.05050  0.30487  1.0000
  H   H162      1.0  0.11679  0.06713  0.39202  1.0000
  H   H163      1.0  0.23442  0.34531  0.34772  1.0000
  H   H164      1.0  0.02728  0.22620  0.32429  1.0000
  C   C89       1.0  0.00139  0.09407  0.33682  1.0000
  H   H165      1.0  0.28557  0.27808  0.36077  1.0000
  H   H166      1.0  0.34917  0.24848  0.33258  1.0000
  C   C90       1.0  0.12833  0.03509  0.32366  1.0000
  H   H167      1.0  0.24987  0.37222  0.39755  1.0000
  C   C91       1.0  0.14380  0.12549  0.32237  1.0000
  H   H168      1.0  0.26783  0.19218  0.36273  1.0000
  C   C92       1.0  0.90924  0.25551  0.37192  1.0000
  H   H169      1.0  0.39450  0.05809  0.30877  1.0000
  C   C93       1.0  0.35142  0.00380  0.28849  1.0000
  C   C94       1.0  0.35423  0.43334  0.39397  1.0000
  N   N5        1.0  0.28210  0.21810  0.42826  1.0000
  H   H170      1.0  0.22054  0.23984  0.57749  1.0000
  H   H171      1.0  0.22619  0.20604  0.49711  1.0000
  H   H172      1.0  0.93951  0.14794  0.54459  1.0000
  H   H173      1.0  0.28051  0.47848  0.48818  1.0000
  H   H174      1.0  0.27309  0.10152  0.58253  1.0000
  H   H175      1.0  0.35121  0.45532  0.52268  1.0000
  S   S22       1.0  0.03930  0.15953  0.47433  1.0000
  C   C95       1.0  0.28628  0.39731  0.49134  1.0000
  H   H176      1.0  0.21825  0.28945  0.46212  1.0000
  Fe  Fe11      1.0  0.06081  0.20029  0.52981  1.0000
  H   H177      1.0  0.13925  0.43162  0.48787  1.0000
  C   C96       1.0  0.26293  0.20663  0.48658  1.0000
  H   H178      1.0  0.90636  0.36170  0.57630  1.0000
  H   H179      1.0  0.97335  0.43929  0.48987  1.0000
  C   C97       1.0  0.95276  0.01027  0.53057  1.0000
  Fe  Fe12      1.0  0.04285  0.08718  0.53074  1.0000
  C   C98       1.0  0.06962  0.32477  0.50245  1.0000
  H   H180      1.0  0.31439  0.39010  0.50833  1.0000
  H   H181      1.0  0.39276  0.43181  0.47492  1.0000
  H   H182      1.0  0.26202  0.45282  0.44082  1.0000
  H   H183      1.0  0.28049  0.28324  0.49946  1.0000
  C   C99       1.0  0.93263  0.22630  0.51515  1.0000
  H   H184      1.0  0.16611  0.02265  0.54780  1.0000
  C   C100      1.0  0.91193  0.17103  0.53951  1.0000
  H   H185      1.0  0.95285  0.23943  0.53902  1.0000
  C   C101      1.0  0.06812  0.32983  0.45086  1.0000
  C   C102      1.0  0.03612  0.48376  0.54573  1.0000
  H   H186      1.0  0.90678  0.25296  0.51247  1.0000
  C   C103      1.0  0.95928  0.39993  0.51192  1.0000
  Fe  Fe13      1.0  0.12931  0.12641  0.54713  1.0000
  H   H187      1.0  0.36050  0.40104  0.42286  1.0000
  H   H188      1.0  0.24882  0.11056  0.46548  1.0000
  H   H189      1.0  0.24092  0.04986  0.41353  1.0000
  H   H190      1.0  0.10422  0.48823  0.54706  1.0000
  H   H191      1.0  0.29966  0.30064  0.41190  1.0000
  H   H192      1.0  0.24138  0.34416  0.55725  1.0000
  C   C104      1.0  0.09561  0.36132  0.51553  1.0000
  H   H193      1.0  0.96264  0.08914  0.48880  1.0000
  S   S23       1.0  0.11410  0.08024  0.49259  1.0000
  H   H194      1.0  0.07106  0.34339  0.64530  1.0000
  H   H195      1.0  0.89901  0.08109  0.45158  1.0000
  H   H196      1.0  0.27056  0.25659  0.59414  1.0000
  H   H197      1.0  0.94641  0.21884  0.64457  1.0000
  C   C105      1.0  0.26035  0.06989  0.56923  1.0000
  H   H198      1.0  0.04842  0.30142  0.44037  1.0000
  H   H199      1.0  0.33216  0.08883  0.62631  1.0000
  C   C106      1.0  0.28953  0.45319  0.45985  1.0000
  H   H200      1.0  0.21396  0.38869  0.52015  1.0000
  H   H201      1.0  0.95104  0.37736  0.48471  1.0000
  H   H202      1.0  0.09678  0.35754  0.55520  1.0000
  C   C107      1.0  0.90266  0.09272  0.63604  1.0000
  H   H203      1.0  0.02202  0.48814  0.58620  1.0000
  S   S24       1.0  0.03842  0.27355  0.55093  1.0000
  H   H204      1.0  0.25605  0.19096  0.59245  1.0000
  H   H205      1.0  0.32295  0.03863  0.55100  1.0000
  H   H206      1.0  0.95450  0.22839  0.47537  1.0000
  H   H207      1.0  0.14683  0.38386  0.61663  1.0000
  H   H208      1.0  0.92895  0.12335  0.63382  1.0000
  C   C108      1.0  0.25557  0.23171  0.57348  1.0000
  H   H209      1.0  0.92859  0.42279  0.58315  1.0000
  S   S25       1.0  0.18272  0.11330  0.58749  1.0000
  H   H210      1.0  0.26927  0.16740  0.50390  1.0000
  H   H211      1.0  0.22174  0.18491  0.41769  1.0000
  C   C109      1.0  0.28182  0.24235  0.51611  1.0000
  H   H212      1.0  0.33706  0.17482  0.44003  1.0000
  C   C110      1.0  0.24337  0.38447  0.53567  1.0000
  N   N6        1.0  0.33294  0.47485  0.41976  1.0000
  C   C111      1.0  0.20008  0.02591  0.54908  1.0000
  H   H213      1.0  0.98481  0.38076  0.52828  1.0000
  C   C112      1.0  0.90679  0.04817  0.47675  1.0000
  C   C113      1.0  0.09036  0.37319  0.41319  1.0000
  H   H214      1.0  0.03612  0.44206  0.54594  1.0000
  S   S26       1.0  0.99660  0.01464  0.55870  1.0000
  C   C114      1.0  0.91811  0.40206  0.55592  1.0000
  C   C115      1.0  0.14080  0.34211  0.63451  1.0000
  H   H215      1.0  0.28592  0.37017  0.46533  1.0000
  C   C116      1.0  0.33100  0.21154  0.41631  1.0000
  C   C117      1.0  0.28866  0.03448  0.55095  1.0000
  C   C118      1.0  0.11940  0.40343  0.47744  1.0000
  H   H216      1.0  0.24238  0.41000  0.56369  1.0000
  S   S27       1.0  0.05833  0.12836  0.58939  1.0000
  H   H217      1.0  0.33036  0.18184  0.61071  1.0000
  H   H218      1.0  0.26592  0.49723  0.63000  1.0000
  C   C119      1.0  0.21622  0.06610  0.56776  1.0000
  H   H219      1.0  0.89704  0.15690  0.51126  1.0000
  C   C120      1.0  0.89850  0.33191  0.40751  1.0000
  H   H220      1.0  0.97703  0.01110  0.41165  1.0000
  H   H221      1.0  0.20339  0.09778  0.40525  1.0000
  Fe  Fe14      1.0  0.11196  0.15538  0.44028  1.0000
  C   C121      1.0  0.36374  0.50095  0.44348  1.0000
  H   H222      1.0  0.31682  0.23583  0.51440  1.0000
  H   H223      1.0  0.34883  0.24206  0.42837  1.0000
  H   H224      1.0  0.39297  0.25927  0.52448  1.0000
  H   H225      1.0  0.29860  0.11582  0.41363  1.0000
  C   C122      1.0  0.26339  0.12384  0.42314  1.0000
  H   H226      1.0  0.14662  0.32020  0.60298  1.0000
  C   C123      1.0  0.22901  0.28957  0.41990  1.0000
  H   H227      1.0  0.37526  0.16467  0.63806  1.0000
  C   C124      1.0  0.37927  0.46666  0.48691  1.0000
  C   C125      1.0  0.11502  0.41071  0.42682  1.0000
  S   S28       1.0  0.13293  0.20132  0.49197  1.0000
  C   C126      1.0  0.94268  0.05283  0.49798  1.0000
  C   C127      1.0  0.33855  0.16198  0.64640  1.0000
  H   H228      1.0  0.91703  0.07272  0.60413  1.0000
  C   C128      1.0  0.25802  0.18165  0.40606  1.0000
  S   S29       1.0  0.39074  0.06306  0.42498  1.0000
  C   C129      1.0  0.27643  0.27253  0.40390  1.0000
  H   H229      1.0  0.19248  0.35498  0.40317  1.0000
  H   H230      1.0  0.20483  0.26390  0.41070  1.0000
  H   H231      1.0  0.01495  0.50089  0.52122  1.0000
  H   H232      1.0  0.02498  0.86667  0.84643  1.0000
  Fe  Fe15      1.0  0.15168  0.55067  0.70255  1.0000
  C   C130      1.0  0.11325  0.72989  0.86294  1.0000
  C   C131      1.0  0.07549  0.75501  0.86078  1.0000
  S   S30       1.0  0.04691  0.72029  0.73418  1.0000
  H   H233      1.0  0.32946  0.95056  0.77333  1.0000
  H   H234      1.0  0.03569  0.82565  0.73496  1.0000
  S   S31       1.0  0.25501  0.68066  0.87313  1.0000
  C   C132      1.0  0.98120  0.95261  0.86351  1.0000
  H   H235      1.0  0.05907  0.57296  0.84550  1.0000
  H   H236      1.0  0.89887  0.86592  0.68140  1.0000
  H   H237      1.0  0.07109  0.97207  0.68769  1.0000
  S   S32       1.0  0.94908  0.71048  0.85770  1.0000
  H   H238      1.0  0.93758  0.00224  0.72530  1.0000
  H   H239      1.0  0.25037  0.93409  0.74229  1.0000
  C   C133      1.0  0.95558  0.54385  0.65507  1.0000
  C   C134      1.0  0.99028  0.57370  0.88513  1.0000
  C   C135      1.0  0.10600  0.97729  0.66374  1.0000
  H   H240      1.0  0.24228  0.67628  0.78042  1.0000
  C   C136      1.0  0.03435  0.86751  0.72297  1.0000
  H   H241      1.0  0.31491  0.60421  0.67431  1.0000
  C   C137      1.0  0.12550  0.92539  0.65866  1.0000
  H   H242      1.0  0.12763  0.68320  0.75230  1.0000
  C   C138      1.0  0.07449  0.72713  0.78137  1.0000
  C   C139      1.0  0.21733  0.65078  0.72258  1.0000
  H   H243      1.0  0.05485  0.88752  0.74225  1.0000
  C   C140      1.0  0.34099  0.57893  0.66078  1.0000
  H   H244      1.0  0.36801  0.67152  0.67673  1.0000
  C   C141      1.0  0.05642  0.75415  0.81984  1.0000
  C   C142      1.0  0.13312  0.70554  0.82286  1.0000
  C   C143      1.0  0.92098  0.00020  0.83311  1.0000
  S   S33       1.0  0.24263  0.80113  0.82727  1.0000
  H   H245      1.0  0.98192  0.93923  0.82699  1.0000
  S   S34       1.0  0.28868  0.90426  0.88641  1.0000
  C   C144      1.0  0.11480  0.83430  0.65706  1.0000
  H   H246      1.0  0.10987  0.82481  0.69997  1.0000
  S   S35       1.0  0.32221  0.74342  0.72515  1.0000
  H   H247      1.0  0.38684  0.94114  0.82543  1.0000
  H   H248      1.0  0.26019  0.97998  0.79962  1.0000
  C   C145      1.0  0.17763  0.77701  0.65722  1.0000
  C   C146      1.0  0.11361  0.89687  0.82987  1.0000
  H   H249      1.0  0.18894  0.62771  0.75059  1.0000
  H   H250      1.0  0.25234  0.87918  0.67834  1.0000
  S   S36       1.0  0.08088  0.53380  0.75073  1.0000
  C   C147      1.0  0.03153  0.88690  0.87637  1.0000
  H   H251      1.0  0.14315  0.92483  0.80990  1.0000
  C   C148      1.0  0.03134  0.55343  0.87725  1.0000
  Fe  Fe16      1.0  0.90632  0.63822  0.86642  1.0000
  Fe  Fe17      1.0  0.97418  0.70507  0.77433  1.0000
  C   C149      1.0  0.38920  0.61404  0.72957  1.0000
  H   H252      1.0  0.08116  0.94810  0.87669  1.0000
  H   H253      1.0  0.93400  0.61871  0.65786  1.0000
  H   H254      1.0  0.98685  0.60852  0.85919  1.0000
  H   H255      1.0  0.10743  0.87400  0.80192  1.0000
  H   H256      1.0  0.25357  0.55047  0.66150  1.0000
  H   H257      1.0  0.96501  0.86004  0.72328  1.0000
  S   S37       1.0  0.92345  0.75218  0.74937  1.0000
  C   C150      1.0  0.28006  0.93894  0.70849  1.0000
  H   H258      1.0  0.26364  0.51386  0.82316  1.0000
  H   H259      1.0  0.30451  0.91326  0.71946  1.0000
  H   H260      1.0  0.12112  0.87048  0.86285  1.0000
  H   H261      1.0  0.35391  0.60132  0.75097  1.0000
  H   H262      1.0  0.16239  0.68608  0.82441  1.0000
  H   H263      1.0  0.97405  0.86193  0.78542  1.0000
  C   C151      1.0  0.28389  0.70932  0.70367  1.0000
  H   H264      1.0  0.09394  0.80376  0.64872  1.0000
  H   H265      1.0  0.12979  0.90803  0.69756  1.0000
  H   H266      1.0  0.37300  0.98595  0.72039  1.0000
  Fe  Fe18      1.0  0.29310  0.74603  0.80904  1.0000
  C   C152      1.0  0.07340  0.92538  0.84943  1.0000
  C   C153      1.0  0.29005  0.71189  0.65043  1.0000
  C   C154      1.0  0.05083  0.88387  0.66286  1.0000
  H   H267      1.0  0.93664  0.52887  0.69640  1.0000
  S   S38       1.0  0.93439  0.63005  0.78384  1.0000
  S   S39       1.0  0.18047  0.50950  0.76449  1.0000
  C   C155      1.0  0.24757  0.67853  0.73955  1.0000
  H   H268      1.0  0.91158  0.96853  0.81556  1.0000
  C   C156      1.0  0.34435  0.99028  0.75300  1.0000
  H   H269      1.0  0.02742  0.77396  0.81847  1.0000
  C   C157      1.0  0.93758  0.97817  0.87999  1.0000
  C   C158      1.0  0.11354  0.70396  0.78214  1.0000
  H   H270      1.0  0.17675  0.77703  0.69827  1.0000
  H   H271      1.0  0.12750  0.98852  0.73139  1.0000
  C   C159      1.0  0.22283  0.65476  0.66942  1.0000
  S   S40       1.0  0.33462  0.77209  0.85684  1.0000
  C   C160      1.0  0.98628  0.87831  0.74299  1.0000
  H   H272      1.0  0.06074  0.77447  0.89132  1.0000
  H   H273      1.0  0.06867  0.95217  0.81500  1.0000
  H   H274      1.0  0.94596  0.85839  0.88152  1.0000
  C   C161      1.0  0.27717  0.52115  0.65429  1.0000
  C   C162      1.0  0.39277  0.64307  0.67321  1.0000
  H   H275      1.0  0.00810  0.98471  0.85234  1.0000
  H   H276      1.0  0.34230  0.55067  0.69622  1.0000
  H   H277      1.0  0.98349  0.92036  0.73588  1.0000
  C   C163      1.0  0.26569  0.92033  0.66496  1.0000
  Fe  Fe19      1.0  0.28056  0.82193  0.88062  1.0000
  H   H278      1.0  0.94085  0.99875  0.65972  1.0000
  H   H279      1.0  0.89701  0.90680  0.72741  1.0000
  Fe  Fe20      1.0  0.20750  0.73810  0.89462  1.0000
  H   H280      1.0  0.99064  0.55377  0.65390  1.0000
  H   H281      1.0  0.38982  0.68339  0.76110  1.0000
  H   H282      1.0  0.33142  0.99717  0.65809  1.0000
  C   C164      1.0  0.30070  0.99579  0.69028  1.0000
  H   H283      1.0  0.18253  0.99407  0.83056  1.0000
  H   H284      1.0  0.30228  0.53885  0.88104  1.0000
  H   H285      1.0  0.03807  0.92125  0.65085  1.0000
  H   H286      1.0  0.23945  0.94300  0.65394  1.0000
  H   H287      1.0  0.15549  0.74370  0.65630  1.0000
  H   H288      1.0  0.99625  0.76666  0.65486  1.0000
  H   H289      1.0  0.25734  0.99906  0.90994  1.0000
  H   H290      1.0  0.22726  0.54877  0.93314  1.0000
  N   N7        1.0  0.20014  0.53714  0.01695  1.0000
  H   H291      1.0  0.10282  0.80631  0.08049  1.0000
  H   H292      1.0  0.24512  0.52299  0.06562  1.0000
  C   C165      1.0  0.37861  0.86106  0.09395  1.0000
  H   H293      1.0  0.34647  0.53059  0.91202  1.0000
  H   H294      1.0  0.01810  0.96513  0.93593  1.0000
  H   H295      1.0  0.13359  0.55832  0.04687  1.0000
  H   H296      1.0  0.32310  0.59111  0.90442  1.0000
  H   H297      1.0  0.24564  0.59749  0.96109  1.0000
  C   C166      1.0  0.38207  0.61741  0.01504  1.0000
  H   H298      1.0  0.96253  0.67805  0.03694  1.0000
  C   C167      1.0  0.23853  0.92915  0.06109  1.0000
  C   C168      1.0  0.91680  0.77827  0.96864  1.0000
  H   H299      1.0  0.19834  0.98927  0.13230  1.0000
  H   H300      1.0  0.04034  0.54741  0.09250  1.0000
  H   H301      1.0  0.35061  0.85056  0.96699  1.0000
  H   H302      1.0  0.01802  0.64738  0.93830  1.0000
  S   S41       1.0  0.09574  0.96214  0.97935  1.0000
  C   C169      1.0  0.95415  0.54894  0.92605  1.0000
  C   C170      1.0  0.03661  0.50852  0.91050  1.0000
  C   C171      1.0  0.19839  0.88472  0.92382  1.0000
  H   H303      1.0  0.30633  0.68857  0.11799  1.0000
  H   H304      1.0  0.17026  0.98542  0.05119  1.0000
  H   H305      1.0  0.15171  0.74201  0.05214  1.0000
  C   C172      1.0  0.02558  0.84249  0.12730  1.0000
  H   H306      1.0  0.09285  0.59727  0.93144  1.0000
  H   H307      1.0  0.01516  0.61294  0.05204  1.0000
  C   C173      1.0  0.95671  0.93203  0.99322  1.0000
  H   H308      1.0  0.23068  0.58734  0.05443  1.0000
  H   H309      1.0  0.98496  0.79570  0.92573  1.0000
  C   C174      1.0  0.19019  0.84466  0.09158  1.0000
  C   C175      1.0  0.14731  0.57290  0.96259  1.0000
  C   C176      1.0  0.36912  0.81805  0.95583  1.0000
  C   C177      1.0  0.11535  0.73509  0.05841  1.0000
  C   C178      1.0  0.94285  0.60317  0.13053  1.0000
  H   H310      1.0  0.39228  0.83179  0.91641  1.0000
  C   C179      1.0  0.95242  0.86678  0.91743  1.0000
  C   C180      1.0  0.32543  0.68766  0.14718  1.0000
  H   H311      1.0  0.34439  0.85245  0.11992  1.0000
  H   H312      1.0  0.12769  0.86869  0.95554  1.0000
  C   C181      1.0  0.23757  0.55524  0.96775  1.0000
  N   N8        1.0  0.25528  0.97890  0.07142  1.0000
  C   C182      1.0  0.16290  0.57035  0.01268  1.0000
  H   H313      1.0  0.38792  0.71164  0.90907  1.0000
  H   H314      1.0  0.17308  0.61077  0.01366  1.0000
  H   H315      1.0  0.91580  0.55632  0.03453  1.0000
  H   H316      1.0  0.30302  0.93653  0.10334  1.0000
  H   H317      1.0  0.14788  0.53539  0.95059  1.0000
  C   C183      1.0  0.01249  0.52625  0.12506  1.0000
  H   H318      1.0  0.99611  0.70793  0.94210  1.0000
  H   H319      1.0  0.17259  0.91346  0.11821  1.0000
  C   C184      1.0  0.95329  0.79570  0.09347  1.0000
  H   H320      1.0  0.03693  0.68828  0.97585  1.0000
  H   H321      1.0  0.26642  0.90541  0.05044  1.0000
  H   H322      1.0  0.97061  0.82122  0.98365  1.0000
  C   C185      1.0  0.95946  0.81495  0.94982  1.0000
  S   S42       1.0  0.90237  0.57378  0.93495  1.0000
  H   H323      1.0  0.01852  0.90097  0.96818  1.0000
  C   C186      1.0  0.18405  0.53292  0.11673  1.0000
  H   H324      1.0  0.38639  0.94248  0.09404  1.0000
  C   C187      1.0  0.23520  0.92104  0.91152  1.0000
  H   H325      1.0  0.93833  0.89382  0.01241  1.0000
  H   H326      1.0  0.03499  0.76825  0.06801  1.0000
  S   S43       1.0  0.13356  0.72755  0.91741  1.0000
  H   H327      1.0  0.04144  0.85733  0.90516  1.0000
  H   H328      1.0  0.20226  0.84686  0.91620  1.0000
  H   H329      1.0  0.34877  0.73593  0.04371  1.0000
  C   C188      1.0  0.97018  0.95482  0.03504  1.0000
  C   C189      1.0  0.31524  0.54873  0.91245  1.0000
  N   N9        1.0  0.99009  0.90880  0.90280  1.0000
  S   S44       1.0  0.31103  0.65522  0.98594  1.0000
  H   H330      1.0  0.16981  0.60175  0.93005  1.0000
  H   H331      1.0  0.90837  0.76669  0.93510  1.0000
  H   H332      1.0  0.98555  0.99499  0.01856  1.0000
  H   H333      1.0  0.92104  0.87860  0.93939  1.0000
  H   H334      1.0  0.33428  0.79598  0.05726  1.0000
  C   C190      1.0  0.22909  0.97066  0.91976  1.0000
  Fe  Fe21      1.0  0.29284  0.71042  0.92266  1.0000
  H   H335      1.0  0.10522  0.69319  0.07251  1.0000
  C   C191      1.0  0.99802  0.92714  0.94910  1.0000
  H   H336      1.0  0.92900  0.63913  0.11635  1.0000
  H   H337      1.0  0.31537  0.95216  0.98050  1.0000
  C   C192      1.0  0.36777  0.65225  0.97857  1.0000
  H   H338      1.0  0.35807  0.59160  0.04674  1.0000
  H   H339      1.0  0.09733  0.62451  0.98572  1.0000
  N   N10       1.0  0.01278  0.78489  0.14461  1.0000
  C   C193      1.0  0.28150  0.52986  0.96557  1.0000
  C   C194      1.0  0.18632  0.98351  0.94089  1.0000
  H   H340      1.0  0.09420  0.93896  0.14717  1.0000
  C   C195      1.0  0.15584  0.89729  0.94575  1.0000
  S   S45       1.0  0.24203  0.76236  0.94965  1.0000
  C   C196      1.0  0.20309  0.89417  0.10689  1.0000
  H   H341      1.0  0.94101  0.64053  0.99879  1.0000
  C   C197      1.0  0.10042  0.58913  0.96973  1.0000
  C   C198      1.0  0.00774  0.67459  0.96435  1.0000
  H   H342      1.0  0.34522  0.78664  0.95469  1.0000
  H   H343      1.0  0.07600  0.55769  0.99621  1.0000
  H   H344      1.0  0.92119  0.74319  0.99562  1.0000
  H   H345      1.0  0.03784  0.85395  0.08402  1.0000
  H   H346      1.0  0.17190  0.65772  0.10987  1.0000
  H   H347      1.0  0.29747  0.54019  0.99460  1.0000
  C   C199      1.0  0.14963  0.94688  0.95380  1.0000
  C   C200      1.0  0.97039  0.64929  0.01232  1.0000
  H   H348      1.0  0.22508  0.93652  0.02663  1.0000
  H   H349      1.0  0.10807  0.74807  0.02045  1.0000
  H   H350      1.0  0.99532  0.57491  0.01387  1.0000
  C   C201      1.0  0.98476  0.60015  0.04220  1.0000
  H   H351      1.0  0.17632  0.85343  0.05758  1.0000
  C   C202      1.0  0.21719  0.54625  0.06190  1.0000
  H   H352      1.0  0.99416  0.93178  0.05078  1.0000
  C   C203      1.0  0.36307  0.77300  0.04867  1.0000
  H   H353      1.0  0.03038  0.71437  0.11943  1.0000
  H   H354      1.0  0.96562  0.77133  0.06508  1.0000
  C   C204      1.0  0.32561  0.98609  0.99439  1.0000
  H   H355      1.0  0.21941  0.82273  0.08177  1.0000
  H   H356      1.0  0.35004  0.65928  0.14122  1.0000
  C   C205      1.0  0.09117  0.76524  0.09773  1.0000
  C   C206      1.0  0.90817  0.55949  0.07583  1.0000
  N   N11       1.0  0.95062  0.57042  0.09032  1.0000
  H   H357      1.0  0.09711  0.92479  0.08440  1.0000
  C   C207      1.0  0.28048  0.96669  0.11184  1.0000
  C   C208      1.0  0.04054  0.75646  0.10714  1.0000
  C   C209      1.0  0.39506  0.79849  0.99474  1.0000
  C   C210      1.0  0.34785  0.74211  0.14297  1.0000
  N   N12       1.0  0.38377  0.76403  0.09334  1.0000
  C   C211      1.0  0.96919  0.52086  0.10824  1.0000
  H   H358      1.0  0.96767  0.83586  0.07585  1.0000
  C   C212      1.0  0.90326  0.79466  0.10226  1.0000
  H   H359      1.0  0.16490  0.82010  0.12484  1.0000
  H   H360      1.0  0.93365  0.95721  0.97881  1.0000
  H   H361      1.0  0.10072  0.75330  0.13438  1.0000
  H   H362      1.0  0.22111  0.72428  0.12698  1.0000
  H   H363      1.0  0.90966  0.95199  0.90733  1.0000
  C   C213      1.0  0.07523  0.92196  0.12420  1.0000
  H   H364      1.0  0.21585  0.88336  0.14147  1.0000
  H   H365      1.0  0.04634  0.94406  0.12214  1.0000
  H   H366      1.0  0.94043  0.95527  0.06765  1.0000
  H   H367      1.0  0.99597  0.86389  0.13841  1.0000
  H   H368      1.0  0.34619  0.97368  0.02118  1.0000
  H   H369      1.0  0.09003  0.84472  0.14721  1.0000
  H   H370      1.0  0.37627  0.87341  0.05351  1.0000
  C   C214      1.0  0.16191  0.67186  0.14539  1.0000
  C   C215      1.0  0.96498  0.77449  0.14510  1.0000
  H   H371      1.0  0.97474  0.61626  0.13705  1.0000
  H   H372      1.0  0.15404  0.55334  0.11790  1.0000
  C   C216      1.0  0.95966  0.50453  0.96017  1.0000
  H   H373      1.0  0.21741  0.58959  0.14629  1.0000
  C   C217      1.0  0.98896  0.86574  0.29289  1.0000
  Fe  Fe22      1.0  0.99133  0.52369  0.35616  1.0000
  S   S46       1.0  0.14231  0.99569  0.23548  1.0000
  H   H374      1.0  0.11695  0.99639  0.34542  1.0000
  H   H375      1.0  0.23302  0.52507  0.16125  1.0000
  H   H376      1.0  0.38417  0.95335  0.33465  1.0000
  C   C218      1.0  0.17339  0.63473  0.34679  1.0000
  H   H377      1.0  0.02024  0.88493  0.29211  1.0000
  H   H378      1.0  0.21132  0.77000  0.38164  1.0000
  C   C219      1.0  0.34913  0.96064  0.33710  1.0000
  S   S47       1.0  0.98723  0.51606  0.27676  1.0000
  Fe  Fe23      1.0  0.37301  0.69581  0.38279  1.0000
  H   H379      1.0  0.34125  0.84369  0.21008  1.0000
  H   H380      1.0  0.05012  0.66853  0.38516  1.0000
  C   C220      1.0  0.20427  0.96071  0.38843  1.0000
  H   H381      1.0  0.91531  0.76272  0.36171  1.0000
  C   C221      1.0  0.29363  0.55711  0.39682  1.0000
  C   C222      1.0  0.28505  0.59395  0.35073  1.0000
  H   H382      1.0  0.04526  0.86449  0.19225  1.0000
  S   S48       1.0  0.90233  0.87923  0.20531  1.0000
  H   H383      1.0  0.99255  0.67473  0.38784  1.0000
  H   H384      1.0  0.37687  0.99673  0.25441  1.0000
  H   H385      1.0  0.91902  0.54037  0.19987  1.0000
  H   H386      1.0  0.96496  0.69983  0.22641  1.0000
  S   S49       1.0  0.20871  0.77704  0.21252  1.0000
  S   S50       1.0  0.10804  0.85245  0.25652  1.0000
  H   H387      1.0  0.19466  0.66794  0.31858  1.0000
  Fe  Fe24      1.0  0.13546  0.91655  0.28506  1.0000
  H   H388      1.0  0.19119  0.99796  0.37723  1.0000
  C   C223      1.0  0.18970  0.70940  0.15507  1.0000
  H   H389      1.0  0.05074  0.77186  0.20161  1.0000
  H   H390      1.0  0.30379  0.92510  0.26983  1.0000
  H   H391      1.0  0.31673  0.61242  0.32295  1.0000
  H   H392      1.0  0.99658  0.78988  0.22528  1.0000
  C   C224      1.0  0.27381  0.91355  0.37338  1.0000
  S   S51       1.0  0.09535  0.88806  0.36773  1.0000
  C   C225      1.0  0.97069  0.82098  0.33056  1.0000
  H   H393      1.0  0.97167  0.71264  0.30663  1.0000
  H   H394      1.0  0.32919  0.81584  0.30292  1.0000
  H   H395      1.0  0.99879  0.65593  0.29711  1.0000
  H   H396      1.0  0.99483  0.90458  0.38892  1.0000
  H   H397      1.0  0.29281  0.99442  0.20309  1.0000
  H   H398      1.0  0.90261  0.65171  0.20736  1.0000
  H   H399      1.0  0.27672  0.62926  0.20259  1.0000
  H   H400      1.0  0.33799  0.97667  0.37276  1.0000
  C   C226      1.0  0.12142  0.65252  0.18203  1.0000
  N   N13       1.0  0.32104  0.91093  0.34309  1.0000
  H   H401      1.0  0.98167  0.91891  0.22541  1.0000
  S   S52       1.0  0.19452  0.87727  0.29733  1.0000
  C   C227      1.0  0.33989  0.86758  0.37285  1.0000
  C   C228      1.0  0.90846  0.81586  0.29445  1.0000
  H   H402      1.0  0.31123  0.66322  0.23149  1.0000
  H   H403      1.0  0.26625  0.57318  0.33009  1.0000
  H   H404      1.0  0.92909  0.60718  0.32748  1.0000
  H   H405      1.0  0.29359  0.79743  0.23740  1.0000
  S   S53       1.0  0.05988  0.56483  0.32772  1.0000
  H   H406      1.0  0.00751  0.54647  0.15774  1.0000
  Fe  Fe25      1.0  0.05783  0.55145  0.24906  1.0000
  C   C229      1.0  0.29320  0.66751  0.20103  1.0000
  C   C230      1.0  0.30684  0.83732  0.23549  1.0000
  H   H407      1.0  0.36071  0.74096  0.17762  1.0000
  H   H408      1.0  0.26729  0.69402  0.20947  1.0000
  H   H409      1.0  0.07786  0.65595  0.25579  1.0000
  H   H410      1.0  0.24911  0.96298  0.31356  1.0000
  H   H411      1.0  0.26963  0.99675  0.35548  1.0000
  C   C231      1.0  0.90918  0.61205  0.22299  1.0000
  H   H412      1.0  0.94129  0.61281  0.23294  1.0000
  S   S54       1.0  0.08574  0.60584  0.17166  1.0000
  C   C232      1.0  0.90994  0.57844  0.18352  1.0000
  H   H413      1.0  0.28589  0.86446  0.21871  1.0000
  C   C233      1.0  0.92972  0.79714  0.33240  1.0000
  H   H414      1.0  0.95482  0.73256  0.15369  1.0000
  C   C234      1.0  0.10883  0.67080  0.22771  1.0000
  C   C235      1.0  0.92745  0.85916  0.25524  1.0000
  C   C236      1.0  0.90081  0.60938  0.35920  1.0000
  H   H415      1.0  0.14121  0.63147  0.33721  1.0000
  H   H416      1.0  0.27292  0.83184  0.31589  1.0000
  C   C237      1.0  0.99975  0.70937  0.22557  1.0000
  C   C238      1.0  0.96710  0.88509  0.25535  1.0000
  C   C239      1.0  0.97592  0.98256  0.38739  1.0000
  C   C240      1.0  0.25115  0.96106  0.35390  1.0000
  H   H417      1.0  0.35816  0.90633  0.26551  1.0000
  H   H418      1.0  0.32080  0.76790  0.14813  1.0000
  H   H419      1.0  0.02106  0.68357  0.20497  1.0000
  Fe  Fe26      1.0  0.16474  0.81131  0.27379  1.0000
  H   H420      1.0  0.31816  0.83099  0.38182  1.0000
  H   H421      1.0  0.12489  0.72364  0.27179  1.0000
  H   H422      1.0  0.26577  0.62472  0.36460  1.0000
  H   H423      1.0  0.37281  0.86107  0.34837  1.0000
  H   H424      1.0  0.27190  0.71340  0.38287  1.0000
  C   C241      1.0  0.00062  0.69806  0.28248  1.0000
  H   H425      1.0  0.17985  0.54110  0.19569  1.0000
  C   C242      1.0  0.17618  0.72833  0.20066  1.0000
  H   H426      1.0  0.94084  0.97237  0.38885  1.0000
  C   C243      1.0  0.01604  0.76636  0.19950  1.0000
  H   H427      1.0  0.35387  0.53632  0.35067  1.0000
  C   C244      1.0  0.32322  0.89925  0.29035  1.0000
  S   S55       1.0  0.00017  0.79203  0.37279  1.0000
  C   C245      1.0  0.13561  0.70923  0.23667  1.0000
  S   S56       1.0  0.36574  0.71452  0.30183  1.0000
  C   C246      1.0  0.20501  0.54815  0.15728  1.0000
  H   H428      1.0  0.18974  0.59916  0.34224  1.0000
  H   H429      1.0  0.94311  0.79001  0.17677  1.0000
  H   H430      1.0  0.03129  0.71631  0.28748  1.0000
  C   C247      1.0  0.30681  0.84342  0.29000  1.0000
  H   H431      1.0  0.99885  0.97408  0.30826  1.0000
  H   H432      1.0  0.25268  0.87855  0.37506  1.0000
  Fe  Fe27      1.0  0.07181  0.82124  0.34036  1.0000
  S   S57       1.0  0.12573  0.77345  0.35537  1.0000
  C   C248      1.0  0.32278  0.51508  0.37792  1.0000
  Fe  Fe28      1.0  0.15167  0.84244  0.37791  1.0000
  H   H433      1.0  0.04118  0.00024  0.22204  1.0000
  H   H434      1.0  0.18181  0.92995  0.38376  1.0000
  H   H435      1.0  0.34004  0.96478  0.17113  1.0000
  C   C249      1.0  0.32256  0.00007  0.16915  1.0000
  C   C250      1.0  0.06023  0.86580  0.15043  1.0000
  S   S58       1.0  0.39172  0.59418  0.24441  1.0000
  H   H436      1.0  0.25702  0.94956  0.15056  1.0000
  C   C251      1.0  0.11760  0.71529  0.56805  1.0000
  H   H437      1.0  0.22433  0.81002  0.52280  1.0000
  H   H438      1.0  0.10764  0.59105  0.43186  1.0000
  H   H439      1.0  0.03098  0.76941  0.59060  1.0000
  S   S59       1.0  0.30789  0.95001  0.50955  1.0000
  C   C252      1.0  0.01544  0.65672  0.40934  1.0000
  H   H440      1.0  0.02229  0.71439  0.45266  1.0000
  C   C253      1.0  0.97507  0.71078  0.55673  1.0000
  C   C254      1.0  0.34519  0.87375  0.42633  1.0000
  H   H441      1.0  0.28417  0.75341  0.52425  1.0000
  C   C255      1.0  0.38209  0.64506  0.58558  1.0000
  H   H442      1.0  0.37337  0.73358  0.51619  1.0000
  C   C256      1.0  0.32380  0.54707  0.62636  1.0000
  H   H443      1.0  0.31246  0.86591  0.45583  1.0000
  H   H444      1.0  0.38914  0.62396  0.55328  1.0000
  C   C257      1.0  0.92705  0.96314  0.54190  1.0000
  H   H445      1.0  0.93473  0.93024  0.56721  1.0000
  C   C258      1.0  0.08555  0.56670  0.52834  1.0000
  C   C259      1.0  0.11115  0.89782  0.58096  1.0000
  H   H446      1.0  0.97965  0.79949  0.59935  1.0000
  H   H447      1.0  0.22492  0.62022  0.47124  1.0000
  C   C260      1.0  0.12432  0.65308  0.50675  1.0000
  H   H448      1.0  0.07052  0.65099  0.57730  1.0000
  H   H449      1.0  0.34754  0.65538  0.58914  1.0000
  H   H450      1.0  0.26079  0.54026  0.42320  1.0000
  C   C261      1.0  0.97100  0.71564  0.61342  1.0000
  Fe  Fe29      1.0  0.37726  0.98795  0.48248  1.0000
  H   H451      1.0  0.35955  0.91265  0.42488  1.0000
  H   H452      1.0  0.15990  0.93520  0.63284  1.0000
  H   H453      1.0  0.98642  0.68388  0.63316  1.0000
  H   H454      1.0  0.15619  0.67773  0.48826  1.0000
  H   H455      1.0  0.17220  0.53818  0.51152  1.0000
  H   H456      1.0  0.36995  0.87252  0.56597  1.0000
  H   H457      1.0  0.20424  0.95497  0.42992  1.0000
  H   H458      1.0  0.99775  0.61923  0.57373  1.0000
  C   C262      1.0  0.96212  0.61490  0.57482  1.0000
  C   C263      1.0  0.22814  0.98952  0.53213  1.0000
  H   H459      1.0  0.22428  0.55940  0.57942  1.0000
  H   H460      1.0  0.15094  0.56351  0.56722  1.0000
  C   C264      1.0  0.99323  0.93440  0.41253  1.0000
  H   H461      1.0  0.12163  0.63425  0.59031  1.0000
  H   H462      1.0  0.02741  0.65026  0.48396  1.0000
  C   C265      1.0  0.22686  0.76600  0.41305  1.0000
  C   C266      1.0  0.08357  0.93590  0.55482  1.0000
  H   H463      1.0  0.32232  0.57138  0.58896  1.0000
  H   H464      1.0  0.34785  0.53218  0.46101  1.0000
  C   C267      1.0  0.26757  0.75583  0.49386  1.0000
  H   H465      1.0  0.19876  0.65160  0.40849  1.0000
  C   C268      1.0  0.10707  0.66011  0.56356  1.0000
  H   H466      1.0  0.26917  0.60443  0.53760  1.0000
  C   C269      1.0  0.24063  0.57805  0.53826  1.0000
  H   H467      1.0  0.16867  0.82708  0.58971  1.0000
  C   C270      1.0  0.13911  0.59605  0.44306  1.0000
  H   H468      1.0  0.94270  0.63333  0.48345  1.0000
  H   H469      1.0  0.29435  0.92401  0.63003  1.0000
  H   H470      1.0  0.02653  0.94430  0.41700  1.0000
  H   H471      1.0  0.35155  0.85721  0.63604  1.0000
  H   H472      1.0  0.97080  0.91836  0.45189  1.0000
  H   H473      1.0  0.04873  0.91881  0.56412  1.0000
  H   H474      1.0  0.10626  0.86167  0.56722  1.0000
  C   C271      1.0  0.37507  0.84796  0.60153  1.0000
  C   C272      1.0  0.10165  0.94784  0.49558  1.0000
  H   H475      1.0  0.90310  0.85511  0.46999  1.0000
  H   H476      1.0  0.14683  0.91159  0.56324  1.0000
  C   C273      1.0  0.16392  0.82753  0.63142  1.0000
  H   H477      1.0  0.31019  0.58044  0.41742  1.0000
  C   C274      1.0  0.89669  0.57952  0.40879  1.0000
  H   H478      1.0  0.15641  0.56153  0.43550  1.0000
  S   S60       1.0  0.17045  0.83298  0.45290  1.0000
  H   H479      1.0  0.90080  0.57810  0.63431  1.0000
  H   H480      1.0  0.37555  0.83802  0.48547  1.0000
  H   H481      1.0  0.13529  0.96869  0.48382  1.0000
  H   H482      1.0  0.10309  0.91193  0.48044  1.0000
  H   H483      1.0  0.00918  0.61431  0.41627  1.0000
  C   C275      1.0  0.23380  0.78814  0.49290  1.0000
  C   C276      1.0  0.37534  0.83570  0.44528  1.0000
  C   C277      1.0  0.16414  0.57483  0.52405  1.0000
  H   H484      1.0  0.27200  0.91413  0.41460  1.0000
  H   H485      1.0  0.20329  0.64290  0.53023  1.0000
  N   N14       1.0  0.94878  0.66531  0.54925  1.0000
  C   C278      1.0  0.99596  0.76596  0.61436  1.0000
  H   H486      1.0  0.10526  0.74310  0.54018  1.0000
  H   H487      1.0  0.39366  0.52052  0.41265  1.0000
  N   N15       1.0  0.10024  0.88670  0.63988  1.0000
  S   S61       1.0  0.93710  0.53956  0.42203  1.0000
  C   C279      1.0  0.20852  0.60820  0.51332  1.0000
  H   H488      1.0  0.94385  0.70132  0.47225  1.0000
  H   H489      1.0  0.95939  0.58456  0.55244  1.0000
  S   S62       1.0  0.32152  0.68604  0.45838  1.0000
  C   C280      1.0  0.26121  0.73410  0.41364  1.0000
  H   H490      1.0  0.10084  0.67043  0.48556  1.0000
  H   H491      1.0  0.93602  0.71518  0.63595  1.0000
  C   C281      1.0  0.90000  0.67046  0.56930  1.0000
  C   C282      1.0  0.25952  0.68452  0.63341  1.0000
  C   C283      1.0  0.21290  0.79264  0.45306  1.0000
  H   H492      1.0  0.34522  0.51607  0.61789  1.0000
  N   N16       1.0  0.38515  0.61084  0.63571  1.0000
  H   H493      1.0  0.07656  0.56620  0.57082  1.0000
  H   H494      1.0  0.31793  0.73533  0.62225  1.0000
  H   H495      1.0  0.36307  0.79597  0.44550  1.0000
  H   H496      1.0  0.26412  0.68615  0.59242  1.0000
  C   C284      1.0  0.00837  0.67357  0.46102  1.0000
  H   H497      1.0  0.07967  0.97262  0.47784  1.0000
  C   C285      1.0  0.16615  0.64322  0.40225  1.0000
  C   C286      1.0  0.93546  0.59101  0.63215  1.0000
  H   H498      1.0  0.14819  0.67788  0.40431  1.0000
  C   C287      1.0  0.95860  0.66812  0.49124  1.0000
  H   H499      1.0  0.10159  0.71970  0.60826  1.0000
  C   C288      1.0  0.28085  0.72824  0.45475  1.0000
  H   H500      1.0  0.36763  0.80719  0.60065  1.0000
  H   H501      1.0  0.01117  0.70979  0.53964  1.0000
  N   N17       1.0  0.12928  0.59842  0.50022  1.0000
  H   H502      1.0  0.96627  0.74724  0.53534  1.0000
  H   H503      1.0  0.05857  0.58389  0.51363  1.0000
  H   H504      1.0  0.21594  0.95861  0.51732  1.0000
  H   H505      1.0  0.08351  0.97255  0.56793  1.0000
  H   H506      1.0  0.25304  0.54813  0.51677  1.0000
  H   H507      1.0  0.15397  0.72414  0.56019  1.0000
  C   C289      1.0  0.27251  0.99410  0.53269  1.0000
  H   H508      1.0  0.91059  0.78788  0.47880  1.0000
  H   H509      1.0  0.10789  0.00111  0.62506  1.0000
  H   H510      1.0  0.18685  0.85906  0.63412  1.0000
  C   C290      1.0  0.08351  0.50949  0.52422  1.0000
  H   H511      1.0  0.21202  0.77235  0.63600  1.0000
  H   H512      1.0  0.09515  0.50532  0.48333  1.0000
  H   H513      1.0  0.95376  0.51280  0.63354  1.0000
  H   H514      1.0  0.03373  0.85594  0.64689  1.0000
  S   S63       1.0  0.18368  0.62384  0.64727  1.0000
  H   H515      1.0  0.58689  0.27960  0.80744  1.0000
  H   H516      1.0  0.49267  0.39697  0.85060  1.0000
  H   H517      1.0  0.82374  0.44592  0.72226  1.0000
  Fe  Fe30      1.0  0.72152  0.22436  0.88309  1.0000
  H   H518      1.0  0.61907  0.18526  0.72213  1.0000
  H   H519      1.0  0.74519  0.09379  0.74342  1.0000
  H   H520      1.0  0.60093  0.09607  0.73003  1.0000
  C   C291      1.0  0.87713  0.12695  0.84999  1.0000
  Fe  Fe31      1.0  0.45243  0.16500  0.88729  1.0000
  H   H521      1.0  0.63186  0.02520  0.69488  1.0000
  S   S64       1.0  0.49115  0.11046  0.84404  1.0000
  S   S65       1.0  0.60006  0.46468  0.71042  1.0000
  H   H522      1.0  0.53210  0.01996  0.82230  1.0000
  C   C292      1.0  0.69601  0.30239  0.66566  1.0000
  H   H523      1.0  0.89537  0.07672  0.72006  1.0000
  C   C293      1.0  0.43768  0.16860  0.73324  1.0000
  C   C294      1.0  0.52655  0.44305  0.89094  1.0000
  Fe  Fe32      1.0  0.73534  0.24879  0.76627  1.0000
  C   C295      1.0  0.79602  0.43240  0.70813  1.0000
  C   C296      1.0  0.88717  0.39070  0.78531  1.0000
  H   H524      1.0  0.56666  0.21236  0.82797  1.0000
  C   C297      1.0  0.62662  0.09233  0.82518  1.0000
  C   C298      1.0  0.44770  0.36688  0.77032  1.0000
  H   H525      1.0  0.80556  0.02455  0.67239  1.0000
  H   H526      1.0  0.62723  0.01593  0.86841  1.0000
  S   S66       1.0  0.83199  0.37631  0.82383  1.0000
  H   H527      1.0  0.76796  0.50122  0.80391  1.0000
  S   S67       1.0  0.70369  0.24339  0.70220  1.0000
  S   S68       1.0  0.85198  0.13454  0.79915  1.0000
  C   C299      1.0  0.78747  0.14852  0.67608  1.0000
  S   S69       1.0  0.80925  0.26372  0.74935  1.0000
  C   C300      1.0  0.48457  0.19508  0.72106  1.0000
  H   H528      1.0  0.67109  0.06181  0.86809  1.0000
  C   C301      1.0  0.68531  0.39296  0.65707  1.0000
  H   H529      1.0  0.53083  0.44939  0.80816  1.0000
  H   H530      1.0  0.78468  0.18041  0.69730  1.0000
  C   C302      1.0  0.45053  0.45993  0.74763  1.0000
  C   C303      1.0  0.47233  0.41524  0.75097  1.0000
  H   H531      1.0  0.51526  0.12505  0.73010  1.0000
  S   S70       1.0  0.73020  0.17479  0.82430  1.0000
  C   C304      1.0  0.57903  0.24362  0.74475  1.0000
  H   H532      1.0  0.56166  0.45828  0.88424  1.0000
  Fe  Fe33      1.0  0.79482  0.30604  0.81464  1.0000
  H   H533      1.0  0.86937  0.02596  0.69984  1.0000
  H   H534      1.0  0.54547  0.25621  0.74864  1.0000
  C   C305      1.0  0.49061  0.05034  0.88388  1.0000
  H   H535      1.0  0.50808  0.41782  0.73968  1.0000
  H   H536      1.0  0.43342  0.13212  0.76268  1.0000
  S   S71       1.0  0.72101  0.29738  0.82644  1.0000
  C   C306      1.0  0.40415  0.45604  0.76051  1.0000
  S   S72       1.0  0.79379  0.23580  0.87529  1.0000
  C   C307      1.0  0.58991  0.24158  0.79667  1.0000
  H   H537      1.0  0.59439  0.40240  0.82552  1.0000
  H   H538      1.0  0.55612  0.26336  0.65977  1.0000
  C   C308      1.0  0.51449  0.01253  0.86321  1.0000
  C   C309      1.0  0.51978  0.16040  0.69907  1.0000
  H   H539      1.0  0.69930  0.34577  0.72388  1.0000
  H   H540      1.0  0.60282  0.27362  0.71502  1.0000
  C   C310      1.0  0.69445  0.34694  0.68578  1.0000
  H   H541      1.0  0.44995  0.46568  0.85859  1.0000
  H   H542      1.0  0.55561  0.34996  0.86845  1.0000
  H   H543      1.0  0.76435  0.43770  0.73562  1.0000
  Fe  Fe34      1.0  0.39799  0.25397  0.86836  1.0000
  H   H544      1.0  0.63551  0.13301  0.82571  1.0000
  Fe  Fe35      1.0  0.80296  0.19270  0.81126  1.0000
  H   H545      1.0  0.64727  0.08387  0.78851  1.0000
  H   H546      1.0  0.66415  0.08351  0.65509  1.0000
  C   C311      1.0  0.52517  0.41910  0.84387  1.0000
  S   S73       1.0  0.67853  0.50257  0.79273  1.0000
  C   C312      1.0  0.56074  0.38206  0.83410  1.0000
  H   H547      1.0  0.43085  0.16045  0.69737  1.0000
  S   S74       1.0  0.47073  0.24991  0.85758  1.0000
  H   H548      1.0  0.56261  0.06960  0.70093  1.0000
  C   C313      1.0  0.59560  0.14578  0.65683  1.0000
  H   H549      1.0  0.68415  0.42727  0.67281  1.0000
  C   C314      1.0  0.40130  0.36321  0.78419  1.0000
  C   C315      1.0  0.58316  0.19072  0.72884  1.0000
  H   H550      1.0  0.56606  0.16061  0.76370  1.0000
  C   C316      1.0  0.59514  0.09238  0.69252  1.0000
  H   H551      1.0  0.48876  0.20270  0.75815  1.0000
  H   H552      1.0  0.59118  0.08743  0.82587  1.0000
  H   H553      1.0  0.46461  0.33248  0.77379  1.0000
  H   H554      1.0  0.51074  0.14706  0.66648  1.0000
  N   N18       1.0  0.56746  0.18332  0.68225  1.0000
  H   H555      1.0  0.79694  0.39075  0.70846  1.0000
  H   H556      1.0  0.55878  0.36563  0.80017  1.0000
  C   C317      1.0  0.63516  0.05603  0.87168  1.0000
  H   H557      1.0  0.87815  0.35213  0.72567  1.0000
  H   H558      1.0  0.74554  0.07900  0.68096  1.0000
  C   C318      1.0  0.63099  0.06131  0.66695  1.0000
  C   C319      1.0  0.83164  0.12442  0.67814  1.0000
  C   C320      1.0  0.79906  0.46349  0.65360  1.0000
  H   H559      1.0  0.41319  0.19414  0.74948  1.0000
  H   H560      1.0  0.48650  0.23201  0.69318  1.0000
  H   H561      1.0  0.82305  0.08851  0.70855  1.0000
  H   H562      1.0  0.62437  0.23185  0.79384  1.0000
  H   H563      1.0  0.85053  0.15006  0.69456  1.0000
  H   H564      1.0  0.71605  0.13056  0.70227  1.0000
  C   C321      1.0  0.74623  0.11029  0.70233  1.0000
  H   H565      1.0  0.82227  0.48321  0.85285  1.0000
  H   H566      1.0  0.88397  0.23308  0.86993  1.0000
  H   H567      1.0  0.89094  0.02003  0.84580  1.0000
  H   H568      1.0  0.52396  0.04302  0.11248  1.0000
  H   H569      1.0  0.60466  0.16198  0.06295  1.0000
  C   C322      1.0  0.85199  0.12535  0.90087  1.0000
  C   C323      1.0  0.49393  0.49420  0.95414  1.0000
  H   H570      1.0  0.63806  0.28310  0.01640  1.0000
  C   C324      1.0  0.60592  0.06582  0.92387  1.0000
  C   C325      1.0  0.60126  0.22228  0.93421  1.0000
  H   H571      1.0  0.60550  0.10809  0.92043  1.0000
  H   H572      1.0  0.49518  0.36509  0.06709  1.0000
  H   H573      1.0  0.48438  0.45742  0.98371  1.0000
  C   C326      1.0  0.82990  0.22355  0.07057  1.0000
  H   H574      1.0  0.77136  0.37445  0.13434  1.0000
  H   H575      1.0  0.53140  0.19097  0.09445  1.0000
  H   H576      1.0  0.57159  0.05098  0.92633  1.0000
  H   H577      1.0  0.71817  0.32264  0.00749  1.0000
  H   H578      1.0  0.76621  0.48646  0.96585  1.0000
  H   H579      1.0  0.67519  0.10098  0.93844  1.0000
  C   C327      1.0  0.87287  0.12254  0.94084  1.0000
  N   N19       1.0  0.61915  0.04242  0.97226  1.0000
  H   H580      1.0  0.89566  0.22813  0.98161  1.0000
  C   C328      1.0  0.79565  0.27758  0.01112  1.0000
  H   H581      1.0  0.41949  0.42364  0.97805  1.0000
  C   C329      1.0  0.76273  0.29726  0.05499  1.0000
  C   C330      1.0  0.51459  0.27584  0.12688  1.0000
  H   H582      1.0  0.59832  0.04601  0.05403  1.0000
  H   H583      1.0  0.64894  0.41302  0.06080  1.0000
  H   H584      1.0  0.53870  0.23109  0.91652  1.0000
  H   H585      1.0  0.77433  0.33711  0.05541  1.0000
  C   C331      1.0  0.58929  0.06026  0.01740  1.0000
  H   H586      1.0  0.52595  0.48162  0.04237  1.0000
  C   C332      1.0  0.66710  0.06195  0.96457  1.0000
  N   N20       1.0  0.83964  0.26485  0.02096  1.0000
  C   C333      1.0  0.46745  0.04036  0.93653  1.0000
  H   H587      1.0  0.56838  0.32365  0.01822  1.0000
  S   S75       1.0  0.44469  0.16922  0.97074  1.0000
  H   H588      1.0  0.82283  0.24137  0.10527  1.0000
  H   H589      1.0  0.82278  0.13022  0.14247  1.0000
  H   H590      1.0  0.75901  0.27276  0.09402  1.0000
  H   H591      1.0  0.46048  0.18025  0.09719  1.0000
  C   C334      1.0  0.49846  0.36889  0.10593  1.0000
  H   H592      1.0  0.64549  0.16525  0.09816  1.0000
  H   H593      1.0  0.56550  0.49509  0.94863  1.0000
  H   H594      1.0  0.47706  0.04951  0.08588  1.0000
  H   H595      1.0  0.44674  0.38576  0.93365  1.0000
  C   C335      1.0  0.68166  0.06819  0.01366  1.0000
  H   H596      1.0  0.54939  0.29120  0.12175  1.0000
  C   C336      1.0  0.62865  0.23564  0.96370  1.0000
  H   H597      1.0  0.81649  0.12634  0.90931  1.0000
  H   H598      1.0  0.84421  0.48176  0.90830  1.0000
  H   H599      1.0  0.85535  0.30480  0.91042  1.0000
  H   H600      1.0  0.86571  0.15857  0.04993  1.0000
  H   H601      1.0  0.84527  0.21352  0.96770  1.0000
  C   C337      1.0  0.48482  0.31743  0.14501  1.0000
  H   H602      1.0  0.88127  0.12693  0.13422  1.0000
  C   C338      1.0  0.86568  0.24531  0.97458  1.0000
  Fe  Fe36      1.0  0.45660  0.25447  0.94153  1.0000
  H   H603      1.0  0.84336  0.32612  0.06200  1.0000
  H   H604      1.0  0.52595  0.06399  0.99691  1.0000
  C   C339      1.0  0.42648  0.41853  0.93731  1.0000
  H   H605      1.0  0.51240  0.27372  0.08727  1.0000
  H   H606      1.0  0.44851  0.06904  0.95249  1.0000
  H   H607      1.0  0.77857  0.24321  0.00380  1.0000
  H   H608      1.0  0.66528  0.09973  0.02996  1.0000
  C   C340      1.0  0.73168  0.08245  0.00019  1.0000
  C   C341      1.0  0.61669  0.27205  0.99421  1.0000
  C   C342      1.0  0.57715  0.29473  0.99556  1.0000
  H   H609      1.0  0.61470  0.39598  0.02158  1.0000
  S   S76       1.0  0.67684  0.20537  0.96406  1.0000
  H   H610      1.0  0.89469  0.47537  0.09486  1.0000
  C   C343      1.0  0.54839  0.27887  0.96882  1.0000
  H   H611      1.0  0.79908  0.19838  0.07530  1.0000
  H   H612      1.0  0.85330  0.12089  0.98025  1.0000
  H   H613      1.0  0.74140  0.11929  0.97088  1.0000
  H   H614      1.0  0.74108  0.08744  0.03568  1.0000
  C   C344      1.0  0.51296  0.06141  0.07820  1.0000
  H   H615      1.0  0.75017  0.05176  0.98457  1.0000
  C   C345      1.0  0.44997  0.46880  0.89884  1.0000
  H   H616      1.0  0.68630  0.43799  0.96506  1.0000
  H   H617      1.0  0.47120  0.49495  0.12353  1.0000
  C   C346      1.0  0.56056  0.24290  0.93783  1.0000
  H   H618      1.0  0.70167  0.49165  0.02753  1.0000
  H   H619      1.0  0.59810  0.23459  0.10999  1.0000
  H   H620      1.0  0.59411  0.10307  0.01029  1.0000
  S   S77       1.0  0.49652  0.30236  0.97598  1.0000
  H   H621      1.0  0.44161  0.24257  0.10026  1.0000
  H   H622      1.0  0.64202  0.47646  0.95629  1.0000
  H   H623      1.0  0.80034  0.30788  0.97526  1.0000
  H   H624      1.0  0.68991  0.03695  0.94426  1.0000
  H   H625      1.0  0.67297  0.03285  0.04466  1.0000
  H   H626      1.0  0.61111  0.19551  0.90926  1.0000
  H   H627      1.0  0.51977  0.41098  0.92579  1.0000
  H   H628      1.0  0.86401  0.34533  0.99374  1.0000
  C   C347      1.0  0.88269  0.28575  0.92253  1.0000
  C   C348      1.0  0.66208  0.46261  0.98335  1.0000
  C   C349      1.0  0.53887  0.04475  0.02920  1.0000
  H   H629      1.0  0.81380  0.47062  0.11315  1.0000
  C   C350      1.0  0.71667  0.29839  0.04617  1.0000
  C   C351      1.0  0.63068  0.42869  0.03221  1.0000
  C   C352      1.0  0.86275  0.31307  0.02718  1.0000
  H   H630      1.0  0.70249  0.25876  0.04842  1.0000
  H   H631      1.0  0.74746  0.48409  0.91050  1.0000
  H   H632      1.0  0.60433  0.45099  0.05051  1.0000
  N   N21       1.0  0.49613  0.48460  0.90076  1.0000
  C   C353      1.0  0.60952  0.15737  0.10242  1.0000
  C   C354      1.0  0.86543  0.18570  0.07620  1.0000
  H   H633      1.0  0.51760  0.10388  0.07282  1.0000
  H   H634      1.0  0.69424  0.31445  0.07680  1.0000
  H   H635      1.0  0.47682  0.39809  0.11962  1.0000
  H   H636      1.0  0.59843  0.11717  0.12421  1.0000
  H   H637      1.0  0.53328  0.38285  0.10222  1.0000
  C   C355      1.0  0.58381  0.19513  0.13126  1.0000
  C   C356      1.0  0.44024  0.20289  0.12305  1.0000
  S   S78       1.0  0.55751  0.48869  0.14034  1.0000
  C   C357      1.0  0.53366  0.18709  0.13516  1.0000
  C   C358      1.0  0.85530  0.15357  0.13168  1.0000
  H   H638      1.0  0.42778  0.49900  0.90818  1.0000
  C   C359      1.0  0.73866  0.17715  0.25376  1.0000
  H   H639      1.0  0.88367  0.48981  0.34183  1.0000
  H   H640      1.0  0.81497  0.32432  0.37168  1.0000
  S   S79       1.0  0.70989  0.46779  0.28376  1.0000
  H   H641      1.0  0.47434  0.15756  0.26672  1.0000
  H   H642      1.0  0.63649  0.03384  0.21666  1.0000
  H   H643      1.0  0.52955  0.14616  0.23485  1.0000
  H   H644      1.0  0.64351  0.13908  0.34566  1.0000
  H   H645      1.0  0.79470  0.43368  0.29679  1.0000
  H   H646      1.0  0.54678  0.24685  0.20638  1.0000
  H   H647      1.0  0.44855  0.41803  0.29785  1.0000
  H   H648      1.0  0.46886  0.02743  0.20416  1.0000
  C   C360      1.0  0.61519  0.05999  0.37988  1.0000
  H   H649      1.0  0.82674  0.49256  0.34035  1.0000
  Fe  Fe37      1.0  0.45416  0.03370  0.38644  1.0000
  H   H650      1.0  0.87466  0.33227  0.29563  1.0000
  C   C361      1.0  0.77599  0.35128  0.26398  1.0000
  C   C362      1.0  0.88339  0.07893  0.26456  1.0000
  H   H651      1.0  0.52279  0.27626  0.37041  1.0000
  H   H652      1.0  0.41275  0.17857  0.37465  1.0000
  C   C363      1.0  0.41533  0.40577  0.32588  1.0000
  Fe  Fe38      1.0  0.58371  0.44194  0.20136  1.0000
  H   H653      1.0  0.50729  0.49435  0.36327  1.0000
  H   H654      1.0  0.52177  0.14621  0.15446  1.0000
  H   H655      1.0  0.57969  0.04320  0.24240  1.0000
  H   H656      1.0  0.77402  0.00707  0.32627  1.0000
  H   H657      1.0  0.76542  0.39779  0.38131  1.0000
  Fe  Fe39      1.0  0.77708  0.13548  0.35875  1.0000
  H   H658      1.0  0.88495  0.04653  0.24408  1.0000
  S   S80       1.0  0.65192  0.41644  0.18493  1.0000
  S   S81       1.0  0.62378  0.35290  0.30710  1.0000
  H   H659      1.0  0.63469  0.07348  0.29494  1.0000
  C   C364      1.0  0.69855  0.20156  0.18904  1.0000
  H   H660      1.0  0.43444  0.22444  0.19744  1.0000
  C   C365      1.0  0.45677  0.20275  0.17215  1.0000
  C   C366      1.0  0.79452  0.36156  0.20382  1.0000
  H   H661      1.0  0.68380  0.01592  0.25984  1.0000
  C   C367      1.0  0.71629  0.21080  0.28255  1.0000
  H   H662      1.0  0.75667  0.31281  0.27674  1.0000
  C   C368      1.0  0.60288  0.01354  0.23459  1.0000
  H   H663      1.0  0.84111  0.42948  0.24593  1.0000
  C   C369      1.0  0.85002  0.32871  0.27337  1.0000
  H   H664      1.0  0.74683  0.14643  0.18469  1.0000
  H   H665      1.0  0.56073  0.19607  0.28721  1.0000
  H   H666      1.0  0.41822  0.37169  0.35524  1.0000
  H   H667      1.0  0.58975  0.18861  0.17026  1.0000
  S   S82       1.0  0.54967  0.36351  0.24117  1.0000
  H   H668      1.0  0.72282  0.21439  0.31873  1.0000
  C   C370      1.0  0.51346  0.22641  0.21306  1.0000
  H   H669      1.0  0.41884  0.24822  0.35842  1.0000
  S   S83       1.0  0.48312  0.04292  0.29996  1.0000
  C   C371      1.0  0.82415  0.41190  0.28730  1.0000
  H   H670      1.0  0.87180  0.11188  0.24142  1.0000
  C   C372      1.0  0.84061  0.27013  0.27691  1.0000
  C   C373      1.0  0.75762  0.37009  0.17699  1.0000
  C   C374      1.0  0.61300  0.04446  0.32824  1.0000
  C   C375      1.0  0.72984  0.17267  0.20690  1.0000
  H   H671      1.0  0.77414  0.29105  0.35337  1.0000
  H   H672      1.0  0.69172  0.19787  0.15288  1.0000
  Fe  Fe40      1.0  0.55783  0.38422  0.31437  1.0000
  S   S84       1.0  0.50324  0.37835  0.38792  1.0000
  H   H673      1.0  0.76351  0.01950  0.26340  1.0000
  H   H674      1.0  0.83661  0.24890  0.31751  1.0000
  H   H675      1.0  0.50576  0.21074  0.31836  1.0000
  C   C376      1.0  0.75256  0.35863  0.38052  1.0000
  H   H676      1.0  0.81118  0.32810  0.19216  1.0000
  H   H677      1.0  0.42520  0.46161  0.36988  1.0000
  C   C377      1.0  0.52483  0.18234  0.29930  1.0000
  H   H678      1.0  0.58353  0.13068  0.36612  1.0000
  H   H679      1.0  0.42072  0.21246  0.30832  1.0000
  H   H680      1.0  0.81888  0.39606  0.18866  1.0000
  C   C378      1.0  0.68532  0.24017  0.26437  1.0000
  H   H681      1.0  0.84582  0.40291  0.35985  1.0000
  C   C379      1.0  0.70429  0.00461  0.32930  1.0000
  H   H682      1.0  0.72473  0.36190  0.36233  1.0000
  H   H683      1.0  0.75043  0.37805  0.27337  1.0000
  H   H684      1.0  0.73154  0.33706  0.19147  1.0000
  H   H685      1.0  0.70426  0.04631  0.32910  1.0000
  S   S85       1.0  0.63821  0.27203  0.19369  1.0000
  H   H686      1.0  0.48777  0.32404  0.18298  1.0000
  H   H687      1.0  0.74275  0.40586  0.18442  1.0000
  H   H688      1.0  0.45094  0.16224  0.19466  1.0000
  H   H689      1.0  0.58913  0.01679  0.15982  1.0000
  C   C380      1.0  0.85629  0.42453  0.31895  1.0000
  H   H690      1.0  0.57834  0.04983  0.32641  1.0000
  H   H691      1.0  0.48997  0.25038  0.23375  1.0000
  Fe  Fe41      1.0  0.61845  0.33911  0.23012  1.0000
  H   H692      1.0  0.80993  0.26067  0.26635  1.0000
  C   C381      1.0  0.85939  0.48152  0.32041  1.0000
  H   H693      1.0  0.85882  0.06717  0.30326  1.0000
  H   H694      1.0  0.51951  0.14525  0.32797  1.0000
  H   H695      1.0  0.66801  0.26581  0.28693  1.0000
  N   N22       1.0  0.50458  0.22300  0.16193  1.0000
  C   C382      1.0  0.40484  0.21304  0.34961  1.0000
  C   C383      1.0  0.78929  0.33040  0.35018  1.0000
  H   H696      1.0  0.64518  0.04911  0.39174  1.0000
  S   S86       1.0  0.84137  0.13313  0.38025  1.0000
  C   C384      1.0  0.61404  0.11786  0.37590  1.0000
  H   H697      1.0  0.85486  0.17863  0.15998  1.0000
  C   C385      1.0  0.67645  0.23559  0.21759  1.0000
  C   C386      1.0  0.50937  0.17458  0.25230  1.0000
  Fe  Fe42      1.0  0.65281  0.43217  0.26264  1.0000
  N   N23       1.0  0.80997  0.35555  0.29375  1.0000
  S   S87       1.0  0.58740  0.46460  0.27495  1.0000
  H   H698      1.0  0.86784  0.34804  0.23265  1.0000
  S   S88       1.0  0.77812  0.14076  0.27505  1.0000
  H   H699      1.0  0.58507  0.43313  0.39423  1.0000
  H   H700      1.0  0.87210  0.20709  0.24754  1.0000
  H   H701      1.0  0.89001  0.41532  0.30023  1.0000
  C   C387      1.0  0.87845  0.24954  0.24094  1.0000
  H   H702      1.0  0.88073  0.26635  0.19958  1.0000
  C   C388      1.0  0.39935  0.45001  0.35197  1.0000
  H   H703      1.0  0.39714  0.48237  0.32059  1.0000
  H   H704      1.0  0.65306  0.39104  0.39743  1.0000
  H   H705      1.0  0.44949  0.30628  0.14876  1.0000
  H   H706      1.0  0.42521  0.47140  0.53372  1.0000
  H   H707      1.0  0.77752  0.46916  0.42597  1.0000
  C   C389      1.0  0.61667  0.47080  0.44239  1.0000
  C   C390      1.0  0.42103  0.26282  0.49065  1.0000
  C   C391      1.0  0.73440  0.32973  0.43711  1.0000
  H   H708      1.0  0.71777  0.29138  0.43924  1.0000
  Fe  Fe43      1.0  0.81143  0.18037  0.43786  1.0000
  H   H709      1.0  0.42994  0.34537  0.47691  1.0000
  H   H710      1.0  0.70986  0.35205  0.45852  1.0000
  C   C392      1.0  0.54025  0.45000  0.54530  1.0000
  H   H711      1.0  0.85772  0.08281  0.56243  1.0000
  H   H712      1.0  0.59984  0.30463  0.54902  1.0000
  H   H713      1.0  0.52805  0.48092  0.44605  1.0000
  H   H714      1.0  0.84331  0.27024  0.60175  1.0000
  H   H715      1.0  0.67574  0.35142  0.54964  1.0000
  C   C393      1.0  0.63500  0.02459  0.51579  1.0000
  H   H716      1.0  0.51160  0.44706  0.52900  1.0000
  H   H717      1.0  0.56214  0.11173  0.54756  1.0000
  S   S89       1.0  0.84020  0.24843  0.45911  1.0000
  C   C394      1.0  0.57412  0.07611  0.53886  1.0000
  H   H718      1.0  0.59881  0.49730  0.53678  1.0000
  H   H719      1.0  0.52743  0.21429  0.59966  1.0000
  H   H720      1.0  0.81222  0.40821  0.48217  1.0000
  H   H721      1.0  0.48540  0.18930  0.41842  1.0000
  Fe  Fe44      1.0  0.80687  0.06556  0.44257  1.0000
  H   H722      1.0  0.58477  0.13746  0.62324  1.0000
  H   H723      1.0  0.58474  0.20913  0.56795  1.0000
  H   H724      1.0  0.50954  0.04171  0.54360  1.0000
  H   H725      1.0  0.80061  0.25310  0.57236  1.0000
  H   H726      1.0  0.85825  0.49674  0.59226  1.0000
  C   C395      1.0  0.88624  0.28027  0.41005  1.0000
  H   H727      1.0  0.63127  0.36767  0.46710  1.0000
  C   C396      1.0  0.47849  0.31644  0.42036  1.0000
  S   S90       1.0  0.75016  0.18862  0.41106  1.0000
  N   N24       1.0  0.86134  0.11627  0.62748  1.0000
  H   H728      1.0  0.50195  0.47911  0.61145  1.0000
  S   S91       1.0  0.66366  0.45081  0.57340  1.0000
  H   H729      1.0  0.76949  0.43545  0.56683  1.0000
  S   S92       1.0  0.41132  0.01431  0.53690  1.0000
  C   C397      1.0  0.87569  0.16859  0.59146  1.0000
  C   C398      1.0  0.81928  0.37277  0.60051  1.0000
  H   H730      1.0  0.63558  0.45705  0.47105  1.0000
  S   S93       1.0  0.78211  0.11238  0.50206  1.0000
  H   H731      1.0  0.61011  0.24875  0.63166  1.0000
  C   C399      1.0  0.62236  0.37911  0.42990  1.0000
  S   S94       1.0  0.49245  0.06649  0.43373  1.0000
  C   C400      1.0  0.77098  0.46833  0.46814  1.0000
  H   H732      1.0  0.84745  0.18539  0.57924  1.0000
  H   H733      1.0  0.54925  0.44688  0.62269  1.0000
  C   C401      1.0  0.61943  0.07044  0.52755  1.0000
  C   C402      1.0  0.49427  0.27245  0.40376  1.0000
  C   C403      1.0  0.43642  0.21876  0.47417  1.0000
  H   H734      1.0  0.74015  0.44263  0.48888  1.0000
  C   C404      1.0  0.44196  0.31149  0.46380  1.0000
  C   C405      1.0  0.59287  0.42309  0.43219  1.0000
  H   H735      1.0  0.89531  0.47043  0.51715  1.0000
  H   H736      1.0  0.50007  0.41010  0.62194  1.0000
  H   H737      1.0  0.76149  0.32468  0.45654  1.0000
  N   N25       1.0  0.83688  0.42704  0.57230  1.0000
  Fe  Fe45      1.0  0.72231  0.11792  0.47238  1.0000
  C   C406      1.0  0.80989  0.44826  0.48748  1.0000
  H   H738      1.0  0.56134  0.40829  0.46205  1.0000
  H   H739      1.0  0.88763  0.19577  0.61233  1.0000
  C   C407      1.0  0.69010  0.30436  0.61613  1.0000
  Fe  Fe46      1.0  0.42757  0.08871  0.47747  1.0000
  H   H740      1.0  0.58619  0.04039  0.41198  1.0000
  C   C408      1.0  0.54445  0.03662  0.53640  1.0000
  S   S95       1.0  0.74405  0.06464  0.41813  1.0000
  C   C409      1.0  0.82245  0.02758  0.63068  1.0000
  H   H741      1.0  0.55949  0.41638  0.54098  1.0000
  H   H742      1.0  0.60431  0.34525  0.42344  1.0000
  H   H743      1.0  0.88059  0.35123  0.43677  1.0000
  C   C410      1.0  0.81444  0.33472  0.56555  1.0000
  S   S96       1.0  0.65638  0.12124  0.52726  1.0000
  C   C411      1.0  0.47320  0.22341  0.43084  1.0000
  H   H744      1.0  0.75849  0.01983  0.61375  1.0000
  H   H745      1.0  0.61439  0.12729  0.41382  1.0000
  H   H746      1.0  0.78564  0.16588  0.63650  1.0000
  C   C412      1.0  0.80404  0.45179  0.54515  1.0000
  H   H747      1.0  0.76844  0.45322  0.64337  1.0000
  C   C413      1.0  0.88204  0.42955  0.53420  1.0000
  C   C414      1.0  0.56197  0.23158  0.59166  1.0000
  S   S97       1.0  0.40827  0.15887  0.50867  1.0000
  C   C415      1.0  0.83693  0.08410  0.60187  1.0000
  C   C416      1.0  0.84239  0.45722  0.61228  1.0000
  C   C417      1.0  0.68113  0.35034  0.58743  1.0000
  C   C418      1.0  0.41574  0.49601  0.50111  1.0000
  H   H748      1.0  0.78392  0.34057  0.55255  1.0000
  H   H749      1.0  0.84300  0.33904  0.53077  1.0000
  H   H750      1.0  0.80718  0.10226  0.59537  1.0000
  C   C419      1.0  0.67784  0.39444  0.60828  1.0000
  H   H751      1.0  0.55778  0.28337  0.52118  1.0000
  H   H752      1.0  0.66998  0.02007  0.50775  1.0000
  H   H753      1.0  0.80443  0.49356  0.54542  1.0000
  C   C420      1.0  0.81082  0.27936  0.59521  1.0000
  H   H754      1.0  0.84052  0.47205  0.46211  1.0000
  C   C421      1.0  0.56564  0.28568  0.55825  1.0000
  H   H755      1.0  0.88020  0.41322  0.50032  1.0000
  C   C422      1.0  0.52182  0.44658  0.60383  1.0000
  H   H756      1.0  0.69212  0.27013  0.60009  1.0000
  H   H757      1.0  0.54190  0.30945  0.57890  1.0000
  H   H758      1.0  0.78576  0.37187  0.62752  1.0000
  H   H759      1.0  0.78595  0.27331  0.63340  1.0000
  H   H760      1.0  0.83959  0.35711  0.62685  1.0000
  H   H761      1.0  0.62367  0.05101  0.63223  1.0000
  H   H762      1.0  0.80463  0.00661  0.56449  1.0000
  H   H763      1.0  0.63072  0.16317  0.64043  1.0000
  H   H764      1.0  0.64265  0.48715  0.40528  1.0000
  H   H765      1.0  0.86610  0.44035  0.63344  1.0000
  Fe  Fe47      1.0  0.63725  0.50174  0.62846  1.0000
  H   H766      1.0  0.85201  0.00569  0.62713  1.0000
  C   C423      1.0  0.57460  0.23344  0.64280  1.0000
  C   C424      1.0  0.57098  0.50035  0.51883  1.0000
  C   C425      1.0  0.72420  0.54910  0.77161  1.0000
  H   H767      1.0  0.41755  0.81819  0.76425  1.0000
  C   C426      1.0  0.77224  0.75562  0.80193  1.0000
  H   H768      1.0  0.46787  0.85181  0.76640  1.0000
  H   H769      1.0  0.87435  0.92621  0.67308  1.0000
  C   C427      1.0  0.45298  0.81478  0.76239  1.0000
  S   S98       1.0  0.59320  0.58063  0.73251  1.0000
  H   H770      1.0  0.41886  0.78711  0.66063  1.0000
  S   S99       1.0  0.84957  0.68067  0.84967  1.0000
  H   H771      1.0  0.61095  0.62647  0.88243  1.0000
  S   S100      1.0  0.47999  0.52115  0.72948  1.0000
  H   H772      1.0  0.40790  0.58003  0.72979  1.0000
  C   C428      1.0  0.83392  0.86519  0.73558  1.0000
  H   H773      1.0  0.40572  0.84164  0.68675  1.0000
  H   H774      1.0  0.56791  0.96797  0.68790  1.0000
  S   S101      1.0  0.52116  0.80220  0.89554  1.0000
  H   H775      1.0  0.84042  0.83253  0.76379  1.0000
  C   C429      1.0  0.47815  0.80005  0.71101  1.0000
  H   H776      1.0  0.60809  0.74153  0.78373  1.0000
  Fe  Fe48      1.0  0.89546  0.75258  0.83335  1.0000
  Fe  Fe49      1.0  0.62994  0.61078  0.64893  1.0000
  H   H777      1.0  0.68908  0.60551  0.73438  1.0000
  C   C430      1.0  0.53487  0.95933  0.68211  1.0000
  C   C431      1.0  0.74523  0.78364  0.70403  1.0000
  H   H778      1.0  0.69426  0.85313  0.73718  1.0000
  C   C432      1.0  0.53173  0.90534  0.67133  1.0000
  C   C433      1.0  0.61339  0.80741  0.72164  1.0000
  H   H779      1.0  0.49467  0.66212  0.83051  1.0000
  H   H780      1.0  0.73339  0.88356  0.67808  1.0000
  C   C434      1.0  0.87877  0.89270  0.70205  1.0000
  C   C435      1.0  0.79687  0.62439  0.73383  1.0000
  H   H781      1.0  0.71091  0.98964  0.74909  1.0000
  C   C436      1.0  0.45524  0.77406  0.80932  1.0000
  N   N26       1.0  0.47624  0.83561  0.66134  1.0000
  H   H782      1.0  0.45520  0.57500  0.86191  1.0000
  H   H783      1.0  0.86592  0.53067  0.85006  1.0000
  H   H784      1.0  0.43937  0.78678  0.84569  1.0000
  C   C437      1.0  0.74018  0.70659  0.82199  1.0000
  C   C438      1.0  0.80113  0.57656  0.76322  1.0000
  H   H785      1.0  0.66930  0.93713  0.75969  1.0000
  H   H786      1.0  0.71251  0.79559  0.80402  1.0000
  H   H787      1.0  0.45950  0.90342  0.69238  1.0000
  Fe  Fe50      1.0  0.59173  0.82195  0.84748  1.0000
  S   S102      1.0  0.68216  0.55589  0.64983  1.0000
  H   H788      1.0  0.42523  0.66649  0.65831  1.0000
  H   H789      1.0  0.66457  0.62595  0.83800  1.0000
  H   H790      1.0  0.81634  0.89222  0.75784  1.0000
  H   H791      1.0  0.42766  0.98301  0.77178  1.0000
  H   H792      1.0  0.46423  0.76042  0.71259  1.0000
  C   C439      1.0  0.76466  0.53871  0.78214  1.0000
  C   C440      1.0  0.51250  0.62801  0.82354  1.0000
  H   H793      1.0  0.62167  0.86514  0.65180  1.0000
  C   C441      1.0  0.74901  0.80413  0.78606  1.0000
  H   H794      1.0  0.79493  0.56937  0.86362  1.0000
  Fe  Fe51      1.0  0.64220  0.52217  0.73191  1.0000
  C   C442      1.0  0.62291  0.72044  0.70892  1.0000
  Fe  Fe52      1.0  0.55433  0.52621  0.70347  1.0000
  H   H795      1.0  0.62496  0.68065  0.72491  1.0000
  H   H796      1.0  0.72255  0.70024  0.79302  1.0000
  C   C443      1.0  0.61401  0.75518  0.74226  1.0000
  H   H797      1.0  0.80067  0.75013  0.77012  1.0000
  Fe  Fe53      1.0  0.88103  0.67793  0.76641  1.0000
  H   H798      1.0  0.75852  0.83295  0.80646  1.0000
  C   C444      1.0  0.72955  0.86863  0.72019  1.0000
  N   N27       1.0  0.75868  0.82594  0.72835  1.0000
  C   C445      1.0  0.73721  0.91639  0.74265  1.0000
  C   C446      1.0  0.82259  0.82092  0.88947  1.0000
  C   C447      1.0  0.48942  0.58086  0.86534  1.0000
  H   H799      1.0  0.75896  0.67304  0.82985  1.0000
  C   C448      1.0  0.62145  0.82468  0.66787  1.0000
  H   H800      1.0  0.53779  0.87834  0.70460  1.0000
  H   H801      1.0  0.54724  0.63606  0.82469  1.0000
  H   H802      1.0  0.70274  0.96538  0.69443  1.0000
  H   H803      1.0  0.83264  0.56849  0.77066  1.0000
  H   H804      1.0  0.62771  0.56736  0.86404  1.0000
  H   H805      1.0  0.72569  0.58728  0.87430  1.0000
  H   H806      1.0  0.51373  0.52535  0.82029  1.0000
  H   H807      1.0  0.41892  0.54594  0.66134  1.0000
  C   C449      1.0  0.39983  0.98181  0.80698  1.0000
  H   H808      1.0  0.76683  0.75201  0.70778  1.0000
  H   H809      1.0  0.80490  0.89390  0.85447  1.0000
  C   C450      1.0  0.42999  0.82857  0.65523  1.0000
  H   H810      1.0  0.77036  0.93689  0.72170  1.0000
  H   H811      1.0  0.81017  0.87494  0.66658  1.0000
  S   S103      1.0  0.87643  0.82953  0.84854  1.0000
  H   H812      1.0  0.50918  0.96188  0.71807  1.0000
  C   C451      1.0  0.48624  0.89120  0.66264  1.0000
  S   S104      1.0  0.60420  0.85252  0.76151  1.0000
  C   C452      1.0  0.63026  0.73765  0.65511  1.0000
  H   H813      1.0  0.82544  0.81305  0.68763  1.0000
  H   H814      1.0  0.43751  0.73686  0.80986  1.0000
  H   H815      1.0  0.78642  0.76081  0.83410  1.0000
  H   H816      1.0  0.73451  0.90597  0.78485  1.0000
  H   H817      1.0  0.40293  0.62687  0.80056  1.0000
  H   H818      1.0  0.49030  0.76838  0.80834  1.0000
  C   C453      1.0  0.51438  0.53244  0.85896  1.0000
  C   C454      1.0  0.63955  0.60353  0.87302  1.0000
  H   H819      1.0  0.55001  0.54249  0.85544  1.0000
  H   H820      1.0  0.44355  0.65948  0.74183  1.0000
  C   C455      1.0  0.75675  0.63386  0.72255  1.0000
  C   C456      1.0  0.51618  0.96529  0.89571  1.0000
  C   C457      1.0  0.79332  0.85824  0.88283  1.0000
  H   H821      1.0  0.71545  0.70893  0.85878  1.0000
  H   H822      1.0  0.75351  0.67004  0.69914  1.0000
  H   H823      1.0  0.51317  0.79618  0.71202  1.0000
  S   S105      1.0  0.61642  0.75148  0.88701  1.0000
  C   C458      1.0  0.80702  0.84453  0.70211  1.0000
  C   C459      1.0  0.70296  0.95437  0.73585  1.0000
  S   S106      1.0  0.84102  0.67299  0.71004  1.0000
  H   H824      1.0  0.71079  0.76617  0.72521  1.0000
  C   C460      1.0  0.72032  0.59687  0.74213  1.0000
  C   C461      1.0  0.40753  0.64827  0.75993  1.0000
  H   H825      1.0  0.51211  0.62208  0.78439  1.0000
  H   H826      1.0  0.53502  0.93634  0.87982  1.0000
  C   C462      1.0  0.83527  0.50724  0.87582  1.0000
  H   H827      1.0  0.69200  0.52899  0.88966  1.0000
  C   C463      1.0  0.80120  0.54264  0.89678  1.0000
  H   H828      1.0  0.41292  0.99873  0.83501  1.0000
  H   H829      1.0  0.79849  0.50467  0.65608  1.0000
  H   H830      1.0  0.53093  0.98842  0.64874  1.0000
  C   C464      1.0  0.40115  0.90691  0.10685  1.0000
  H   H831      1.0  0.88831  0.79661  0.98897  1.0000
  H   H832      1.0  0.72467  0.85339  0.11443  1.0000
  S   S107      1.0  0.51451  0.65430  0.96948  1.0000
  H   H833      1.0  0.62606  0.64723  0.03517  1.0000
  C   C465      1.0  0.65921  0.59160  0.91934  1.0000
  H   H834      1.0  0.45733  0.74256  0.13618  1.0000
  C   C466      1.0  0.87822  0.50914  0.10610  1.0000
  H   H835      1.0  0.66817  0.62885  0.92843  1.0000
  H   H836      1.0  0.72557  0.87660  0.90582  1.0000
  C   C467      1.0  0.62311  0.95295  0.02814  1.0000
  H   H837      1.0  0.63272  0.56945  0.95280  1.0000
  C   C468      1.0  0.39879  0.68531  0.93760  1.0000
  H   H838      1.0  0.72787  0.75984  0.14417  1.0000
  H   H839      1.0  0.83903  0.51217  0.05039  1.0000
  Fe  Fe54      1.0  0.54686  0.73492  0.93851  1.0000
  H   H840      1.0  0.54650  0.55784  0.93674  1.0000
  H   H841      1.0  0.57317  0.66795  0.11324  1.0000
  H   H842      1.0  0.67247  0.67024  0.10996  1.0000
  H   H843      1.0  0.60280  0.96291  0.06412  1.0000
  H   H844      1.0  0.64536  0.71709  0.07757  1.0000
  H   H845      1.0  0.75225  0.73093  0.98519  1.0000
  C   C469      1.0  0.83378  0.50781  0.09304  1.0000
  H   H846      1.0  0.88944  0.81774  0.13128  1.0000
  C   C470      1.0  0.68589  0.50839  0.99667  1.0000
  H   H847      1.0  0.56427  0.53874  0.02073  1.0000
  C   C471      1.0  0.74855  0.84836  0.91144  1.0000
  C   C472      1.0  0.40531  0.81350  0.09931  1.0000
  H   H848      1.0  0.43845  0.82413  0.07070  1.0000
  H   H849      1.0  0.63679  0.97302  0.94524  1.0000
  H   H850      1.0  0.62150  0.87339  0.06678  1.0000
  H   H851      1.0  0.40546  0.69321  0.07189  1.0000
  H   H852      1.0  0.48891  0.65861  0.14551  1.0000
  C   C473      1.0  0.47451  0.67188  0.11264  1.0000
  H   H853      1.0  0.44642  0.74585  0.04790  1.0000
  H   H854      1.0  0.88757  0.59249  0.07823  1.0000
  C   C474      1.0  0.61389  0.98477  0.97877  1.0000
  H   H855      1.0  0.50601  0.54447  0.03102  1.0000
  H   H856      1.0  0.70729  0.60938  0.98533  1.0000
  H   H857      1.0  0.81486  0.53915  0.10639  1.0000
  H   H858      1.0  0.48763  0.59021  0.90350  1.0000
  H   H859      1.0  0.75754  0.61663  0.93577  1.0000
  C   C475      1.0  0.61257  0.89547  0.03258  1.0000
  H   H860      1.0  0.78455  0.54820  0.00521  1.0000
  C   C476      1.0  0.44034  0.70936  0.12738  1.0000
  H   H861      1.0  0.71473  0.84235  0.05465  1.0000
  S   S108      1.0  0.67901  0.78926  0.98583  1.0000
  S   S109      1.0  0.79623  0.68107  0.13708  1.0000
  C   C477      1.0  0.76366  0.76612  0.95626  1.0000
  S   S110      1.0  0.55972  0.77819  0.99640  1.0000
  C   C478      1.0  0.70053  0.56145  0.90682  1.0000
  H   H862      1.0  0.73518  0.55877  0.05090  1.0000
  H   H863      1.0  0.46729  0.51912  0.96634  1.0000
  C   C479      1.0  0.60300  0.64881  0.11770  1.0000
  C   C480      1.0  0.75767  0.51137  0.93260  1.0000
  H   H864      1.0  0.75946  0.65126  0.03281  1.0000
  C   C481      1.0  0.45826  0.65200  0.97191  1.0000
  H   H865      1.0  0.57667  0.88609  0.03745  1.0000
  H   H866      1.0  0.83040  0.74628  0.93187  1.0000
  C   C482      1.0  0.42742  0.61683  0.01133  1.0000
  H   H867      1.0  0.71826  0.74796  0.08488  1.0000
  S   S111      1.0  0.49771  0.89884  0.99061  1.0000
  H   H868      1.0  0.58020  0.97138  0.97739  1.0000
  H   H869      1.0  0.76630  0.82811  0.06874  1.0000
  H   H870      1.0  0.45117  0.98585  0.00973  1.0000
  H   H871      1.0  0.43837  0.59056  0.04013  1.0000
  C   C483      1.0  0.49365  0.95588  0.94867  1.0000
  H   H872      1.0  0.88717  0.75456  0.11569  1.0000
  H   H873      1.0  0.50168  0.69059  0.07789  1.0000
  C   C484      1.0  0.41881  0.72760  0.08268  1.0000
  C   C485      1.0  0.71059  0.77259  0.11393  1.0000
  H   H874      1.0  0.81654  0.56620  0.91808  1.0000
  C   C486      1.0  0.53299  0.52080  0.01712  1.0000
  C   C487      1.0  0.61605  0.61991  0.07359  1.0000
  H   H875      1.0  0.58107  0.76256  0.10589  1.0000
  H   H876      1.0  0.63215  0.88327  0.99746  1.0000
  C   C488      1.0  0.73389  0.80216  0.94806  1.0000
  N   N28       1.0  0.71995  0.54245  0.95152  1.0000
  H   H877      1.0  0.58716  0.59385  0.07446  1.0000
  H   H878      1.0  0.41254  0.80821  0.13784  1.0000
  C   C489      1.0  0.46878  0.99309  0.96888  1.0000
  C   C490      1.0  0.64114  0.68923  0.11498  1.0000
  H   H879      1.0  0.65879  0.95904  0.02589  1.0000
  Fe  Fe55      1.0  0.62763  0.79962  0.94238  1.0000
  H   H880      1.0  0.41658  0.77001  0.97942  1.0000
  C   C491      1.0  0.75966  0.57584  0.01306  1.0000
  C   C492      1.0  0.78371  0.62453  0.01901  1.0000
  H   H881      1.0  0.45867  0.63766  0.10421  1.0000
  H   H882      1.0  0.89540  0.81230  0.06582  1.0000
  H   H883      1.0  0.46793  0.71119  0.90309  1.0000
  H   H884      1.0  0.41720  0.83128  0.99622  1.0000
  H   H885      1.0  0.80273  0.61460  0.04808  1.0000
  H   H886      1.0  0.80754  0.64410  0.98153  1.0000
  H   H887      1.0  0.64367  0.59645  0.07838  1.0000
  C   C493      1.0  0.53761  0.51816  0.96052  1.0000
  H   H888      1.0  0.64660  0.79275  0.10861  1.0000
  H   H889      1.0  0.73388  0.60364  0.12681  1.0000
  C   C494      1.0  0.65994  0.77024  0.13907  1.0000
  Fe  Fe56      1.0  0.54061  0.84698  0.94901  1.0000
  H   H890      1.0  0.66020  0.53109  0.01603  1.0000
  C   C495      1.0  0.73011  0.82758  0.08632  1.0000
  C   C496      1.0  0.73569  0.58823  0.96949  1.0000
  C   C497      1.0  0.80783  0.77500  0.92634  1.0000
  C   C498      1.0  0.44400  0.68542  0.93451  1.0000
  H   H891      1.0  0.43716  0.91258  0.08675  1.0000
  H   H892      1.0  0.53762  0.83155  0.13514  1.0000
  S   S112      1.0  0.60967  0.87202  0.89838  1.0000
  H   H893      1.0  0.53157  0.00250  0.03558  1.0000
  C   C499      1.0  0.56340  0.75714  0.14779  1.0000
  C   C500      1.0  0.74362  0.58986  0.16187  1.0000
  H   H894      1.0  0.82657  0.92767  0.29788  1.0000
  H   H895      1.0  0.64099  0.63451  0.30597  1.0000
  C   C501      1.0  0.61251  0.89583  0.37433  1.0000
  C   C502      1.0  0.77403  0.62038  0.17595  1.0000
  H   H896      1.0  0.61177  0.93788  0.27498  1.0000
  S   S113      1.0  0.43782  0.84193  0.22551  1.0000
  H   H897      1.0  0.54323  0.54587  0.22202  1.0000
  H   H898      1.0  0.75416  0.95450  0.30222  1.0000
  C   C503      1.0  0.72408  0.54253  0.19456  1.0000
  H   H899      1.0  0.76557  0.89036  0.38395  1.0000
  H   H900      1.0  0.56361  0.96427  0.30605  1.0000
  H   H901      1.0  0.58818  0.83706  0.26050  1.0000
  H   H902      1.0  0.88271  0.93400  0.30166  1.0000
  H   H903      1.0  0.61579  0.96122  0.18116  1.0000
  C   C504      1.0  0.45499  0.89689  0.24481  1.0000
  H   H904      1.0  0.52994  0.55225  0.31493  1.0000
  S   S114      1.0  0.79074  0.68675  0.38504  1.0000
  H   H905      1.0  0.61830  0.68957  0.38504  1.0000
  H   H906      1.0  0.69058  0.68642  0.18487  1.0000
  H   H907      1.0  0.80802  0.62711  0.23407  1.0000
  H   H908      1.0  0.59810  0.63082  0.24386  1.0000
  S   S115      1.0  0.79577  0.81925  0.17263  1.0000
  N   N29       1.0  0.63524  0.71708  0.15933  1.0000
  H   H909      1.0  0.58462  0.73946  0.21930  1.0000
  H   H910      1.0  0.65249  0.71252  0.23183  1.0000
  C   C505      1.0  0.64521  0.76134  0.33118  1.0000
  C   C506      1.0  0.61157  0.72187  0.35824  1.0000
  H   H911      1.0  0.65508  0.79206  0.17089  1.0000
  S   S116      1.0  0.68077  0.84722  0.25576  1.0000
  S   S117      1.0  0.78967  0.81660  0.29487  1.0000
  H   H912      1.0  0.39696  0.90078  0.14930  1.0000
  H   H913      1.0  0.46360  0.85609  0.31740  1.0000
  H   H914      1.0  0.47791  0.58740  0.26326  1.0000
  C   C507      1.0  0.65471  0.68963  0.20113  1.0000
  Fe  Fe57      1.0  0.74261  0.80685  0.24797  1.0000
  H   H915      1.0  0.45162  0.94851  0.17466  1.0000
  H   H916      1.0  0.52854  0.76765  0.30865  1.0000
  C   C508      1.0  0.83649  0.88946  0.37197  1.0000
  C   C509      1.0  0.47421  0.93795  0.30937  1.0000
  C   C510      1.0  0.73526  0.52557  0.24115  1.0000
  C   C511      1.0  0.51153  0.51770  0.17005  1.0000
  C   C512      1.0  0.56972  0.72351  0.34935  1.0000
  H   H917      1.0  0.87585  0.57459  0.17911  1.0000
  Fe  Fe58      1.0  0.79793  0.73360  0.19182  1.0000
  C   C513      1.0  0.83173  0.64527  0.39247  1.0000
  Fe  Fe59      1.0  0.79379  0.73163  0.30524  1.0000
  H   H918      1.0  0.87035  0.50505  0.28039  1.0000
  C   C514      1.0  0.43576  0.53774  0.17772  1.0000
  C   C515      1.0  0.59057  0.98735  0.19418  1.0000
  C   C516      1.0  0.55490  0.80945  0.16182  1.0000
  C   C517      1.0  0.58742  0.72361  0.18381  1.0000
  H   H919      1.0  0.69016  0.61969  0.26191  1.0000
  C   C518      1.0  0.47486  0.98645  0.27801  1.0000
  H   H920      1.0  0.69512  0.98197  0.36988  1.0000
  C   C519      1.0  0.75189  0.99571  0.30361  1.0000
  C   C520      1.0  0.78513  0.60333  0.22254  1.0000
  S   S118      1.0  0.47244  0.70394  0.26230  1.0000
  H   H921      1.0  0.69976  0.51971  0.18424  1.0000
  H   H922      1.0  0.67963  0.95078  0.29026  1.0000
  H   H923      1.0  0.59285  0.88158  0.35050  1.0000
  H   H924      1.0  0.53332  0.80427  0.20223  1.0000
  H   H925      1.0  0.77447  0.54300  0.29111  1.0000
  Fe  Fe60      1.0  0.84324  0.82214  0.22117  1.0000
  C   C521      1.0  0.60714  0.95342  0.37456  1.0000
  C   C522      1.0  0.56093  0.76584  0.31528  1.0000
  H   H926      1.0  0.57358  0.58015  0.36831  1.0000
  C   C523      1.0  0.43767  0.56411  0.21687  1.0000
  H   H927      1.0  0.64350  0.60815  0.20041  1.0000
  C   C524      1.0  0.84757  0.93326  0.32384  1.0000
  H   H928      1.0  0.49405  0.55674  0.37686  1.0000
  H   H929      1.0  0.53058  0.73675  0.15238  1.0000
  H   H930      1.0  0.87225  0.66659  0.31319  1.0000
  H   H931      1.0  0.64777  0.88962  0.35898  1.0000
  H   H932      1.0  0.58631  0.83213  0.15871  1.0000
  Fe  Fe61      1.0  0.42908  0.76593  0.28220  1.0000
  C   C525      1.0  0.59962  0.97395  0.28603  1.0000
  H   H933      1.0  0.64334  0.57222  0.28875  1.0000
  C   C526      1.0  0.45786  0.94537  0.21230  1.0000
  C   C527      1.0  0.63712  0.80219  0.29500  1.0000
  C   C528      1.0  0.65342  0.61401  0.27404  1.0000
  H   H934      1.0  0.57118  0.95664  0.39143  1.0000
  C   C529      1.0  0.47639  0.56700  0.23301  1.0000
  S   S119      1.0  0.41210  0.62927  0.37034  1.0000
  Fe  Fe62      1.0  0.47123  0.68710  0.34672  1.0000
  C   C530      1.0  0.46430  0.89324  0.29280  1.0000
  H   H935      1.0  0.58709  0.51796  0.35714  1.0000
  S   S120      1.0  0.74177  0.72097  0.26432  1.0000
  Fe  Fe63      1.0  0.40942  0.65158  0.28778  1.0000
  C   C531      1.0  0.47282  0.51506  0.15392  1.0000
  H   H936      1.0  0.41524  0.68921  0.16336  1.0000
  N   N30       1.0  0.62372  0.99063  0.32252  1.0000
  C   C532      1.0  0.51321  0.54333  0.20989  1.0000
  C   C533      1.0  0.63462  0.63391  0.22824  1.0000
  C   C534      1.0  0.76620  0.55569  0.25478  1.0000
  C   C535      1.0  0.56102  0.53890  0.37787  1.0000
  H   H937      1.0  0.59351  0.62026  0.15503  1.0000
  H   H938      1.0  0.48183  0.93465  0.34615  1.0000
  S   S121      1.0  0.52918  0.67161  0.37883  1.0000
  H   H939      1.0  0.56719  0.68594  0.19905  1.0000
  C   C536      1.0  0.52040  0.53512  0.35724  1.0000
  S   S122      1.0  0.85003  0.73735  0.23392  1.0000
  C   C537      1.0  0.59465  0.80525  0.28811  1.0000
  C   C538      1.0  0.86849  0.64270  0.35111  1.0000
  H   H940      1.0  0.88235  0.59616  0.25906  1.0000
  H   H941      1.0  0.40589  0.53573  0.16507  1.0000
  H   H942      1.0  0.67756  0.75986  0.33800  1.0000
  H   H943      1.0  0.55775  0.96454  0.21077  1.0000
  H   H944      1.0  0.84313  0.97088  0.33528  1.0000
  C   C539      1.0  0.46791  0.99006  0.22881  1.0000
  H   H945      1.0  0.87747  0.79618  0.29571  1.0000
  C   C540      1.0  0.67265  0.98935  0.29855  1.0000
  S   S123      1.0  0.43235  0.75256  0.36495  1.0000
  H   H946      1.0  0.83934  0.85273  0.35885  1.0000
  H   H947      1.0  0.87132  0.50431  0.14881  1.0000
  H   H948      1.0  0.86213  0.89449  0.39250  1.0000
  H   H949      1.0  0.72751  0.76951  0.39585  1.0000
  H   H950      1.0  0.54392  0.82556  0.62311  1.0000
  H   H951      1.0  0.62360  0.96324  0.40333  1.0000
  Fe  Fe64      1.0  0.47252  0.98960  0.48853  1.0000
  C   C541      1.0  0.62968  0.78996  0.63471  1.0000
  S   S124      1.0  0.83854  0.99292  0.45908  1.0000
  C   C542      1.0  0.81081  0.84443  0.48537  1.0000
  H   H952      1.0  0.67559  0.53388  0.46521  1.0000
  H   H953      1.0  0.79611  0.83200  0.52809  1.0000
  C   C543      1.0  0.48583  0.60240  0.54254  1.0000
  C   C544      1.0  0.82188  0.62470  0.59113  1.0000
  H   H954      1.0  0.76605  0.50797  0.47421  1.0000
  H   H955      1.0  0.85688  0.80696  0.42917  1.0000
  C   C545      1.0  0.86878  0.63258  0.55470  1.0000
  C   C546      1.0  0.68638  0.61614  0.44119  1.0000
  H   H956      1.0  0.87751  0.81226  0.53242  1.0000
  H   H957      1.0  0.78105  0.73692  0.61755  1.0000
  C   C547      1.0  0.72047  0.79265  0.42635  1.0000
  H   H958      1.0  0.44555  0.50653  0.46724  1.0000
  C   C548      1.0  0.69998  0.91802  0.55818  1.0000
  C   C549      1.0  0.74029  0.91338  0.51428  1.0000
  H   H959      1.0  0.55357  0.53300  0.53149  1.0000
  C   C550      1.0  0.46942  0.59803  0.60153  1.0000
  C   C551      1.0  0.60516  0.98466  0.51427  1.0000
  C   C552      1.0  0.59579  0.86249  0.42925  1.0000
  H   H960      1.0  0.41894  0.70150  0.48425  1.0000
  H   H961      1.0  0.78944  0.92938  0.41672  1.0000
  C   C553      1.0  0.50313  0.76758  0.60702  1.0000
  H   H962      1.0  0.71112  0.82965  0.40761  1.0000
  H   H963      1.0  0.63159  0.57169  0.40067  1.0000
  H   H964      1.0  0.40398  0.53157  0.51337  1.0000
  C   C554      1.0  0.42037  0.57449  0.62511  1.0000
  H   H965      1.0  0.44459  0.84531  0.56919  1.0000
  H   H966      1.0  0.72162  0.72236  0.64391  1.0000
  H   H967      1.0  0.80773  0.66201  0.59191  1.0000
  H   H968      1.0  0.86665  0.64858  0.51469  1.0000
  C   C555      1.0  0.42299  0.85770  0.60303  1.0000
  H   H969      1.0  0.57212  0.76432  0.56512  1.0000
  H   H970      1.0  0.80028  0.59959  0.57744  1.0000
  C   C556      1.0  0.84547  0.80564  0.47140  1.0000
  H   H971      1.0  0.74381  0.76328  0.58107  1.0000
  C   C557      1.0  0.41124  0.69738  0.56697  1.0000
  N   N31       1.0  0.77492  0.84940  0.45713  1.0000
  S   S125      1.0  0.58831  0.55949  0.61961  1.0000
  C   C558      1.0  0.73412  0.86418  0.49290  1.0000
  H   H972      1.0  0.65269  0.75682  0.45173  1.0000
  H   H973      1.0  0.72037  0.83173  0.52698  1.0000
  H   H974      1.0  0.56026  0.86683  0.44622  1.0000
  H   H975      1.0  0.40979  0.84481  0.41969  1.0000
  H   H976      1.0  0.69782  0.88794  0.59323  1.0000
  C   C559      1.0  0.65557  0.56703  0.46812  1.0000
  S   S126      1.0  0.52371  0.94486  0.51487  1.0000
  H   H977      1.0  0.79912  0.61622  0.47376  1.0000
  H   H978      1.0  0.42967  0.76216  0.50103  1.0000
  H   H979      1.0  0.42997  0.89982  0.59779  1.0000
  H   H980      1.0  0.44648  0.69276  0.56402  1.0000
  C   C560      1.0  0.54922  0.51770  0.43735  1.0000
  H   H981      1.0  0.83066  0.76570  0.49073  1.0000
  C   C561      1.0  0.68026  0.76347  0.46906  1.0000
  H   H982      1.0  0.53680  0.78673  0.52393  1.0000
  H   H983      1.0  0.48633  0.91674  0.62521  1.0000
  H   H984      1.0  0.76948  0.91381  0.53000  1.0000
  H   H985      1.0  0.51312  0.85049  0.58003  1.0000
  C   C562      1.0  0.56009  0.99118  0.52373  1.0000
  H   H986      1.0  0.63591  0.80371  0.59317  1.0000
  H   H987      1.0  0.64314  0.56874  0.50972  1.0000
  H   H988      1.0  0.55865  0.90482  0.63577  1.0000
  H   H989      1.0  0.77620  0.82690  0.62318  1.0000
  H   H990      1.0  0.70218  0.61571  0.39972  1.0000
  H   H991      1.0  0.82212  0.60576  0.63114  1.0000
  H   H992      1.0  0.66898  0.91411  0.54633  1.0000
  C   C563      1.0  0.79034  0.00216  0.60697  1.0000
  C   C564      1.0  0.78941  0.89066  0.40769  1.0000
  H   H993      1.0  0.79050  0.78867  0.41489  1.0000
  H   H994      1.0  0.85673  0.55905  0.48806  1.0000
  H   H995      1.0  0.53292  0.71955  0.55397  1.0000
  S   S127      1.0  0.64193  0.69547  0.61206  1.0000
  C   C565      1.0  0.61643  0.56276  0.44355  1.0000
  H   H996      1.0  0.61541  0.87333  0.45485  1.0000
  H   H997      1.0  0.46706  0.62816  0.52089  1.0000
  C   C566      1.0  0.53848  0.75927  0.55958  1.0000
  H   H998      1.0  0.70309  0.95612  0.56849  1.0000
  C   C567      1.0  0.82746  0.61455  0.44168  1.0000
  N   N32       1.0  0.58814  0.51165  0.46023  1.0000
  C   C568      1.0  0.89208  0.95810  0.51961  1.0000
  H   H999      1.0  0.41315  0.55011  0.59898  1.0000
  C   C569      1.0  0.51041  0.82234  0.61672  1.0000
  H   H1000     1.0  0.47052  0.76149  0.59959  1.0000
  H   H1001     1.0  0.52130  0.61798  0.52839  1.0000
  H   H1002     1.0  0.47703  0.63501  0.61139  1.0000
  H   H1003     1.0  0.88158  0.59438  0.55531  1.0000
  C   C570      1.0  0.40810  0.72523  0.51375  1.0000
  H   H1004     1.0  0.66834  0.78522  0.49990  1.0000
  H   H1005     1.0  0.75953  0.76665  0.48019  1.0000
  H   H1006     1.0  0.59901  0.82145  0.42760  1.0000
  H   H1007     1.0  0.68852  0.72530  0.48701  1.0000
  H   H1008     1.0  0.39977  0.72300  0.59437  1.0000
  C   C571      1.0  0.76294  0.79820  0.44547  1.0000
  S   S128      1.0  0.43717  0.95608  0.43960  1.0000
  H   H1009     1.0  0.89241  0.71000  0.55418  1.0000
  H   H1010     1.0  0.66791  0.65061  0.44331  1.0000
  H   H1011     1.0  0.82887  0.88280  0.48005  1.0000
  H   H1012     1.0  0.74409  0.94837  0.48320  1.0000
  H   H1013     1.0  0.70758  0.87113  0.47286  1.0000
  C   C572      1.0  0.85993  0.58206  0.44978  1.0000
  H   H1014     1.0  0.59558  0.59459  0.45196  1.0000
  H   H1015     1.0  0.52730  0.54468  0.45550  1.0000
  H   H1016     1.0  0.71298  0.61895  0.46092  1.0000
  H   H1017     1.0  0.48264  0.56389  0.53332  1.0000
  H   H1018     1.0  0.61704  0.94970  0.50377  1.0000
  C   C573      1.0  0.88656  0.81594  0.48955  1.0000
  H   H1019     1.0  0.87271  0.92139  0.52800  1.0000
  H   H1020     1.0  0.50492  0.73785  0.64099  1.0000
  H   H1021     1.0  0.78369  0.96048  0.62464  1.0000
  C   C574      1.0  0.74854  0.75263  0.62056  1.0000
  H   H1022     1.0  0.49042  0.57149  0.61902  1.0000
  C   C575      1.0  0.88203  0.00052  0.48694  1.0000
  H   H1023     1.0  0.89015  0.66634  0.61199  1.0000
  C   C576      1.0  0.74698  0.79935  0.64556  1.0000
  H   H1024     1.0  0.71661  0.81755  0.64196  1.0000
