data_image0
_chemical_formula_structural       CHCSHCH2CH6CHCHSH5CHCHCNHC2HCH6C2SCH2CH2FeHSHSCH2CFeCHCHSCSCHSH5CHC3HFeH3FeH2CHFeCHCH3SCHCHCHCH2FeCHC2H2SCHCHCH3CH2C2HFeH2C2H2NCH2C2HC3SH2C2H3NH3CH5C3H2C2H5C2HCH7CH3C2H4C3H6CH2NH2CHCSCHSH3CH6CHCH4CHCH4CH3FeCSH2CSCH3SCNCHSHCFe2SHFeHCH4FeCH2CFeSC2HFeCFeH4FeHC2H2CSCHC3H3S2C2SH2CH2CH2SHCSHC3HSCH3CH3CH4FeH7CH3FeHFeCH2CHC2H3C3H4C7H2SC2HCHCS2CH6NHCSHCH8FeH2C2SHC2H2CHC2HSHCH2CH4CH4C2H4CH2C2H2C2HSH2SH3CHC2FeH3C3H3C2H4C3FeNHCH3C3SCH2CH2CH4CH2SH2CH4SHC3HCH2NCH3C2H2SH2CH5SCHSCHCHFeHC2H3NCHCHCH4CH2CH4CHCHCH4C2HFeHC3H3NHSCHSH4S2HCH2FeC2H3C2H4FeH2C2H2CSCFeSHCSH5CH2SCFeC2SHCH15CHC3HCH2CH2CHCHSCH2CHNSCH5CH4CH2NSCH2CH3C2H2CHSC4H6CHCH7CH4CHCHCHC3HCHCNCHCSCHCHCH6CH3C3HC3HCSCH2FeH2CH3NHFeCH12CFeC2HC2HCH3SCH4CHCSH3CH2FeHNHC3HCH2FeHCH2C2SC2HSH2SC2HCHSCH3FeHSHCHC2H3CH2C2SCHCH6CHC2HCH2CH6CNCH4C2HCSHCHNHC3HSCHCHCHC2HCHSH3SCHSHCHC3H2CH2SH3NH4CH3CH2C2H2C2FeHCHNH3CHC2H13C3H3CH3CH2CH2CH4SCH6FeCH2CHC3H2CSH2C2HSC4H2CSH4NHCSC2FeCH3NC2SH3CSH2CFeCH5SFeH3CFeH2C2HCSH6FeC2HC2H2SH3CHCHCHCH3SHCH4C2HCH4CHNHFeCHCH7CHCHCH3CSH2SH3C2HC2HCHCH2C2H3CH2SC2H6CHCH2C2H3C3H3NH5NH2C3H7SCH4SH2FeHC3HCSHNCH3SHFeC4H4SCHC3SC3FeC2H3SC2FeHC2H4SC3H4CH2FeH5SH3CH4CH2CH4C2H2FeHC2HCHFeH3C3H11SH7CHSH3SHCH2CH2CHCHCH2CFeSCH2C3HCNHCH4C4H3CHC5HSH6CH2CHCH3C2HC2SNHCH2CH5CH6FeCHC3HC3H2CHCSHS2CSH3CSC2HNC4H2CHCH3C3H2CH2C2HCHCSFeH3SH5C3H5CFeH3CH3SHS2H3C2HCH7C2HCFeHCHCFeHSH2CH2CH3NCH5CH2C3H5CH2CH2CHCH2SH2CS2FeSHC2H4CHSC2H2FeCHCHC2SH4C2H3CHCHCH4C3HSNHCH3CH4NHC4HCSH4FeC2HC4HCH4C2SHC5HFeH3CSH3C2HSCFeHSHFeH2CHCFeHCHS2HCHCH2CHCSHC2HCH7SH2CSH2CFeSH2CNSH2Fe
_chemical_formula_sum              "C576 H1024 S128 N32 Fe64"
_cell_length_a       27.6166
_cell_length_b       28.695
_cell_length_c       26.767
_cell_angle_alpha    96.7337
_cell_angle_beta     85.336
_cell_angle_gamma    89.8732

_space_group_name_H-M_alt    "P 1"
_space_group_IT_number       1

loop_
  _space_group_symop_operation_xyz
  'x, y, z'

loop_
  _atom_site_type_symbol
  _atom_site_label
  _atom_site_symmetry_multiplicity
  _atom_site_fract_x
  _atom_site_fract_y
  _atom_site_fract_z
  _atom_site_occupancy
  C   C1        1.0  0.27068  0.24155  0.84078  1.0000
  H   H1        1.0  0.48676  0.57169  0.70026  1.0000
  C   C2        1.0  0.35774  0.25416  0.71928  1.0000
  S   S1        1.0  0.18330  0.27571  0.68913  1.0000
  H   H2        1.0  0.30011  0.24692  0.66803  1.0000
  C   C3        1.0  0.21884  0.42134  0.74458  1.0000
  H   H3        1.0  0.12264  0.66878  0.68957  1.0000
  H   H4        1.0  0.43564  0.63074  0.65349  1.0000
  C   C4        1.0  0.14112  0.56341  0.79831  1.0000
  H   H5        1.0  0.11210  0.62193  0.72775  1.0000
  H   H6        1.0  0.31856  0.59519  0.70352  1.0000
  H   H7        1.0  0.10094  0.56717  0.80206  1.0000
  H   H8        1.0  0.41880  0.42792  0.86832  1.0000
  H   H9        1.0  0.27175  0.69482  0.71685  1.0000
  H   H10       1.0  0.22112  0.47751  0.69788  1.0000
  C   C5        1.0  0.15658  0.51985  0.82073  1.0000
  H   H11       1.0  0.43608  0.39040  0.81081  1.0000
  C   C6        1.0  0.24595  0.39219  0.77039  1.0000
  H   H12       1.0  0.44122  0.25552  0.76442  1.0000
  S   S2        1.0  0.09326  0.34459  0.74185  1.0000
  H   H13       1.0  0.19663  0.51621  0.81333  1.0000
  H   H14       1.0  0.09420  0.48095  0.70307  1.0000
  H   H15       1.0  0.22005  0.54739  0.65262  1.0000
  H   H16       1.0  0.39842  0.58393  0.66812  1.0000
  H   H17       1.0  0.25209  0.33166  0.64281  1.0000
  C   C7        1.0  0.29308  0.45646  0.71213  1.0000
  H   H18       1.0  0.15492  0.54882  0.65030  1.0000
  C   C8        1.0  0.46331  0.59994  0.86330  1.0000
  H   H19       1.0  0.08205  0.62201  0.67026  1.0000
  C   C9        1.0  0.32183  0.63381  0.71288  1.0000
  N   N1        1.0  0.36306  0.65231  0.68074  1.0000
  H   H20       1.0  0.06702  0.69752  0.76223  1.0000
  C   C10       1.0  0.29668  0.39517  0.76716  1.0000
  C   C11       1.0  0.04881  0.48149  0.64135  1.0000
  H   H21       1.0  0.49582  0.60037  0.76193  1.0000
  C   C12       1.0  0.14125  0.52366  0.87818  1.0000
  H   H22       1.0  0.30723  0.25762  0.83992  1.0000
  H   H23       1.0  0.25826  0.64684  0.67124  1.0000
  H   H24       1.0  0.13017  0.40277  0.67227  1.0000
  H   H25       1.0  0.31775  0.37275  0.78725  1.0000
  H   H26       1.0  0.37464  0.70530  0.74319  1.0000
  H   H27       1.0  0.08726  0.34935  0.84906  1.0000
  C   C13       1.0  0.37313  0.70220  0.70166  1.0000
  C   C14       1.0  0.40682  0.62108  0.68118  1.0000
  S   S3        1.0  0.12253  0.25219  0.79367  1.0000
  C   C15       1.0  0.38081  0.57393  0.85311  1.0000
  H   H28       1.0  0.29930  0.47002  0.85108  1.0000
  H   H29       1.0  0.19703  0.65301  0.74239  1.0000
  C   C16       1.0  0.05240  0.67236  0.73264  1.0000
  H   H30       1.0  0.50395  0.63253  0.70834  1.0000
  H   H31       1.0  0.03338  0.61087  0.76999  1.0000
  Fe  Fe1       1.0  0.39716  0.46895  0.64727  1.0000
  H   H32       1.0  0.15358  0.55960  0.75752  1.0000
  S   S4        1.0  0.49973  0.35090  0.71460  1.0000
  H   H33       1.0  0.32982  0.63856  0.75334  1.0000
  S   S5        1.0  0.46166  0.47503  0.69312  1.0000
  C   C17       1.0  0.48189  0.60517  0.72529  1.0000
  H   H34       1.0  0.17967  0.41925  0.74719  1.0000
  H   H35       1.0  0.13953  0.48942  0.79984  1.0000
  C   C18       1.0  0.30415  0.25514  0.70909  1.0000
  Fe  Fe2       1.0  0.11307  0.30273  0.66674  1.0000
  C   C19       1.0  0.23334  0.63835  0.74724  1.0000
  H   H36       1.0  0.44390  0.52851  0.84052  1.0000
  C   C20       1.0  0.10310  0.41751  0.65158  1.0000
  H   H37       1.0  0.24689  0.26090  0.81869  1.0000
  S   S6        1.0  0.21601  0.35430  0.80922  1.0000
  C   C21       1.0  0.43064  0.56398  0.85137  1.0000
  S   S7        1.0  0.07123  0.23969  0.68643  1.0000
  C   C22       1.0  0.39661  0.65618  0.87634  1.0000
  H   H38       1.0  0.37666  0.27941  0.69641  1.0000
  S   S8        1.0  0.32207  0.49564  0.67407  1.0000
  H   H39       1.0  0.24232  0.64988  0.78640  1.0000
  H   H40       1.0  0.46187  0.44770  0.82100  1.0000
  H   H41       1.0  0.12902  0.42915  0.84218  1.0000
  H   H42       1.0  0.07677  0.66043  0.83224  1.0000
  H   H43       1.0  0.30309  0.36919  0.63566  1.0000
  C   C23       1.0  0.42831  0.61992  0.73282  1.0000
  H   H44       1.0  0.23189  0.59942  0.74147  1.0000
  C   C24       1.0  0.32031  0.42664  0.73718  1.0000
  C   C25       1.0  0.24232  0.45433  0.71669  1.0000
  C   C26       1.0  0.44948  0.41699  0.83993  1.0000
  H   H45       1.0  0.15756  0.59538  0.81730  1.0000
  Fe  Fe3       1.0  0.16096  0.31368  0.76548  1.0000
  H   H46       1.0  0.45296  0.70369  0.68505  1.0000
  H   H47       1.0  0.40792  0.59414  0.75397  1.0000
  H   H48       1.0  0.02965  0.44024  0.79352  1.0000
  Fe  Fe4       1.0  0.47729  0.40043  0.66129  1.0000
  H   H49       1.0  0.35957  0.42824  0.73403  1.0000
  H   H50       1.0  0.28329  0.22918  0.72956  1.0000
  C   C27       1.0  0.08334  0.46202  0.66847  1.0000
  H   H51       1.0  0.03568  0.69301  0.70574  1.0000
  Fe  Fe5       1.0  0.05641  0.27955  0.76296  1.0000
  C   C28       1.0  0.27109  0.65607  0.70931  1.0000
  H   H52       1.0  0.28859  0.29067  0.72190  1.0000
  C   C29       1.0  0.09480  0.64438  0.70324  1.0000
  H   H53       1.0  0.42636  0.65400  0.75687  1.0000
  H   H54       1.0  0.20889  0.45077  0.85102  1.0000
  H   H55       1.0  0.35574  0.54613  0.84322  1.0000
  S   S9        1.0  0.30140  0.63200  0.86799  1.0000
  C   C30       1.0  0.04416  0.65652  0.85842  1.0000
  H   H56       1.0  0.45518  0.26607  0.67824  1.0000
  C   C31       1.0  0.36376  0.62004  0.86569  1.0000
  H   H57       1.0  0.50260  0.26043  0.82949  1.0000
  C   C32       1.0  0.49152  0.39605  0.86421  1.0000
  H   H58       1.0  0.03743  0.61862  0.85806  1.0000
  C   C33       1.0  0.44630  0.64607  0.87590  1.0000
  H   H59       1.0  0.36051  0.26700  0.75974  1.0000
  H   H60       1.0  0.47940  0.36157  0.87516  1.0000
  Fe  Fe6       1.0  0.28617  0.70937  0.87624  1.0000
  C   C34       1.0  0.45696  0.22799  0.66449  1.0000
  H   H61       1.0  0.52212  0.39058  0.83476  1.0000
  C   C35       1.0  0.51935  0.22632  0.81275  1.0000
  C   C36       1.0  0.42017  0.72406  0.67908  1.0000
  H   H62       1.0  0.07929  0.45662  0.88016  1.0000
  H   H63       1.0  0.48194  0.47136  0.00864  1.0000
  S   S10       1.0  0.50196  0.67049  0.10213  1.0000
  C   C37       1.0  0.05691  0.67568  0.91141  1.0000
  H   H64       1.0  0.41968  0.33276  0.06589  1.0000
  C   C38       1.0  0.09853  0.25228  0.96332  1.0000
  H   H65       1.0  0.47277  0.42873  0.93858  1.0000
  C   C39       1.0  0.11198  0.39790  0.91010  1.0000
  H   H66       1.0  0.15184  0.46225  0.97900  1.0000
  H   H67       1.0  0.50522  0.42222  0.03549  1.0000
  H   H68       1.0  0.08903  0.65653  0.92147  1.0000
  C   C40       1.0  0.24164  0.49822  0.90692  1.0000
  H   H69       1.0  0.40075  0.69548  0.07150  1.0000
  H   H70       1.0  0.16165  0.52221  0.97334  1.0000
  C   C41       1.0  0.42765  0.55668  0.01179  1.0000
  C   C42       1.0  0.28109  0.62147  0.00884  1.0000
  H   H71       1.0  0.25997  0.67989  0.96824  1.0000
  Fe  Fe7       1.0  0.02837  0.65701  0.09409  1.0000
  H   H72       1.0  0.03887  0.38288  0.88666  1.0000
  H   H73       1.0  0.37742  0.42281  0.95923  1.0000
  C   C43       1.0  0.38737  0.34979  0.93075  1.0000
  C   C44       1.0  0.25879  0.42743  0.02111  1.0000
  H   H74       1.0  0.20739  0.43102  0.91082  1.0000
  H   H75       1.0  0.06033  0.47848  0.96337  1.0000
  N   N2        1.0  0.14972  0.48011  0.90293  1.0000
  C   C45       1.0  0.26194  0.27833  0.06545  1.0000
  H   H76       1.0  0.07625  0.53935  0.96740  1.0000
  H   H77       1.0  0.17100  0.27465  0.02890  1.0000
  C   C46       1.0  0.26975  0.27292  0.00697  1.0000
  C   C47       1.0  0.34319  0.68288  0.01783  1.0000
  H   H78       1.0  0.22976  0.25818  0.07748  1.0000
  C   C48       1.0  0.51469  0.45649  0.02222  1.0000
  C   C49       1.0  0.07973  0.50780  0.03604  1.0000
  C   C50       1.0  0.26988  0.37654  0.99976  1.0000
  S   S11       1.0  0.39575  0.43082  0.06279  1.0000
  H   H79       1.0  0.06564  0.71359  0.91317  1.0000
  H   H80       1.0  0.17761  0.65411  0.95291  1.0000
  C   C51       1.0  0.39904  0.30502  0.94203  1.0000
  C   C52       1.0  0.41076  0.29882  0.99079  1.0000
  H   H81       1.0  0.44430  0.53709  0.97627  1.0000
  H   H82       1.0  0.09611  0.70324  0.01390  1.0000
  H   H83       1.0  0.34545  0.67488  0.97597  1.0000
  N   N3        1.0  0.23145  0.29524  0.97989  1.0000
  H   H84       1.0  0.29265  0.44820  0.01875  1.0000
  H   H85       1.0  0.37783  0.35453  0.89322  1.0000
  H   H86       1.0  0.20499  0.35021  0.03864  1.0000
  C   C53       1.0  0.20149  0.46274  0.89179  1.0000
  H   H87       1.0  0.09999  0.53805  0.05357  1.0000
  H   H88       1.0  0.19013  0.23122  0.97903  1.0000
  H   H89       1.0  0.28654  0.30470  0.91962  1.0000
  H   H90       1.0  0.26447  0.68863  0.08739  1.0000
  H   H91       1.0  0.32049  0.71545  0.02632  1.0000
  C   C54       1.0  0.08637  0.50472  0.97849  1.0000
  C   C55       1.0  0.39608  0.69459  0.03089  1.0000
  C   C56       1.0  0.24839  0.24207  0.89498  1.0000
  H   H92       1.0  0.50419  0.27496  0.93769  1.0000
  H   H93       1.0  0.27231  0.23451  0.99489  1.0000
  C   C57       1.0  0.29221  0.47648  0.89279  1.0000
  C   C58       1.0  0.24258  0.65550  0.99331  1.0000
  H   H94       1.0  0.30644  0.28628  0.99614  1.0000
  H   H95       1.0  0.23863  0.50913  0.94817  1.0000
  H   H96       1.0  0.18206  0.60705  0.99125  1.0000
  H   H97       1.0  0.49670  0.49405  0.09669  1.0000
  H   H98       1.0  0.32013  0.50086  0.90780  1.0000
  C   C59       1.0  0.22349  0.34630  0.99978  1.0000
  C   C60       1.0  0.18431  0.26976  0.98822  1.0000
  H   H99       1.0  0.35595  0.54980  0.98655  1.0000
  C   C61       1.0  0.13595  0.70291  0.07977  1.0000
  H   H100      1.0  0.16020  0.55420  0.89691  1.0000
  H   H101      1.0  0.38692  0.60182  0.97182  1.0000
  H   H102      1.0  0.15251  0.28562  0.91834  1.0000
  H   H103      1.0  0.33771  0.71796  0.12201  1.0000
  H   H104      1.0  0.25654  0.31543  0.08184  1.0000
  H   H105      1.0  0.29686  0.36305  0.02314  1.0000
  H   H106      1.0  0.19816  0.36291  0.97671  1.0000
  C   C62       1.0  0.50532  0.42827  0.91143  1.0000
  H   H107      1.0  0.22689  0.31543  0.90448  1.0000
  H   H108      1.0  0.38181  0.61901  0.07544  1.0000
  H   H109      1.0  0.50483  0.36174  0.96697  1.0000
  C   C63       1.0  0.30578  0.25956  0.08862  1.0000
  C   C64       1.0  0.07418  0.36455  0.88773  1.0000
  H   H110      1.0  0.27051  0.63252  0.10809  1.0000
  H   H111      1.0  0.10038  0.40659  0.95073  1.0000
  H   H112      1.0  0.42193  0.66763  0.01093  1.0000
  H   H113      1.0  0.07139  0.25990  0.93690  1.0000
  C   C65       1.0  0.13976  0.49172  0.95923  1.0000
  C   C66       1.0  0.24860  0.29187  0.92447  1.0000
  C   C67       1.0  0.20307  0.62879  0.96562  1.0000
  H   H114      1.0  0.26168  0.59300  0.02703  1.0000
  H   H115      1.0  0.38400  0.69197  0.88461  1.0000
  H   H116      1.0  0.06779  0.33537  0.91100  1.0000
  H   H117      1.0  0.08050  0.25734  0.00221  1.0000
  H   H118      1.0  0.12897  0.32097  0.97495  1.0000
  H   H119      1.0  0.21929  0.60624  0.93203  1.0000
  C   C68       1.0  0.29144  0.66146  0.09238  1.0000
  H   H120      1.0  0.23160  0.44302  0.99964  1.0000
  H   H121      1.0  0.41978  0.26435  0.99979  1.0000
  N   N4        1.0  0.31848  0.64343  0.04244  1.0000
  H   H122      1.0  0.29881  0.60434  0.97250  1.0000
  H   H123      1.0  0.10204  0.53372  0.88337  1.0000
  C   C69       1.0  0.37949  0.57856  0.00176  1.0000
  H   H124      1.0  0.24493  0.42943  0.06125  1.0000
  C   C70       1.0  0.39860  0.38220  0.01673  1.0000
  S   S12       1.0  0.10892  0.65189  0.09811  1.0000
  C   C71       1.0  0.14176  0.28519  0.95905  1.0000
  H   H125      1.0  0.29587  0.44282  0.90887  1.0000
  S   S13       1.0  0.39820  0.25781  0.89431  1.0000
  H   H126      1.0  0.22365  0.67685  0.02578  1.0000
  H   H127      1.0  0.04065  0.51254  0.04891  1.0000
  H   H128      1.0  0.45336  0.58429  0.02507  1.0000
  C   C72       1.0  0.35355  0.60517  0.05065  1.0000
  H   H129      1.0  0.14723  0.37871  0.90664  1.0000
  H   H130      1.0  0.50874  0.46488  0.90153  1.0000
  H   H131      1.0  0.42162  0.53214  0.04080  1.0000
  H   H132      1.0  0.33443  0.57832  0.07169  1.0000
  H   H133      1.0  0.28652  0.37666  0.96071  1.0000
  H   H134      1.0  0.33801  0.28170  0.08177  1.0000
  C   C73       1.0  0.38711  0.38830  0.96801  1.0000
  H   H135      1.0  0.09231  0.47499  0.04951  1.0000
  C   C74       1.0  0.41088  0.33755  0.02814  1.0000
  H   H136      1.0  0.46490  0.22522  0.11850  1.0000
  H   H137      1.0  0.21093  0.22865  0.89319  1.0000
  H   H138      1.0  0.23958  0.53002  0.88728  1.0000
  H   H139      1.0  0.47160  0.67416  0.88362  1.0000
  C   C75       1.0  0.11650  0.44221  0.88199  1.0000
  H   H140      1.0  0.02600  0.67112  0.93964  1.0000
  C   C76       1.0  0.12362  0.72039  0.03582  1.0000
  H   H141      1.0  0.29764  0.26031  0.13005  1.0000
  H   H142      1.0  0.17342  0.60605  0.30196  1.0000
  H   H143      1.0  0.23701  0.32222  0.21716  1.0000
  H   H144      1.0  0.09416  0.65407  0.21258  1.0000
  C   C77       1.0  0.18402  0.49867  0.32951  1.0000
  H   H145      1.0  0.16686  0.49025  0.22922  1.0000
  H   H146      1.0  0.36588  0.30290  0.35035  1.0000
  H   H147      1.0  0.13558  0.55910  0.28054  1.0000
  Fe  Fe8       1.0  0.42411  0.41744  0.13613  1.0000
  C   C78       1.0  0.28944  0.70010  0.18263  1.0000
  S   S14       1.0  0.08320  0.33377  0.26092  1.0000
  H   H148      1.0  0.35338  0.27848  0.24746  1.0000
  H   H149      1.0  0.31378  0.52462  0.23238  1.0000
  C   C79       1.0  0.03110  0.46090  0.31612  1.0000
  S   S15       1.0  0.49556  0.28605  0.22100  1.0000
  C   C80       1.0  0.30602  0.56193  0.24603  1.0000
  H   H150      1.0  0.45849  0.49555  0.36177  1.0000
  H   H151      1.0  0.41507  0.57451  0.30940  1.0000
  H   H152      1.0  0.49913  0.70164  0.25855  1.0000
  S   S16       1.0  0.03706  0.29863  0.15329  1.0000
  C   C81       1.0  0.48828  0.56700  0.37175  1.0000
  N   N5        1.0  0.21192  0.54800  0.25671  1.0000
  C   C82       1.0  0.34403  0.59120  0.21950  1.0000
  H   H153      1.0  0.45237  0.62979  0.18503  1.0000
  S   S17       1.0  0.42016  0.67650  0.32491  1.0000
  H   H154      1.0  0.23068  0.55947  0.33405  1.0000
  C   C83       1.0  0.29742  0.38980  0.30400  1.0000
  Fe  Fe9       1.0  0.34894  0.69590  0.36781  1.0000
  Fe  Fe10      1.0  0.39409  0.42889  0.24867  1.0000
  S   S18       1.0  0.19618  0.26522  0.29084  1.0000
  H   H155      1.0  0.14304  0.58314  0.19279  1.0000
  Fe  Fe11      1.0  0.46884  0.35550  0.20573  1.0000
  H   H156      1.0  0.11320  0.66335  0.27584  1.0000
  C   C84       1.0  0.24130  0.47283  0.19910  1.0000
  H   H157      1.0  0.40722  0.71950  0.22717  1.0000
  H   H158      1.0  0.35044  0.66162  0.14314  1.0000
  H   H159      1.0  0.29323  0.38893  0.22416  1.0000
  H   H160      1.0  0.24969  0.61411  0.25565  1.0000
  Fe  Fe12      1.0  0.09268  0.34990  0.18102  1.0000
  C   C85       1.0  0.50116  0.57647  0.20262  1.0000
  H   H161      1.0  0.26912  0.48852  0.17396  1.0000
  H   H162      1.0  0.24499  0.30922  0.37438  1.0000
  C   C86       1.0  0.52053  0.62896  0.13957  1.0000
  Fe  Fe13      1.0  0.49571  0.45743  0.21004  1.0000
  S   S19       1.0  0.09975  0.42377  0.16214  1.0000
  C   C87       1.0  0.04787  0.50625  0.29586  1.0000
  C   C88       1.0  0.41229  0.54287  0.32956  1.0000
  H   H163      1.0  0.30590  0.23989  0.22454  1.0000
  Fe  Fe14      1.0  0.14064  0.27859  0.23807  1.0000
  C   C89       1.0  0.25398  0.32777  0.34199  1.0000
  Fe  Fe15      1.0  0.24718  0.72334  0.34598  1.0000
  H   H164      1.0  0.06244  0.44596  0.33270  1.0000
  H   H165      1.0  0.18034  0.71225  0.14270  1.0000
  H   H166      1.0  0.05877  0.53217  0.32698  1.0000
  H   H167      1.0  0.25721  0.50821  0.30009  1.0000
  Fe  Fe16      1.0  0.03193  0.27877  0.23219  1.0000
  H   H168      1.0  0.08573  0.51987  0.15184  1.0000
  C   C90       1.0  0.22234  0.42913  0.16905  1.0000
  C   C91       1.0  0.33342  0.24557  0.25261  1.0000
  H   H169      1.0  0.19084  0.52323  0.18200  1.0000
  H   H170      1.0  0.38821  0.55087  0.36478  1.0000
  C   C92       1.0  0.28129  0.37283  0.25729  1.0000
  S   S20       1.0  0.15511  0.29937  0.16030  1.0000
  C   C93       1.0  0.20015  0.50898  0.21684  1.0000
  H   H171      1.0  0.38096  0.57993  0.22695  1.0000
  C   C94       1.0  0.28440  0.36681  0.34614  1.0000
  C   C95       1.0  0.22335  0.52958  0.30521  1.0000
  C   C96       1.0  0.04658  0.45806  0.16869  1.0000
  H   H172      1.0  0.25876  0.46143  0.23127  1.0000
  H   H173      1.0  0.25321  0.40626  0.15179  1.0000
  H   H174      1.0  0.47558  0.56392  0.23055  1.0000
  S   S21       1.0  0.39236  0.36800  0.18845  1.0000
  S   S22       1.0  0.46867  0.41289  0.26923  1.0000
  C   C97       1.0  0.24944  0.33502  0.25335  1.0000
  C   C98       1.0  0.16764  0.57959  0.26907  1.0000
  S   S23       1.0  0.33357  0.43982  0.30972  1.0000
  H   H175      1.0  0.18058  0.63138  0.21436  1.0000
  H   H176      1.0  0.31213  0.71412  0.21325  1.0000
  C   C99       1.0  0.48812  0.61386  0.17704  1.0000
  H   H177      1.0  0.19898  0.40887  0.19433  1.0000
  H   H178      1.0  0.34127  0.58618  0.17808  1.0000
  C   C100      1.0  0.25346  0.57723  0.23738  1.0000
  H   H179      1.0  0.17662  0.46707  0.30331  1.0000
  H   H180      1.0  0.33958  0.62893  0.23414  1.0000
  S   S24       1.0  0.50110  0.39847  0.14708  1.0000
  H   H181      1.0  0.08899  0.62677  0.37249  1.0000
  C   C101      1.0  0.10594  0.63627  0.24422  1.0000
  S   S25       1.0  0.42075  0.47957  0.19534  1.0000
  H   H182      1.0  0.25176  0.57949  0.19629  1.0000
  C   C102      1.0  0.05046  0.50520  0.16077  1.0000
  C   C103      1.0  0.20062  0.48157  0.37734  1.0000
  C   C104      1.0  0.23553  0.31269  0.29582  1.0000
  H   H183      1.0  0.48313  0.51664  0.30393  1.0000
  S   S26       1.0  0.28300  0.65430  0.34974  1.0000
  C   C105      1.0  0.32160  0.68534  0.13404  1.0000
  H   H184      1.0  0.39564  0.51493  0.30481  1.0000
  H   H185      1.0  0.31175  0.56694  0.28688  1.0000
  H   H186      1.0  0.07585  0.61351  0.25657  1.0000
  C   C106      1.0  0.15182  0.60708  0.22631  1.0000
  H   H187      1.0  0.41683  0.71225  0.15941  1.0000
  H   H188      1.0  0.26886  0.66987  0.19522  1.0000
  H   H189      1.0  0.23395  0.45951  0.36841  1.0000
  C   C107      1.0  0.46259  0.52677  0.34093  1.0000
  H   H190      1.0  0.31421  0.24951  0.29097  1.0000
  H   H191      1.0  0.14970  0.51860  0.34078  1.0000
  H   H192      1.0  0.49199  0.59656  0.34803  1.0000
  H   H193      1.0  0.07938  0.49830  0.26766  1.0000
  Fe  Fe17      1.0  0.09876  0.24649  0.13899  1.0000
  H   H194      1.0  0.20101  0.43904  0.13850  1.0000
  H   H195      1.0  0.05832  0.71119  0.35501  1.0000
  H   H196      1.0  0.47935  0.23989  0.32598  1.0000
  H   H197      1.0  0.41807  0.36956  0.37744  1.0000
  H   H198      1.0  0.41982  0.22844  0.19322  1.0000
  H   H199      1.0  0.05114  0.23448  0.33232  1.0000
  H   H200      1.0  0.13237  0.22667  0.36349  1.0000
  C   C108      1.0  0.46066  0.72324  0.33056  1.0000
  H   H201      1.0  0.48810  0.28244  0.41062  1.0000
  H   H202      1.0  0.29535  0.63889  0.54662  1.0000
  H   H203      1.0  0.34406  0.51939  0.43660  1.0000
  Fe  Fe18      1.0  0.50320  0.49378  0.62274  1.0000
  H   H204      1.0  0.17692  0.41886  0.53888  1.0000
  Fe  Fe19      1.0  0.26110  0.66645  0.43236  1.0000
  C   C109      1.0  0.40502  0.34611  0.40432  1.0000
  H   H205      1.0  0.22137  0.39480  0.43029  1.0000
  H   H206      1.0  0.26692  0.48146  0.46102  1.0000
  C   C110      1.0  0.24332  0.38257  0.59045  1.0000
  H   H207      1.0  0.21906  0.27141  0.45971  1.0000
  C   C111      1.0  0.19021  0.54511  0.62702  1.0000
  C   C112      1.0  0.07032  0.58845  0.43583  1.0000
  H   H208      1.0  0.22496  0.40689  0.62105  1.0000
  H   H209      1.0  0.16073  0.33362  0.42696  1.0000
  H   H210      1.0  0.48854  0.69677  0.47050  1.0000
  C   C113      1.0  0.13668  0.57314  0.48585  1.0000
  C   C114      1.0  0.10231  0.61136  0.40378  1.0000
  C   C115      1.0  0.28386  0.45537  0.48224  1.0000
  H   H211      1.0  0.17162  0.46019  0.39431  1.0000
  H   H212      1.0  0.18809  0.26188  0.51964  1.0000
  H   H213      1.0  0.29374  0.38203  0.52505  1.0000
  H   H214      1.0  0.18631  0.47006  0.61841  1.0000
  C   C116      1.0  0.33572  0.60497  0.59928  1.0000
  C   C117      1.0  0.24126  0.49116  0.56074  1.0000
  C   C118      1.0  0.20666  0.38410  0.46687  1.0000
  C   C119      1.0  0.27501  0.40931  0.55324  1.0000
  C   C120      1.0  0.10531  0.70787  0.58433  1.0000
  C   C121      1.0  0.40101  0.32270  0.48857  1.0000
  C   C122      1.0  0.20277  0.42754  0.50733  1.0000
  H   H215      1.0  0.40011  0.50081  0.45903  1.0000
  H   H216      1.0  0.11988  0.67258  0.56856  1.0000
  S   S27       1.0  0.22751  0.60860  0.47226  1.0000
  C   C123      1.0  0.08785  0.56819  0.47593  1.0000
  C   C124      1.0  0.05553  0.41254  0.57922  1.0000
  H   H217      1.0  0.21563  0.36104  0.57087  1.0000
  C   C125      1.0  0.36337  0.48937  0.44911  1.0000
  H   H218      1.0  0.46670  0.28584  0.58989  1.0000
  C   C126      1.0  0.49219  0.66645  0.44059  1.0000
  S   S28       1.0  0.10411  0.33262  0.59402  1.0000
  S   S29       1.0  0.43727  0.49448  0.57974  1.0000
  C   C127      1.0  0.32380  0.61132  0.54577  1.0000
  H   H219      1.0  0.50116  0.23265  0.56556  1.0000
  H   H220      1.0  0.39732  0.23418  0.61538  1.0000
  H   H221      1.0  0.20822  0.51177  0.40535  1.0000
  H   H222      1.0  0.19341  0.57450  0.60339  1.0000
  H   H223      1.0  0.24210  0.22818  0.49587  1.0000
  H   H224      1.0  0.03375  0.34348  0.45851  1.0000
  N   N6        1.0  0.24998  0.44518  0.52679  1.0000
  H   H225      1.0  0.27081  0.49764  0.58639  1.0000
  C   C128      1.0  0.35078  0.65257  0.62693  1.0000
  S   S30       1.0  0.33030  0.70287  0.45150  1.0000
  H   H226      1.0  0.30462  0.42611  0.57465  1.0000
  C   C129      1.0  0.37528  0.30854  0.38904  1.0000
  H   H227      1.0  0.13151  0.38952  0.44810  1.0000
  H   H228      1.0  0.17523  0.63685  0.39118  1.0000
  H   H229      1.0  0.35938  0.26059  0.49946  1.0000
  H   H230      1.0  0.29261  0.32230  0.58624  1.0000
  H   H231      1.0  0.36560  0.57867  0.59600  1.0000
  H   H232      1.0  0.04396  0.39291  0.54534  1.0000
  H   H233      1.0  0.35652  0.44322  0.50653  1.0000
  H   H234      1.0  0.50638  0.67942  0.40493  1.0000
  Fe  Fe20      1.0  0.45477  0.41881  0.55504  1.0000
  H   H235      1.0  0.50438  0.60588  0.47913  1.0000
  H   H236      1.0  0.46200  0.57888  0.40434  1.0000
  C   C130      1.0  0.50877  0.61196  0.58808  1.0000
  C   C131      1.0  0.50094  0.24550  0.40304  1.0000
  S   S31       1.0  0.40974  0.39282  0.61957  1.0000
  H   H237      1.0  0.46491  0.66744  0.56629  1.0000
  C   C132      1.0  0.16794  0.59876  0.45604  1.0000
  C   C133      1.0  0.33524  0.47248  0.49498  1.0000
  H   H238      1.0  0.49298  0.52586  0.44970  1.0000
  H   H239      1.0  0.32155  0.67887  0.62465  1.0000
  C   C134      1.0  0.49942  0.65825  0.57906  1.0000
  H   H240      1.0  0.36774  0.46043  0.41752  1.0000
  C   C135      1.0  0.37192  0.28456  0.47300  1.0000
  C   C136      1.0  0.15104  0.61720  0.41442  1.0000
  H   H241      1.0  0.33360  0.50143  0.52623  1.0000
  S   S32       1.0  0.45731  0.39868  0.47163  1.0000
  H   H242      1.0  0.30992  0.57819  0.52696  1.0000
  C   C137      1.0  0.19221  0.49791  0.59366  1.0000
  H   H243      1.0  0.14141  0.34837  0.49276  1.0000
  H   H244      1.0  0.29081  0.42339  0.45512  1.0000
  C   C138      1.0  0.15690  0.36277  0.45831  1.0000
  H   H245      1.0  0.07669  0.69869  0.46585  1.0000
  H   H246      1.0  0.44598  0.24655  0.53907  1.0000
  H   H247      1.0  0.23076  0.35654  0.47745  1.0000
  H   H248      1.0  0.24266  0.52128  0.53780  1.0000
  C   C139      1.0  0.35905  0.27756  0.42319  1.0000
  H   H249      1.0  0.30334  0.59041  0.61899  1.0000
  H   H250      1.0  0.16116  0.49758  0.56977  1.0000
  H   H251      1.0  0.35676  0.62131  0.52297  1.0000
  H   H252      1.0  0.11648  0.72363  0.41917  1.0000
  C   C140      1.0  0.03604  0.45749  0.59579  1.0000
  C   C141      1.0  0.08753  0.39186  0.60837  1.0000
  H   H253      1.0  0.45508  0.65292  0.43594  1.0000
  H   H254      1.0  0.18468  0.45595  0.49031  1.0000
  H   H255      1.0  0.14971  0.55872  0.51783  1.0000
  H   H256      1.0  0.48122  0.58563  0.58300  1.0000
  C   C142      1.0  0.41799  0.35312  0.45402  1.0000
  H   H257      1.0  0.06348  0.54962  0.50020  1.0000
  H   H258      1.0  0.41134  0.32778  0.52683  1.0000
  C   C143      1.0  0.20855  0.24444  0.48498  1.0000
  C   C144      1.0  0.27488  0.34939  0.61506  1.0000
  H   H259      1.0  0.38247  0.66430  0.60352  1.0000
  H   H260      1.0  0.04563  0.31136  0.39631  1.0000
  C   C145      1.0  0.46428  0.24830  0.57456  1.0000
  C   C146      1.0  0.02627  0.71900  0.38296  1.0000
  H   H261      1.0  0.09190  0.70711  0.62441  1.0000
  S   S33       1.0  0.32513  0.22869  0.40248  1.0000
  H   H262      1.0  0.07421  0.71642  0.56304  1.0000
  H   H263      1.0  0.49110  0.22810  0.43736  1.0000
  S   S34       1.0  0.52315  0.41939  0.59405  1.0000
  H   H264      1.0  0.29937  0.37805  0.38141  1.0000
  H   H265      1.0  0.50463  0.85928  0.68428  1.0000
  H   H266      1.0  0.41897  0.72588  0.63805  1.0000
  C   C147      1.0  0.37921  0.20365  0.70723  1.0000
  H   H267      1.0  0.04641  0.92020  0.83245  1.0000
  C   C148      1.0  0.42678  0.77393  0.70408  1.0000
  C   C149      1.0  0.34444  0.97094  0.86937  1.0000
  Fe  Fe21      1.0  0.22949  0.78399  0.83178  1.0000
  H   H268      1.0  0.12924  0.95751  0.81900  1.0000
  H   H269      1.0  0.22735  0.06978  0.83814  1.0000
  H   H270      1.0  0.20826  0.15190  0.84915  1.0000
  C   C150      1.0  0.35763  0.95602  0.77840  1.0000
  C   C151      1.0  0.03677  0.81038  0.81746  1.0000
  C   C152      1.0  0.22019  0.97498  0.79039  1.0000
  H   H271      1.0  0.24745  0.00008  0.86123  1.0000
  H   H272      1.0  0.16058  0.12286  0.81656  1.0000
  H   H273      1.0  0.42072  0.86996  0.66210  1.0000
  C   C153      1.0  0.30528  0.10286  0.67369  1.0000
  C   C154      1.0  0.12465  0.80975  0.80976  1.0000
  H   H274      1.0  0.12746  0.79030  0.64707  1.0000
  H   H275      1.0  0.46774  0.88604  0.73811  1.0000
  H   H276      1.0  0.08564  0.85664  0.68023  1.0000
  H   H277      1.0  0.39497  0.79642  0.69972  1.0000
  C   C155      1.0  0.11980  0.87689  0.67843  1.0000
  C   C156      1.0  0.26012  0.11317  0.70031  1.0000
  C   C157      1.0  0.27985  0.80391  0.64124  1.0000
  Fe  Fe22      1.0  0.13991  0.21637  0.71546  1.0000
  N   N7        1.0  0.03371  0.08138  0.64385  1.0000
  H   H278      1.0  0.43721  0.04088  0.73798  1.0000
  C   C158      1.0  0.10820  0.92583  0.70603  1.0000
  H   H279      1.0  0.05346  0.12173  0.79711  1.0000
  H   H280      1.0  0.35727  0.96831  0.74183  1.0000
  H   H281      1.0  0.14628  0.85976  0.69930  1.0000
  C   C159      1.0  0.17745  0.12757  0.85307  1.0000
  C   C160      1.0  0.08073  0.80920  0.78716  1.0000
  C   C161      1.0  0.44821  0.14880  0.68899  1.0000
  S   S35       1.0  0.43586  0.12821  0.86662  1.0000
  C   C162      1.0  0.48723  0.97723  0.84117  1.0000
  H   H282      1.0  0.46715  0.90966  0.86117  1.0000
  H   H283      1.0  0.50593  0.19868  0.83590  1.0000
  C   C163      1.0  0.50679  0.21460  0.75821  1.0000
  H   H284      1.0  0.43152  0.77376  0.74487  1.0000
  H   H285      1.0  0.22275  0.85177  0.67154  1.0000
  C   C164      1.0  0.31514  0.98595  0.64243  1.0000
  H   H286      1.0  0.20507  0.79106  0.66221  1.0000
  H   H287      1.0  0.49660  0.21982  0.65764  1.0000
  H   H288      1.0  0.29115  0.79978  0.67940  1.0000
  H   H289      1.0  0.43207  0.19973  0.78502  1.0000
  C   C165      1.0  0.15596  0.04358  0.86455  1.0000
  H   H290      1.0  0.14200  0.04130  0.82648  1.0000
  H   H291      1.0  0.33370  0.08761  0.69219  1.0000
  S   S36       1.0  0.30084  0.74853  0.80943  1.0000
  H   H292      1.0  0.42975  0.13457  0.65533  1.0000
  H   H293      1.0  0.48761  0.14527  0.67667  1.0000
  C   C166      1.0  0.34615  0.98703  0.82199  1.0000
  H   H294      1.0  0.14151  0.94733  0.70749  1.0000
  H   H295      1.0  0.34261  0.72579  0.69584  1.0000
  H   H296      1.0  0.27460  0.20482  0.82243  1.0000
  H   H297      1.0  0.19365  0.90360  0.77495  1.0000
  S   S37       1.0  0.33669  0.04635  0.81746  1.0000
  H   H298      1.0  0.42295  0.93181  0.68530  1.0000
  C   C167      1.0  0.37141  0.90973  0.78252  1.0000
  C   C168      1.0  0.21699  0.97761  0.84913  1.0000
  C   C169      1.0  0.13077  0.96145  0.86055  1.0000
  H   H299      1.0  0.41822  0.05474  0.67862  1.0000
  C   C170      1.0  0.22636  0.81883  0.64544  1.0000
  H   H300      1.0  0.51581  0.96201  0.81238  1.0000
  H   H301      1.0  0.08057  0.80563  0.74655  1.0000
  N   N8        1.0  0.16966  0.99546  0.87696  1.0000
  C   C171      1.0  0.22323  0.13368  0.67724  1.0000
  H   H302      1.0  0.50922  0.92169  0.70428  1.0000
  H   H303      1.0  0.08087  0.94403  0.68675  1.0000
  H   H304      1.0  0.18894  0.99166  0.77583  1.0000
  C   C172      1.0  0.37364  0.89488  0.83011  1.0000
  C   C173      1.0  0.45114  0.21772  0.75450  1.0000
  H   H305      1.0  0.33538  0.00822  0.67009  1.0000
  H   H306      1.0  0.06470  0.00510  0.86524  1.0000
  S   S38       1.0  0.39633  0.83928  0.83580  1.0000
  H   H307      1.0  0.03464  0.04798  0.71241  1.0000
  H   H308      1.0  0.35221  0.92309  0.65327  1.0000
  C   C174      1.0  0.03730  0.80957  0.86962  1.0000
  H   H309      1.0  0.45393  0.98252  0.82180  1.0000
  H   H310      1.0  0.48188  0.05718  0.69010  1.0000
  H   H311      1.0  0.09294  0.92259  0.74511  1.0000
  H   H312      1.0  0.25887  0.90770  0.77626  1.0000
  H   H313      1.0  0.46292  0.12212  0.75973  1.0000
  S   S39       1.0  0.17987  0.79972  0.77371  1.0000
  C   C175      1.0  0.44430  0.06384  0.70758  1.0000
  H   H314      1.0  0.22987  0.92477  0.72326  1.0000
  S   S40       1.0  0.16564  0.14198  0.70961  1.0000
  C   C176      1.0  0.12456  0.81409  0.86226  1.0000
  H   H315      1.0  0.36503  0.18688  0.67181  1.0000
  C   C177      1.0  0.22592  0.92458  0.76480  1.0000
  H   H316      1.0  0.25381  0.10509  0.73880  1.0000
  Fe  Fe23      1.0  0.33030  0.80375  0.86363  1.0000
  H   H317      1.0  0.38034  0.88537  0.74919  1.0000
  C   C178      1.0  0.19639  0.08080  0.86611  1.0000
  C   C179      1.0  0.43748  0.11522  0.72984  1.0000
  H   H318      1.0  0.22613  0.94254  0.86018  1.0000
  H   H319      1.0  0.36250  0.18362  0.73718  1.0000
  H   H320      1.0  0.13964  0.92553  0.86968  1.0000
  N   N9        1.0  0.43389  0.19963  0.70395  1.0000
  C   C180      1.0  0.48408  0.89160  0.70001  1.0000
  H   H321      1.0  0.07765  0.09274  0.70721  1.0000
  C   C181      1.0  0.44422  0.90119  0.66593  1.0000
  H   H322      1.0  0.45984  0.78884  0.68599  1.0000
  C   C182      1.0  0.03984  0.08327  0.69953  1.0000
  H   H323      1.0  0.50835  0.78230  0.83764  1.0000
  H   H324      1.0  0.25245  0.99471  0.77730  1.0000
  H   H325      1.0  0.39989  0.11957  0.74770  1.0000
  H   H326      1.0  0.28070  0.97531  0.66208  1.0000
  C   C183      1.0  0.04382  0.93429  0.87305  1.0000
  H   H327      1.0  0.49866  0.01199  0.85870  1.0000
  H   H328      1.0  0.06077  0.00985  0.63194  1.0000
  C   C184      1.0  0.35771  0.92459  0.87344  1.0000
  H   H329      1.0  0.08081  0.14139  0.64130  1.0000
  H   H330      1.0  0.13367  0.05363  0.65594  1.0000
  H   H331      1.0  0.52187  0.17923  0.74441  1.0000
  H   H332      1.0  0.15806  0.81726  0.88013  1.0000
  C   C185      1.0  0.24095  0.15549  0.11545  1.0000
  H   H333      1.0  0.49364  0.05194  0.02364  1.0000
  C   C186      1.0  0.07838  0.97506  0.88303  1.0000
  H   H334      1.0  0.02824  0.17018  0.99864  1.0000
  C   C187      1.0  0.05831  0.87194  0.09069  1.0000
  H   H335      1.0  0.31452  0.22285  0.07234  1.0000
  H   H336      1.0  0.40958  0.92346  0.07340  1.0000
  H   H337      1.0  0.46609  0.84050  0.01164  1.0000
  H   H338      1.0  0.08140  0.81227  0.93250  1.0000
  C   C188      1.0  0.21674  0.00699  0.01330  1.0000
  C   C189      1.0  0.17156  0.99559  0.93363  1.0000
  H   H339      1.0  0.26958  0.21743  0.91335  1.0000
  Fe  Fe24      1.0  0.36489  0.11911  0.99465  1.0000
  H   H340      1.0  0.38386  0.87779  0.03119  1.0000
  C   C190      1.0  0.48715  0.19447  0.12496  1.0000
  C   C191      1.0  0.19525  0.76467  0.09207  1.0000
  C   C192      1.0  0.18489  0.78041  0.04654  1.0000
  H   H341      1.0  0.11033  0.21505  0.95371  1.0000
  H   H342      1.0  0.09431  0.79754  0.11958  1.0000
  H   H343      1.0  0.33297  0.99424  0.90289  1.0000
  N   N10       1.0  0.51466  0.90090  0.94782  1.0000
  H   H344      1.0  0.20207  0.97410  0.02647  1.0000
  S   S41       1.0  0.39958  0.05618  0.94776  1.0000
  C   C193      1.0  0.03357  0.08944  0.07875  1.0000
  H   H345      1.0  0.41407  0.74073  0.97320  1.0000
  S   S42       1.0  0.43077  0.16413  0.98738  1.0000
  H   H346      1.0  0.07665  0.98527  0.92441  1.0000
  H   H347      1.0  0.50922  0.16446  0.04732  1.0000
  H   H348      1.0  0.37683  0.99621  0.13075  1.0000
  H   H349      1.0  0.41032  0.86324  0.08674  1.0000
  S   S43       1.0  0.21131  0.73961  0.89459  1.0000
  S   S44       1.0  0.33071  0.14598  0.93040  1.0000
  H   H350      1.0  0.17488  0.14149  0.99211  1.0000
  C   C194      1.0  0.41364  0.88636  0.05620  1.0000
  H   H351      1.0  0.25812  0.10911  0.99258  1.0000
  H   H352      1.0  0.52196  0.97424  0.93667  1.0000
  Fe  Fe25      1.0  0.36969  0.08644  0.88272  1.0000
  C   C195      1.0  0.19399  0.17400  0.11523  1.0000
  C   C196      1.0  0.08108  0.81224  0.89208  1.0000
  H   H353      1.0  0.51643  0.82494  0.94216  1.0000
  H   H354      1.0  0.20957  0.08723  0.90420  1.0000
  H   H355      1.0  0.19235  0.03686  0.02917  1.0000
  C   C197      1.0  0.19321  0.14536  0.02654  1.0000
  C   C198      1.0  0.14867  0.75868  0.01875  1.0000
  H   H356      1.0  0.15852  0.96158  0.94587  1.0000
  H   H357      1.0  0.42701  0.15100  0.10340  1.0000
  H   H358      1.0  0.47407  0.84725  0.90495  1.0000
  H   H359      1.0  0.44877  0.75019  0.02755  1.0000
  Fe  Fe26      1.0  0.46273  0.10311  0.93528  1.0000
  H   H360      1.0  0.09042  0.85884  0.06470  1.0000
  H   H361      1.0  0.05202  0.90599  0.89604  1.0000
  C   C199      1.0  0.17038  0.16950  0.07063  1.0000
  C   C200      1.0  0.03060  0.13313  0.98136  1.0000
  H   H362      1.0  0.14014  0.77117  0.98387  1.0000
  H   H363      1.0  0.06320  0.11347  0.06881  1.0000
  C   C201      1.0  0.51931  0.93939  0.91397  1.0000
  S   S45       1.0  0.25989  0.84293  0.88155  1.0000
  C   C202      1.0  0.46313  0.87824  0.02645  1.0000
  Fe  Fe27      1.0  0.24681  0.79682  0.94312  1.0000
  S   S46       1.0  0.32517  0.11466  0.07025  1.0000
  H   H364      1.0  0.05355  0.90891  0.08380  1.0000
  C   C203      1.0  0.51116  0.85314  0.91776  1.0000
  S   S47       1.0  0.32064  0.76300  0.92960  1.0000
  H   H365      1.0  0.25298  0.01337  0.02789  1.0000
  H   H366      1.0  0.40942  0.07213  0.10931  1.0000
  H   H367      1.0  0.38658  0.77037  0.03245  1.0000
  H   H368      1.0  0.47637  0.11985  0.12284  1.0000
  H   H369      1.0  0.12489  0.05862  0.89067  1.0000
  C   C204      1.0  0.46907  0.90953  0.98286  1.0000
  H   H370      1.0  0.14609  0.02251  0.95471  1.0000
  H   H371      1.0  0.49134  0.88623  0.05335  1.0000
  S   S48       1.0  0.21995  0.82459  0.02246  1.0000
  C   C205      1.0  0.26465  0.13323  0.07085  1.0000
  Fe  Fe28      1.0  0.39926  0.18609  0.91934  1.0000
  C   C206      1.0  0.22176  0.00270  0.95558  1.0000
  C   C207      1.0  0.24050  0.12759  0.02661  1.0000
  S   S49       1.0  0.11340  0.19584  0.06910  1.0000
  H   H372      1.0  0.04490  0.05484  0.05780  1.0000
  C   C208      1.0  0.41208  0.74197  0.01495  1.0000
  H   H373      1.0  0.22305  0.78160  0.11375  1.0000
  H   H374      1.0  0.11480  0.94928  0.10953  1.0000
  H   H375      1.0  0.24003  0.03446  0.94416  1.0000
  H   H376      1.0  0.44409  0.95822  0.90552  1.0000
  H   H377      1.0  0.46604  0.94699  0.99945  1.0000
  H   H378      1.0  0.24597  0.97198  0.94223  1.0000
  H   H379      1.0  0.35743  0.91239  0.91020  1.0000
  H   H380      1.0  0.43641  0.90370  0.96113  1.0000
  H   H381      1.0  0.06721  0.11916  0.98633  1.0000
  H   H382      1.0  0.05745  0.15207  0.90794  1.0000
  H   H383      1.0  0.09642  0.03781  0.12677  1.0000
  H   H384      1.0  0.14616  0.86864  0.12884  1.0000
  H   H385      1.0  0.20147  0.93586  0.12573  1.0000
  H   H386      1.0  0.02508  0.80675  0.06065  1.0000
  H   H387      1.0  0.02717  0.09629  0.90549  1.0000
  C   C209      1.0  0.02658  0.13280  0.92471  1.0000
  H   H388      1.0  0.15039  0.14355  0.88322  1.0000
  C   C210      1.0  0.17134  0.72538  0.10825  1.0000
  C   C211      1.0  0.47634  0.94397  0.88109  1.0000
  C   C212      1.0  0.08508  0.07184  0.14867  1.0000
  H   H389      1.0  0.37102  0.19849  0.16551  1.0000
  C   C213      1.0  0.40591  0.06571  0.14953  1.0000
  H   H390      1.0  0.17966  0.99456  0.14781  1.0000
  H   H391      1.0  0.09445  0.74605  0.24454  1.0000
  C   C214      1.0  0.39254  0.11153  0.18495  1.0000
  H   H392      1.0  0.33057  0.84942  0.22427  1.0000
  H   H393      1.0  0.31279  0.08665  0.26937  1.0000
  C   C215      1.0  0.49694  0.72715  0.29182  1.0000
  H   H394      1.0  0.35645  0.95354  0.23038  1.0000
  C   C216      1.0  0.36614  0.02929  0.15491  1.0000
  H   H395      1.0  0.02640  0.96068  0.15236  1.0000
  S   S50       1.0  0.31494  0.76427  0.35730  1.0000
  C   C217      1.0  0.07068  0.81678  0.15104  1.0000
  H   H396      1.0  0.18544  0.95308  0.19251  1.0000
  H   H397      1.0  0.26788  0.90227  0.18856  1.0000
  C   C218      1.0  0.36841  0.20389  0.24788  1.0000
  H   H398      1.0  0.44472  0.95972  0.24671  1.0000
  N   N11       1.0  0.42737  0.15237  0.18421  1.0000
  S   S51       1.0  0.11262  0.93887  0.31604  1.0000
  C   C219      1.0  0.33169  0.92350  0.22810  1.0000
  H   H399      1.0  0.25950  0.16003  0.14977  1.0000
  H   H400      1.0  0.44026  0.04999  0.15818  1.0000
  H   H401      1.0  0.39074  0.92913  0.29774  1.0000
  H   H402      1.0  0.44719  0.80809  0.25440  1.0000
  H   H403      1.0  0.26318  0.72798  0.17684  1.0000
  C   C220      1.0  0.11733  0.88909  0.15394  1.0000
  H   H404      1.0  0.46439  0.73582  0.19560  1.0000
  H   H405      1.0  0.07423  0.82878  0.23379  1.0000
  H   H406      1.0  0.19029  0.04578  0.34629  1.0000
  H   H407      1.0  0.12997  0.80779  0.19846  1.0000
  C   C221      1.0  0.17978  0.87196  0.27687  1.0000
  H   H408      1.0  0.43446  0.22074  0.37144  1.0000
  H   H409      1.0  0.18175  0.10716  0.30502  1.0000
  N   N12       1.0  0.06815  0.86842  0.14470  1.0000
  S   S52       1.0  0.32372  0.99881  0.35534  1.0000
  C   C222      1.0  0.39705  0.19686  0.19509  1.0000
  H   H410      1.0  0.25261  0.06734  0.25730  1.0000
  H   H411      1.0  0.31368  0.93159  0.15162  1.0000
  C   C223      1.0  0.44045  0.88468  0.32783  1.0000
  H   H412      1.0  0.48676  0.18415  0.35035  1.0000
  H   H413      1.0  0.17656  0.19247  0.14949  1.0000
  H   H414      1.0  0.39375  0.21099  0.27800  1.0000
  C   C224      1.0  0.03462  0.08639  0.13610  1.0000
  C   C225      1.0  0.29504  0.93083  0.18987  1.0000
  H   H415      1.0  0.31124  0.92450  0.26553  1.0000
  H   H416      1.0  0.10024  0.96341  0.17700  1.0000
  C   C226      1.0  0.28500  0.91470  0.37701  1.0000
  H   H417      1.0  0.44798  0.84714  0.32921  1.0000
  S   S53       1.0  0.08847  0.22208  0.21543  1.0000
  C   C227      1.0  0.35868  0.87564  0.21487  1.0000
  C   C228      1.0  0.45377  0.15208  0.13254  1.0000
  C   C229      1.0  0.19926  0.82630  0.26913  1.0000
  C   C230      1.0  0.49470  0.78925  0.38053  1.0000
  H   H418      1.0  0.38417  0.80290  0.27137  1.0000
  H   H419      1.0  0.49404  0.08159  0.20237  1.0000
  H   H420      1.0  0.36598  0.78154  0.18476  1.0000
  H   H421      1.0  0.03418  0.80057  0.14843  1.0000
  H   H422      1.0  0.23034  0.81791  0.24227  1.0000
  H   H423      1.0  0.51003  0.10090  0.29140  1.0000
  C   C231      1.0  0.02902  0.89165  0.18248  1.0000
  H   H424      1.0  0.45260  0.86817  0.17377  1.0000
  C   C232      1.0  0.12356  0.94166  0.14741  1.0000
  H   H425      1.0  0.36019  0.02226  0.19478  1.0000
  H   H426      1.0  0.19611  0.89894  0.25627  1.0000
  H   H427      1.0  0.44200  0.14403  0.26110  1.0000
  H   H428      1.0  0.42508  0.94851  0.18344  1.0000
  H   H429      1.0  0.34693  0.17260  0.25550  1.0000
  H   H430      1.0  0.03755  0.17489  0.34350  1.0000
  H   H431      1.0  0.03795  0.74998  0.21550  1.0000
  C   C233      1.0  0.46188  0.15189  0.22526  1.0000
  H   H432      1.0  0.08691  0.85609  0.36433  1.0000
  H   H433      1.0  0.26313  0.08952  0.34856  1.0000
  H   H434      1.0  0.08448  0.06814  0.18958  1.0000
  H   H435      1.0  0.27146  0.12565  0.24473  1.0000
  C   C234      1.0  0.13882  0.88266  0.31071  1.0000
  H   H436      1.0  0.47687  0.18749  0.23489  1.0000
  C   C235      1.0  0.27437  0.09823  0.27046  1.0000
  H   H437      1.0  0.12208  0.77539  0.35136  1.0000
  C   C236      1.0  0.11826  0.84795  0.33803  1.0000
  H   H438      1.0  0.35607  0.12197  0.17449  1.0000
  C   C237      1.0  0.12531  0.15260  0.37766  1.0000
  C   C238      1.0  0.08980  0.80480  0.20092  1.0000
  C   C239      1.0  0.17585  0.95702  0.15371  1.0000
  H   H439      1.0  0.36700  0.86940  0.17321  1.0000
  C   C240      1.0  0.20284  0.13334  0.32818  1.0000
  H   H440      1.0  0.38587  0.10168  0.22385  1.0000
  C   C241      1.0  0.07774  0.75457  0.21036  1.0000
  N   N13       1.0  0.40392  0.86818  0.24142  1.0000
  C   C242      1.0  0.17797  0.79139  0.29563  1.0000
  H   H441      1.0  0.47374  0.90141  0.31246  1.0000
  C   C243      1.0  0.50193  0.95173  0.18711  1.0000
  S   S54       1.0  0.39984  0.11494  0.36455  1.0000
  C   C244      1.0  0.11335  0.19457  0.34910  1.0000
  H   H442      1.0  0.36444  0.87661  0.31479  1.0000
  C   C245      1.0  0.45166  0.93863  0.20936  1.0000
  H   H443      1.0  0.27567  0.96486  0.20129  1.0000
  C   C246      1.0  0.44876  0.88536  0.21325  1.0000
  H   H444      1.0  0.09221  0.72951  0.17812  1.0000
  H   H445      1.0  0.10803  0.12128  0.35822  1.0000
  H   H446      1.0  0.27998  0.14776  0.33657  1.0000
  H   H447      1.0  0.12388  0.18609  0.30816  1.0000
  H   H448      1.0  0.04442  0.90263  0.21923  1.0000
  H   H449      1.0  0.20245  0.16529  0.30827  1.0000
  C   C247      1.0  0.39748  0.89084  0.29541  1.0000
  H   H450      1.0  0.12606  0.88625  0.19329  1.0000
  H   H451      1.0  0.48207  0.87454  0.22998  1.0000
  H   H452      1.0  0.33144  0.04213  0.14281  1.0000
  C   C248      1.0  0.13806  0.80237  0.33068  1.0000
  C   C249      1.0  0.42439  0.73502  0.19405  1.0000
  C   C250      1.0  0.41061  0.81594  0.24252  1.0000
  H   H453      1.0  0.27319  0.91026  0.33933  1.0000
  C   C251      1.0  0.50570  0.11754  0.21430  1.0000
  C   C252      1.0  0.25690  0.11749  0.32454  1.0000
  C   C253      1.0  0.40492  0.78441  0.19205  1.0000
  H   H454      1.0  0.42459  0.79825  0.15932  1.0000
  C   C254      1.0  0.05928  0.20618  0.35546  1.0000
  S   S55       1.0  0.20040  0.73376  0.28404  1.0000
  C   C255      1.0  0.45853  0.75526  0.37436  1.0000
  H   H455      1.0  0.11213  0.09899  0.13991  1.0000
  H   H456      1.0  0.50751  0.20405  0.15827  1.0000
  Fe  Fe29      1.0  0.05361  0.95587  0.37872  1.0000
  H   H457      1.0  0.02596  0.12097  0.15817  1.0000
  H   H458      1.0  0.50294  0.98997  0.18385  1.0000
  C   C256      1.0  0.47389  0.22101  0.35993  1.0000
  H   H459      1.0  0.51041  0.93244  0.14889  1.0000
  H   H460      1.0  0.03360  0.77425  0.31103  1.0000
  H   H461      1.0  0.13157  0.05066  0.38055  1.0000
  N   N14       1.0  0.15597  0.83464  0.59087  1.0000
  H   H462      1.0  0.32073  0.93181  0.51446  1.0000
  Fe  Fe30      1.0  0.35797  0.16369  0.42438  1.0000
  C   C257      1.0  0.04260  0.75195  0.42820  1.0000
  H   H463      1.0  0.14319  0.91580  0.53478  1.0000
  H   H464      1.0  0.45751  0.00601  0.53714  1.0000
  H   H465      1.0  0.09944  0.75716  0.47929  1.0000
  H   H466      1.0  0.06467  0.18167  0.51585  1.0000
  H   H467      1.0  0.48792  0.90168  0.51466  1.0000
  H   H468      1.0  0.33228  0.99605  0.46147  1.0000
  H   H469      1.0  0.52174  0.12286  0.59440  1.0000
  H   H470      1.0  0.15587  0.74418  0.53899  1.0000
  H   H471      1.0  0.39717  0.88945  0.40005  1.0000
  H   H472      1.0  0.32277  0.92033  0.59620  1.0000
  H   H473      1.0  0.26190  0.84599  0.39265  1.0000
  H   H474      1.0  0.46644  0.83066  0.51783  1.0000
  C   C258      1.0  0.18692  0.01497  0.41477  1.0000
  Fe  Fe31      1.0  0.45339  0.11029  0.42264  1.0000
  C   C259      1.0  0.12244  0.05296  0.61704  1.0000
  C   C260      1.0  0.43744  0.82674  0.54806  1.0000
  H   H475      1.0  0.22680  0.01577  0.41715  1.0000
  C   C261      1.0  0.08658  0.73146  0.44926  1.0000
  C   C262      1.0  0.15637  0.88291  0.45935  1.0000
  H   H476      1.0  0.39178  0.78973  0.49414  1.0000
  C   C263      1.0  0.17700  0.20714  0.45839  1.0000
  H   H477      1.0  0.38166  0.97191  0.55847  1.0000
  H   H478      1.0  0.43073  0.75205  0.40461  1.0000
  H   H479      1.0  0.08816  0.79828  0.60008  1.0000
  S   S56       1.0  0.29380  0.83574  0.49161  1.0000
  C   C264      1.0  0.04583  0.12865  0.62714  1.0000
  H   H480      1.0  0.49524  0.88732  0.59947  1.0000
  H   H481      1.0  0.03577  0.20692  0.57552  1.0000
  H   H482      1.0  0.14264  0.01181  0.54456  1.0000
  H   H483      1.0  0.49213  0.97761  0.44805  1.0000
  C   C265      1.0  0.40737  0.78428  0.53001  1.0000
  H   H484      1.0  0.10748  0.83624  0.53113  1.0000
  C   C266      1.0  0.14706  0.83906  0.53647  1.0000
  S   S57       1.0  0.41666  0.04912  0.45322  1.0000
  H   H485      1.0  0.16905  0.01977  0.45366  1.0000
  H   H486      1.0  0.28291  0.14035  0.56183  1.0000
  H   H487      1.0  0.45425  0.81879  0.58234  1.0000
  C   C267      1.0  0.43541  0.22109  0.61237  1.0000
  H   H488      1.0  0.49119  0.10604  0.51052  1.0000
  H   H489      1.0  0.16712  0.90660  0.62182  1.0000
  Fe  Fe32      1.0  0.29082  0.76876  0.43976  1.0000
  H   H490      1.0  0.23010  0.85840  0.58242  1.0000
  N   N15       1.0  0.43046  0.91693  0.57479  1.0000
  H   H491      1.0  0.16904  0.18016  0.48425  1.0000
  C   C268      1.0  0.30717  0.95632  0.39547  1.0000
  C   C269      1.0  0.31804  0.96307  0.44587  1.0000
  C   C270      1.0  0.31310  0.11091  0.62312  1.0000
  H   H492      1.0  0.13280  0.08661  0.60285  1.0000
  C   C271      1.0  0.18340  0.10254  0.41093  1.0000
  H   H493      1.0  0.24034  0.17551  0.41488  1.0000
  H   H494      1.0  0.15942  0.10778  0.44667  1.0000
  Fe  Fe33      1.0  0.35942  0.05816  0.40032  1.0000
  H   H495      1.0  0.50990  0.98116  0.56002  1.0000
  C   C272      1.0  0.12724  0.79316  0.60611  1.0000
  H   H496      1.0  0.10586  0.15786  0.41602  1.0000
  H   H497      1.0  0.43457  0.92715  0.49570  1.0000
  C   C273      1.0  0.20289  0.18532  0.40735  1.0000
  C   C274      1.0  0.39357  0.95605  0.59163  1.0000
  S   S58       1.0  0.36783  0.09123  0.58895  1.0000
  C   C275      1.0  0.15223  0.01431  0.58429  1.0000
  C   C276      1.0  0.04821  0.13140  0.56944  1.0000
  H   H498      1.0  0.16538  0.81007  0.51062  1.0000
  S   S59       1.0  0.06708  0.99909  0.45145  1.0000
  H   H499      1.0  0.17710  0.73256  0.59748  1.0000
  H   H500      1.0  0.04904  0.21879  0.39567  1.0000
  S   S60       1.0  0.31403  0.10717  0.45657  1.0000
  C   C277      1.0  0.23187  0.14477  0.62773  1.0000
  C   C278      1.0  0.06709  0.04356  0.61598  1.0000
  H   H501      1.0  0.05858  0.03612  0.57586  1.0000
  C   C279      1.0  0.16420  0.88503  0.51544  1.0000
  H   H502      1.0  0.19156  0.02217  0.58516  1.0000
  S   S61       1.0  0.22017  0.73306  0.42762  1.0000
  C   C280      1.0  0.27676  0.13294  0.60045  1.0000
  H   H503      1.0  0.37749  0.77823  0.55880  1.0000
  H   H504      1.0  0.22058  0.10065  0.42338  1.0000
  H   H505      1.0  0.30290  0.83090  0.62493  1.0000
  Fe  Fe34      1.0  0.37411  0.10257  0.50715  1.0000
  H   H506      1.0  0.20342  0.16093  0.60991  1.0000
  S   S62       1.0  0.02760  0.93201  0.56320  1.0000
  H   H507      1.0  0.43087  0.75239  0.52293  1.0000
  C   C281      1.0  0.06293  0.18042  0.55725  1.0000
  H   H508      1.0  0.20317  0.89139  0.51997  1.0000
  C   C282      1.0  0.45891  0.92839  0.52714  1.0000
  C   C283      1.0  0.29393  0.88339  0.45612  1.0000
  H   H509      1.0  0.05259  0.78709  0.41766  1.0000
  H   H510      1.0  0.14526  0.98028  0.59902  1.0000
  H   H511      1.0  0.09926  0.18953  0.57036  1.0000
  C   C284      1.0  0.40491  0.87112  0.56152  1.0000
  H   H512      1.0  0.17065  0.91516  0.44460  1.0000
  H   H513      1.0  0.17586  0.85224  0.43741  1.0000
  C   C285      1.0  0.34557  0.94274  0.62134  1.0000
  C   C286      1.0  0.31127  0.92668  0.47613  1.0000
  S   S63       1.0  0.41430  0.16345  0.47972  1.0000
  C   C287      1.0  0.48450  0.97677  0.52996  1.0000
  H   H514      1.0  0.49479  0.81220  0.41559  1.0000
  C   C288      1.0  0.27873  0.87810  0.40723  1.0000
  H   H515      1.0  0.11702  0.88053  0.45363  1.0000
  H   H516      1.0  0.07501  0.10616  0.54819  1.0000
  H   H517      1.0  0.38217  0.87430  0.52956  1.0000
  H   H518      1.0  0.37947  0.86237  0.59305  1.0000
  H   H519      1.0  0.43606  0.18356  0.59662  1.0000
  H   H520      1.0  0.22336  0.79756  0.56530  1.0000
  C   C289      1.0  0.51493  0.98173  0.48051  1.0000
  H   H521      1.0  0.30612  0.00636  0.61155  1.0000
  C   C290      1.0  0.20974  0.82735  0.59345  1.0000
  C   C291      1.0  0.14496  0.74431  0.57962  1.0000
  H   H522      1.0  0.10675  0.89432  0.60628  1.0000
  C   C292      1.0  0.13832  0.87954  0.62260  1.0000
  H   H523      1.0  0.28550  0.76985  0.61698  1.0000
  H   H524      1.0  0.41058  0.98556  0.61456  1.0000
  C   C293      1.0  0.46591  0.91317  0.61415  1.0000
  H   H525      1.0  0.14230  0.22438  0.45224  1.0000
  H   H526      1.0  0.48446  0.94703  0.62278  1.0000
  H   H527      1.0  0.46074  0.90181  0.40408  1.0000
  H   H528      1.0  0.42130  0.94491  0.38368  1.0000
  H   H529      1.0  0.20828  0.21380  0.38254  1.0000
  H   H530      1.0  0.17738  0.98015  0.39573  1.0000
  C   C294      1.0  0.17121  0.05345  0.38439  1.0000
  N   N16       1.0  0.17860  0.14342  0.38091  1.0000
  C   C295      1.0  0.42900  0.90673  0.38224  1.0000
  H   H531      1.0  0.97088  0.37889  0.76652  1.0000
  H   H532      1.0  0.96722  0.24602  0.70307  1.0000
  H   H533      1.0  0.66068  0.55207  0.64878  1.0000
  H   H534      1.0  0.91826  0.52133  0.85221  1.0000
  C   C296      1.0  0.73394  0.50392  0.78724  1.0000
  C   C297      1.0  0.90845  0.55174  0.83286  1.0000
  H   H535      1.0  0.00384  0.47949  0.75474  1.0000
  C   C298      1.0  0.59481  0.37303  0.68997  1.0000
  S   S64       1.0  0.92000  0.62047  0.64669  1.0000
  H   H536      1.0  0.92515  0.32459  0.73219  1.0000
  C   C299      1.0  0.66238  0.34762  0.73275  1.0000
  H   H537      1.0  0.60236  0.51940  0.70655  1.0000
  N   N17       1.0  0.91274  0.37836  0.68383  1.0000
  H   H538      1.0  0.68376  0.42188  0.84789  1.0000
  C   C300      1.0  0.80875  0.65901  0.73843  1.0000
  C   C301      1.0  0.78704  0.70760  0.66969  1.0000
  C   C302      1.0  0.84263  0.32427  0.79628  1.0000
  H   H539      1.0  0.98087  0.56405  0.80233  1.0000
  S   S65       1.0  0.81109  0.24469  0.65359  1.0000
  C   C303      1.0  0.95228  0.58389  0.82766  1.0000
  H   H540      1.0  0.63149  0.46551  0.70689  1.0000
  C   C304      1.0  0.89447  0.34330  0.71857  1.0000
  H   H541      1.0  0.81454  0.33870  0.82613  1.0000
  C   C305      1.0  0.64484  0.37068  0.69470  1.0000
  H   H542      1.0  0.67436  0.57295  0.78671  1.0000
  C   C306      1.0  0.64330  0.60978  0.73042  1.0000
  C   C307      1.0  0.99604  0.44934  0.77648  1.0000
  H   H543      1.0  0.70221  0.50290  0.81510  1.0000
  C   C308      1.0  0.55768  0.48374  0.78299  1.0000
  H   H544      1.0  0.78044  0.47492  0.83776  1.0000
  S   S66       1.0  0.01967  0.53400  0.66736  1.0000
  H   H545      1.0  0.71687  0.58882  0.73933  1.0000
  H   H546      1.0  0.94112  0.68984  0.73545  1.0000
  H   H547      1.0  0.75371  0.49867  0.70805  1.0000
  S   S67       1.0  0.72489  0.33950  0.73400  1.0000
  C   C309      1.0  0.68003  0.57371  0.74534  1.0000
  H   H548      1.0  0.61335  0.63618  0.80588  1.0000
  S   S68       1.0  0.98389  0.27976  0.80703  1.0000
  H   H549      1.0  0.54825  0.32349  0.87975  1.0000
  C   C310      1.0  0.77146  0.46788  0.79787  1.0000
  H   H550      1.0  0.96490  0.59189  0.86593  1.0000
  C   C311      1.0  0.93751  0.62981  0.80759  1.0000
  C   C312      1.0  0.00029  0.68372  0.84253  1.0000
  C   C313      1.0  0.62994  0.32649  0.76587  1.0000
  H   H551      1.0  0.87404  0.31522  0.69753  1.0000
  H   H552      1.0  0.80225  0.65518  0.77925  1.0000
  C   C314      1.0  0.78399  0.70384  0.72718  1.0000
  H   H553      1.0  0.60741  0.67568  0.75969  1.0000
  H   H554      1.0  0.01421  0.71930  0.83811  1.0000
  S   S69       1.0  0.52551  0.58724  0.85972  1.0000
  H   H555      1.0  0.74545  0.70286  0.74231  1.0000
  H   H556      1.0  0.64352  0.30720  0.79428  1.0000
  H   H557      1.0  0.89663  0.53867  0.79510  1.0000
  N   N18       1.0  0.97744  0.66358  0.79542  1.0000
  H   H558      1.0  0.66998  0.38557  0.66796  1.0000
  H   H559      1.0  0.68883  0.70803  0.68276  1.0000
  H   H560      1.0  0.65909  0.62509  0.69661  1.0000
  H   H561      1.0  0.71031  0.45661  0.72471  1.0000
  C   C315      1.0  0.68860  0.52937  0.66164  1.0000
  H   H562      1.0  0.66609  0.66783  0.78340  1.0000
  H   H563      1.0  0.54404  0.48217  0.82274  1.0000
  H   H564      1.0  0.53492  0.50982  0.76769  1.0000
  C   C316      1.0  0.71941  0.49453  0.73210  1.0000
  H   H565      1.0  0.80534  0.47014  0.77293  1.0000
  H   H566      1.0  0.87871  0.38953  0.79009  1.0000
  C   C317      1.0  0.94326  0.22785  0.72796  1.0000
  C   C318      1.0  0.56226  0.35122  0.72230  1.0000
  H   H567      1.0  0.87331  0.31032  0.81460  1.0000
  H   H568      1.0  0.90942  0.44053  0.73876  1.0000
  C   C319      1.0  0.94437  0.23760  0.78040  1.0000
  C   C320      1.0  0.68398  0.39799  0.87762  1.0000
  Fe  Fe35      1.0  0.73753  0.27150  0.68430  1.0000
  H   H569      1.0  0.84850  0.66081  0.72899  1.0000
  C   C321      1.0  0.57991  0.32857  0.76074  1.0000
  H   H570      1.0  0.95152  0.44403  0.68624  1.0000
  N   N19       1.0  0.67914  0.52489  0.71731  1.0000
  H   H571      1.0  0.84614  0.36731  0.64625  1.0000
  H   H572      1.0  0.91073  0.64687  0.83752  1.0000
  H   H573      1.0  0.87769  0.57070  0.85604  1.0000
  C   C322      1.0  0.63042  0.50206  0.72552  1.0000
  H   H574      1.0  0.60807  0.59394  0.72152  1.0000
  C   C323      1.0  0.87000  0.39663  0.65981  1.0000
  C   C324      1.0  0.95434  0.70309  0.77266  1.0000
  H   H575      1.0  0.52556  0.24004  0.73526  1.0000
  H   H576      1.0  0.76385  0.67941  0.65234  1.0000
  H   H577      1.0  0.99478  0.62222  0.72360  1.0000
  H   H578      1.0  0.75693  0.43179  0.79167  1.0000
  H   H579      1.0  0.01124  0.39512  0.71524  1.0000
  H   H580      1.0  0.97230  0.68915  0.87513  1.0000
  H   H581      1.0  0.72378  0.54733  0.65446  1.0000
  H   H582      1.0  0.55485  0.31213  0.78601  1.0000
  H   H583      1.0  0.55362  0.44875  0.76141  1.0000
  H   H584      1.0  0.79435  0.62773  0.71614  1.0000
  H   H585      1.0  0.63175  0.47189  0.79664  1.0000
  H   H586      1.0  0.67879  0.36146  0.86025  1.0000
  H   H587      1.0  0.58178  0.39070  0.66045  1.0000
  C   C325      1.0  0.94973  0.35422  0.64466  1.0000
  C   C326      1.0  0.97983  0.40689  0.74223  1.0000
  C   C327      1.0  0.61075  0.49876  0.78066  1.0000
  H   H588      1.0  0.96742  0.45954  0.80734  1.0000
  H   H589      1.0  0.71536  0.45692  0.63620  1.0000
  H   H590      1.0  0.82468  0.69727  0.65394  1.0000
  C   C328      1.0  0.01393  0.63965  0.75559  1.0000
  H   H591      1.0  0.82740  0.37943  0.75267  1.0000
  H   H592      1.0  0.82619  0.29515  0.77240  1.0000
  H   H593      1.0  0.91730  0.62000  0.77355  1.0000
  C   C329      1.0  0.93659  0.41936  0.71251  1.0000
  H   H594      1.0  0.55940  0.22852  0.81387  1.0000
  H   H595      1.0  0.98004  0.33938  0.66311  1.0000
  C   C330      1.0  0.86012  0.36310  0.76493  1.0000
  H   H596      1.0  0.61200  0.53271  0.80477  1.0000
  H   H597      1.0  0.87939  0.70663  0.80881  1.0000
  C   C331      1.0  0.63224  0.64992  0.77253  1.0000
  H   H598      1.0  0.75080  0.53902  0.79378  1.0000
  H   H599      1.0  0.84640  0.41933  0.68847  1.0000
  H   H600      1.0  0.59207  0.38944  0.86506  1.0000
  H   H601      1.0  0.76051  0.41636  0.08118  1.0000
  S   S70       1.0  0.63905  0.65423  0.91024  1.0000
  C   C332      1.0  0.69576  0.31561  0.04987  1.0000
  H   H602      1.0  0.74947  0.58871  0.09476  1.0000
  H   H603      1.0  0.82349  0.67459  0.92026  1.0000
  H   H604      1.0  0.80371  0.36740  0.01704  1.0000
  H   H605      1.0  0.88022  0.56736  0.99936  1.0000
  H   H606      1.0  0.74051  0.64309  0.93421  1.0000
  H   H607      1.0  0.81783  0.38101  0.11573  1.0000
  Fe  Fe36      1.0  0.61382  0.71799  0.96342  1.0000
  C   C333      1.0  0.61112  0.29038  0.07924  1.0000
  H   H608      1.0  0.56303  0.48621  0.96660  1.0000
  H   H609      1.0  0.79783  0.53386  0.01020  1.0000
  C   C334      1.0  0.82803  0.29859  0.94198  1.0000
  H   H610      1.0  0.65380  0.44654  0.93935  1.0000
  C   C335      1.0  0.54377  0.36696  0.95443  1.0000
  C   C336      1.0  0.59374  0.41648  0.89803  1.0000
  C   C337      1.0  0.79234  0.29443  0.98792  1.0000
  H   H611      1.0  0.65653  0.48751  0.04938  1.0000
  H   H612      1.0  0.95801  0.25251  0.09026  1.0000
  C   C338      1.0  0.55677  0.45108  0.97982  1.0000
  S   S71       1.0  0.98470  0.59812  0.05918  1.0000
  H   H613      1.0  0.66374  0.47084  0.11118  1.0000
  H   H614      1.0  0.76895  0.28430  0.09186  1.0000
  C   C339      1.0  0.76374  0.58625  0.97291  1.0000
  C   C340      1.0  0.56698  0.60866  0.12984  1.0000
  H   H615      1.0  0.75223  0.35746  0.98231  1.0000
  S   S72       1.0  0.57179  0.59397  0.98677  1.0000
  C   C341      1.0  0.54428  0.27775  0.93766  1.0000
  C   C342      1.0  0.64391  0.41204  0.91949  1.0000
  C   C343      1.0  0.81792  0.64357  0.93934  1.0000
  C   C344      1.0  0.84994  0.58318  0.98404  1.0000
  H   H616      1.0  0.65681  0.40163  0.04698  1.0000
  H   H617      1.0  0.70836  0.42122  0.00953  1.0000
  C   C345      1.0  0.76622  0.32327  0.10004  1.0000
  S   S73       1.0  0.70507  0.56589  0.98700  1.0000
  H   H618      1.0  0.59319  0.31011  0.05246  1.0000
  H   H619      1.0  0.70598  0.27809  0.03836  1.0000
  H   H620      1.0  0.56089  0.24706  0.91305  1.0000
  H   H621      1.0  0.59217  0.62017  0.10098  1.0000
  N   N20       1.0  0.74038  0.34420  0.06022  1.0000
  H   H622      1.0  0.67826  0.32690  0.01719  1.0000
  C   C346      1.0  0.56142  0.32319  0.91758  1.0000
  S   S74       1.0  0.53557  0.69766  0.96639  1.0000
  C   C347      1.0  0.52807  0.48988  0.06772  1.0000
  C   C348      1.0  0.72722  0.39464  0.07962  1.0000
  Fe  Fe37      1.0  0.56171  0.63117  0.91976  1.0000
  C   C349      1.0  0.65713  0.31524  0.09522  1.0000
  H   H623      1.0  0.89489  0.24800  0.07794  1.0000
  H   H624      1.0  0.81007  0.31531  0.91288  1.0000
  H   H625      1.0  0.78334  0.63596  0.07038  1.0000
  N   N21       1.0  0.55007  0.41444  0.93548  1.0000
  C   C350      1.0  0.77240  0.34343  0.01170  1.0000
  C   C351      1.0  0.80342  0.56419  0.99003  1.0000
  S   S75       1.0  0.98858  0.71276  0.06120  1.0000
  H   H626      1.0  0.56346  0.36530  0.98891  1.0000
  H   H627      1.0  0.71955  0.64379  0.08887  1.0000
  H   H628      1.0  0.61985  0.25406  0.06145  1.0000
  C   C352      1.0  0.69218  0.41973  0.04859  1.0000
  S   S76       1.0  0.91443  0.64849  0.95464  1.0000
  H   H629      1.0  0.58529  0.28841  0.11299  1.0000
  H   H630      1.0  0.58960  0.44297  0.99877  1.0000
  C   C353      1.0  0.81782  0.34217  0.10896  1.0000
  Fe  Fe38      1.0  0.64790  0.61988  0.98000  1.0000
  C   C354      1.0  0.68147  0.47022  0.07230  1.0000
  H   H631      1.0  0.84094  0.26307  0.92518  1.0000
  H   H632      1.0  0.64329  0.38585  0.94689  1.0000
  H   H633      1.0  0.55491  0.27624  0.97655  1.0000
  H   H634      1.0  0.76237  0.27165  0.97480  1.0000
  H   H635      1.0  0.53705  0.52506  0.05655  1.0000
  S   S77       1.0  0.62999  0.68560  0.03250  1.0000
  Fe  Fe39      1.0  0.94086  0.65424  0.03202  1.0000
  H   H636      1.0  0.59383  0.45052  0.88179  1.0000
  H   H637      1.0  0.71107  0.39760  0.11942  1.0000
  H   H638      1.0  0.75923  0.71219  0.03069  1.0000
  C   C355      1.0  0.77101  0.62576  0.94724  1.0000
  Fe  Fe40      1.0  0.55286  0.66247  0.03273  1.0000
  H   H639      1.0  0.71999  0.39999  0.89341  1.0000
  H   H640      1.0  0.86009  0.31948  0.95304  1.0000
  C   C356      1.0  0.92517  0.23048  0.09361  1.0000
  C   C357      1.0  0.85711  0.62295  0.95889  1.0000
  H   H641      1.0  0.71546  0.49086  0.07350  1.0000
  C   C358      1.0  0.75365  0.62742  0.09820  1.0000
  S   S78       1.0  0.88777  0.66186  0.10062  1.0000
  H   H642      1.0  0.81157  0.27635  0.01507  1.0000
  H   H643      1.0  0.60169  0.32175  0.91273  1.0000
  H   H644      1.0  0.55945  0.47590  0.08503  1.0000
  H   H645      1.0  0.64645  0.35104  0.11286  1.0000
  H   H646      1.0  0.84380  0.33086  0.07590  1.0000
  H   H647      1.0  0.67173  0.29574  0.12414  1.0000
  Fe  Fe41      1.0  0.93568  0.61032  0.13057  1.0000
  C   C359      1.0  0.63596  0.32484  0.22612  1.0000
  C   C360      1.0  0.83700  0.32375  0.15501  1.0000
  H   H648      1.0  0.89387  0.34107  0.25604  1.0000
  C   C361      1.0  0.00089  0.43943  0.18103  1.0000
  C   C362      1.0  0.56917  0.53449  0.34472  1.0000
  H   H649      1.0  0.53026  0.32230  0.35017  1.0000
  H   H650      1.0  0.82798  0.61689  0.25530  1.0000
  S   S79       1.0  0.91096  0.54968  0.17189  1.0000
  H   H651      1.0  0.66371  0.29336  0.34221  1.0000
  H   H652      1.0  0.84886  0.53632  0.26845  1.0000
  H   H653      1.0  0.01248  0.56938  0.15593  1.0000
  C   C363      1.0  0.58038  0.57199  0.15620  1.0000
  H   H654      1.0  0.81393  0.33690  0.18976  1.0000
  C   C364      1.0  0.81249  0.55113  0.28283  1.0000
  H   H655      1.0  0.92353  0.45337  0.19218  1.0000
  C   C365      1.0  0.76869  0.69256  0.25124  1.0000
  H   H656      1.0  0.61562  0.55517  0.14726  1.0000
  C   C366      1.0  0.56634  0.33630  0.35939  1.0000
  H   H657      1.0  0.64362  0.61112  0.23667  1.0000
  H   H658      1.0  0.65064  0.52782  0.27597  1.0000
  H   H659      1.0  0.96213  0.38093  0.29957  1.0000
  S   S80       1.0  0.96134  0.27233  0.27714  1.0000
  H   H660      1.0  0.56363  0.24610  0.34934  1.0000
  C   C367      1.0  0.65935  0.28137  0.22517  1.0000
  H   H661      1.0  0.72809  0.23462  0.31195  1.0000
  H   H662      1.0  0.71407  0.60089  0.18491  1.0000
  H   H663      1.0  0.75551  0.72274  0.23317  1.0000
  H   H664      1.0  0.87476  0.33588  0.15937  1.0000
  C   C368      1.0  0.97471  0.69809  0.31435  1.0000
  C   C369      1.0  0.96526  0.64802  0.32932  1.0000
  H   H665      1.0  0.67279  0.70263  0.25644  1.0000
  C   C370      1.0  0.54686  0.55494  0.19136  1.0000
  H   H666      1.0  0.59063  0.68271  0.31715  1.0000
  H   H667      1.0  0.80418  0.68215  0.23039  1.0000
  H   H668      1.0  0.99783  0.40302  0.18758  1.0000
  H   H669      1.0  0.86247  0.25089  0.26352  1.0000
  C   C371      1.0  0.56515  0.38883  0.35491  1.0000
  H   H670      1.0  0.57035  0.55840  0.31477  1.0000
  N   N22       1.0  0.73272  0.65296  0.24622  1.0000
  H   H671      1.0  0.80019  0.62834  0.15865  1.0000
  Fe  Fe42      1.0  0.93829  0.71675  0.13168  1.0000
  C   C372      1.0  0.62215  0.52213  0.35365  1.0000
  H   H672      1.0  0.01844  0.52169  0.27685  1.0000
  C   C373      1.0  0.74846  0.61121  0.27058  1.0000
  H   H673      1.0  0.81385  0.56511  0.32320  1.0000
  H   H674      1.0  0.83708  0.28482  0.15088  1.0000
  H   H675      1.0  0.64179  0.55324  0.36987  1.0000
  H   H676      1.0  0.78561  0.52241  0.27961  1.0000
  H   H677      1.0  0.78935  0.68354  0.32796  1.0000
  H   H678      1.0  0.79950  0.57454  0.21194  1.0000
  H   H679      1.0  0.55399  0.50086  0.32804  1.0000
  C   C374      1.0  0.93634  0.40566  0.32371  1.0000
  H   H680      1.0  0.53418  0.40556  0.37963  1.0000
  C   C375      1.0  0.76641  0.64620  0.15113  1.0000
  H   H681      1.0  0.69267  0.65809  0.17991  1.0000
  C   C376      1.0  0.86702  0.36265  0.28204  1.0000
  H   H682      1.0  0.91270  0.62978  0.27356  1.0000
  H   H683      1.0  0.68890  0.49530  0.31139  1.0000
  H   H684      1.0  0.85633  0.39337  0.26356  1.0000
  C   C377      1.0  0.96291  0.51469  0.17370  1.0000
  S   S81       1.0  0.98205  0.66600  0.16720  1.0000
  H   H685      1.0  0.68849  0.68303  0.31331  1.0000
  H   H686      1.0  0.97429  0.60981  0.25384  1.0000
  S   S82       1.0  0.56044  0.50389  0.21715  1.0000
  H   H687      1.0  0.02142  0.43593  0.28374  1.0000
  H   H688      1.0  0.83432  0.34103  0.28875  1.0000
  H   H689      1.0  0.64660  0.61260  0.30355  1.0000
  C   C378      1.0  0.58524  0.32681  0.22495  1.0000
  C   C379      1.0  0.72428  0.63858  0.19116  1.0000
  H   H690      1.0  0.63445  0.46914  0.28835  1.0000
  C   C380      1.0  0.58174  0.24262  0.22565  1.0000
  C   C381      1.0  0.79922  0.59017  0.25188  1.0000
  H   H691      1.0  0.74689  0.61973  0.31224  1.0000
  C   C382      1.0  0.64309  0.63470  0.27260  1.0000
  H   H692      1.0  0.77374  0.68423  0.15081  1.0000
  C   C383      1.0  0.59350  0.65894  0.28111  1.0000
  H   H693      1.0  0.56430  0.63251  0.28263  1.0000
  H   H694      1.0  0.72238  0.58199  0.26455  1.0000
  C   C384      1.0  0.71305  0.23865  0.35199  1.0000
  C   C385      1.0  0.55828  0.28550  0.22462  1.0000
  H   H695      1.0  0.89338  0.34753  0.35178  1.0000
  H   H696      1.0  0.85966  0.40117  0.35494  1.0000
  H   H697      1.0  0.56004  0.39456  0.31542  1.0000
  C   C386      1.0  0.63215  0.24046  0.22529  1.0000
  H   H698      1.0  0.74435  0.32964  0.13700  1.0000
  H   H699      1.0  0.91494  0.22751  0.13416  1.0000
  S   S83       1.0  0.72253  0.27647  0.21768  1.0000
  C   C387      1.0  0.94630  0.61529  0.28623  1.0000
  C   C388      1.0  0.68486  0.67097  0.27286  1.0000
  H   H700      1.0  0.56712  0.36008  0.22393  1.0000
  H   H701      1.0  0.00604  0.69525  0.28501  1.0000
  H   H702      1.0  0.94280  0.70781  0.29478  1.0000
  H   H703      1.0  0.64035  0.23434  0.33095  1.0000
  H   H704      1.0  0.59352  0.31966  0.33033  1.0000
  H   H705      1.0  0.93791  0.58055  0.29907  1.0000
  C   C389      1.0  0.95896  0.46792  0.18382  1.0000
  H   H706      1.0  0.92824  0.43306  0.29917  1.0000
  C   C390      1.0  0.00881  0.53332  0.16306  1.0000
  H   H707      1.0  0.58783  0.67927  0.24919  1.0000
  H   H708      1.0  0.65704  0.35652  0.22550  1.0000
  C   C391      1.0  0.77979  0.71196  0.30571  1.0000
  C   C392      1.0  0.65070  0.50250  0.30427  1.0000
  H   H709      1.0  0.99975  0.63204  0.33803  1.0000
  H   H710      1.0  0.73695  0.26257  0.37436  1.0000
  H   H711      1.0  0.96301  0.49561  0.34255  1.0000
  C   C393      1.0  0.88805  0.37879  0.33224  1.0000
  C   C394      1.0  0.98766  0.47024  0.35667  1.0000
  C   C395      1.0  0.66131  0.25850  0.35612  1.0000
  H   H712      1.0  0.62255  0.49410  0.37877  1.0000
  H   H713      1.0  0.93852  0.64883  0.36270  1.0000
  H   H714      1.0  0.59970  0.40550  0.36537  1.0000
  N   N23       1.0  0.95997  0.42736  0.37000  1.0000
  H   H715      1.0  0.96071  0.32565  0.37794  1.0000
  H   H716      1.0  0.87767  0.48003  0.36669  1.0000
  H   H717      1.0  0.02277  0.38094  0.35411  1.0000
  H   H718      1.0  0.64599  0.22926  0.42645  1.0000
  H   H719      1.0  0.60888  0.31435  0.59593  1.0000
  N   N24       1.0  0.53676  0.55544  0.38998  1.0000
  H   H720      1.0  0.57899  0.44597  0.46263  1.0000
  H   H721      1.0  0.94306  0.45515  0.44819  1.0000
  C   C396      1.0  0.55759  0.60130  0.41154  1.0000
  C   C397      1.0  0.56681  0.47545  0.49160  1.0000
  C   C398      1.0  0.70156  0.62731  0.50489  1.0000
  H   H722      1.0  0.81843  0.51368  0.43312  1.0000
  H   H723      1.0  0.76152  0.70906  0.50264  1.0000
  H   H724      1.0  0.00974  0.47262  0.57447  1.0000
  H   H725      1.0  0.66233  0.28962  0.43215  1.0000
  H   H726      1.0  0.55719  0.55002  0.49967  1.0000
  H   H727      1.0  0.82430  0.71433  0.48169  1.0000
  H   H728      1.0  0.60875  0.34898  0.42440  1.0000
  S   S84       1.0  0.93882  0.54212  0.54823  1.0000
  C   C399      1.0  0.77684  0.61366  0.45193  1.0000
  H   H729      1.0  0.66386  0.63854  0.50986  1.0000
  H   H730      1.0  0.90809  0.51797  0.41194  1.0000
  H   H731      1.0  0.62466  0.62470  0.62029  1.0000
  H   H732      1.0  0.90129  0.41338  0.42483  1.0000
  S   S85       1.0  0.81639  0.24077  0.50999  1.0000
  H   H733      1.0  0.55165  0.64779  0.48161  1.0000
  H   H734      1.0  0.83768  0.59043  0.48853  1.0000
  Fe  Fe43      1.0  0.97337  0.60049  0.50951  1.0000
  H   H735      1.0  0.64132  0.28263  0.51188  1.0000
  C   C400      1.0  0.60425  0.29836  0.51543  1.0000
  C   C401      1.0  0.01707  0.32203  0.42726  1.0000
  C   C402      1.0  0.55666  0.24234  0.39007  1.0000
  H   H736      1.0  0.84595  0.46654  0.56560  1.0000
  C   C403      1.0  0.96965  0.29557  0.56713  1.0000
  S   S86       1.0  0.00763  0.59013  0.43008  1.0000
  H   H737      1.0  0.52758  0.48459  0.40837  1.0000
  N   N25       1.0  0.58618  0.27659  0.42185  1.0000
  C   C404      1.0  0.79963  0.60026  0.49304  1.0000
  H   H738      1.0  0.60442  0.52797  0.45417  1.0000
  H   H739      1.0  0.74094  0.50359  0.56668  1.0000
  H   H740      1.0  0.81172  0.41715  0.58445  1.0000
  S   S87       1.0  0.56531  0.54390  0.61974  1.0000
  H   H741      1.0  0.00207  0.28987  0.44178  1.0000
  Fe  Fe44      1.0  0.88193  0.59647  0.57828  1.0000
  C   C405      1.0  0.57732  0.32701  0.41337  1.0000
  C   C406      1.0  0.84351  0.48625  0.44235  1.0000
  C   C407      1.0  0.83623  0.44593  0.59749  1.0000
  C   C408      1.0  0.72407  0.61258  0.54556  1.0000
  H   H742      1.0  0.94856  0.35776  0.43998  1.0000
  H   H743      1.0  0.79759  0.61497  0.41607  1.0000
  H   H744      1.0  0.53391  0.28401  0.48762  1.0000
  H   H745      1.0  0.85312  0.49531  0.48177  1.0000
  S   S88       1.0  0.70498  0.25730  0.61008  1.0000
  C   C409      1.0  0.72809  0.62815  0.45817  1.0000
  H   H746      1.0  0.58182  0.25872  0.57798  1.0000
  C   C410      1.0  0.52924  0.52076  0.42816  1.0000
  C   C411      1.0  0.77326  0.59980  0.53984  1.0000
  C   C412      1.0  0.92376  0.44315  0.41402  1.0000
  S   S89       1.0  0.91323  0.65302  0.53454  1.0000
  C   C413      1.0  0.99638  0.39401  0.38638  1.0000
  C   C414      1.0  0.63937  0.26327  0.41161  1.0000
  C   C415      1.0  0.88913  0.48385  0.40574  1.0000
  Fe  Fe45      1.0  0.97985  0.57122  0.61374  1.0000
  C   C416      1.0  0.58973  0.63393  0.60888  1.0000
  C   C417      1.0  0.58413  0.29578  0.56984  1.0000
  H   H747      1.0  0.90139  0.40414  0.58262  1.0000
  H   H748      1.0  0.60869  0.70572  0.60320  1.0000
  H   H749      1.0  0.56572  0.62436  0.38130  1.0000
  S   S90       1.0  0.70265  0.65306  0.40960  1.0000
  C   C418      1.0  0.57200  0.27153  0.47681  1.0000
  C   C419      1.0  0.55358  0.60012  0.60415  1.0000
  Fe  Fe46      1.0  0.95535  0.67362  0.60145  1.0000
  H   H750      1.0  0.59371  0.59614  0.42541  1.0000
  C   C420      1.0  0.97631  0.34942  0.40789  1.0000
  C   C421      1.0  0.56675  0.52156  0.46865  1.0000
  H   H751      1.0  0.00374  0.28622  0.58314  1.0000
  H   H752      1.0  0.57243  0.23384  0.48317  1.0000
  H   H753      1.0  0.60703  0.33593  0.50948  1.0000
  H   H754      1.0  0.59173  0.47774  0.52232  1.0000
  S   S91       1.0  0.01821  0.62600  0.57334  1.0000
  C   C422      1.0  0.53552  0.69214  0.58461  1.0000
  C   C423      1.0  0.93081  0.31262  0.60929  1.0000
  C   C424      1.0  0.70308  0.49090  0.57097  1.0000
  H   H755      1.0  0.95669  0.26394  0.54424  1.0000
  H   H756      1.0  0.54579  0.34242  0.43861  1.0000
  H   H757      1.0  0.00209  0.48942  0.39094  1.0000
  H   H758      1.0  0.01823  0.41306  0.41545  1.0000
  C   C425      1.0  0.52617  0.62923  0.45620  1.0000
  H   H759      1.0  0.73534  0.72218  0.59318  1.0000
  H   H760      1.0  0.93887  0.71687  0.42153  1.0000
  Fe  Fe47      1.0  0.66699  0.72127  0.44274  1.0000
  H   H761      1.0  0.89787  0.25372  0.44144  1.0000
  H   H762      1.0  0.81854  0.69561  0.56846  1.0000
  H   H763      1.0  0.70381  0.61228  0.58176  1.0000
  H   H764      1.0  0.82405  0.45233  0.43918  1.0000
  H   H765      1.0  0.54788  0.31303  0.57725  1.0000
  S   S92       1.0  0.80210  0.58527  0.59186  1.0000
  H   H766      1.0  0.97752  0.32325  0.54200  1.0000
  H   H767      1.0  0.70061  0.45745  0.54591  1.0000
  H   H768      1.0  0.67800  0.51696  0.55881  1.0000
  C   C426      1.0  0.58078  0.67978  0.59900  1.0000
  H   H769      1.0  0.89802  0.32226  0.59133  1.0000
  H   H770      1.0  0.01738  0.68566  0.39879  1.0000
  H   H771      1.0  0.52963  0.46842  0.50750  1.0000
  H   H772      1.0  0.90591  0.45607  0.62651  1.0000
  C   C427      1.0  0.68916  0.48270  0.62564  1.0000
  H   H773      1.0  0.96718  0.38004  0.62121  1.0000
  H   H774      1.0  0.65248  0.46690  0.62642  1.0000
  C   C428      1.0  0.88239  0.42601  0.61536  1.0000
  H   H775      1.0  0.92168  0.28254  0.63078  1.0000
  H   H776      1.0  0.81667  0.46974  0.62835  1.0000
  H   H777      1.0  0.01808  0.15523  0.64431  1.0000
  H   H778      1.0  0.81866  0.79557  0.70585  1.0000
  C   C429      1.0  0.68216  0.74572  0.68026  1.0000
  C   C430      1.0  0.68217  0.77963  0.87600  1.0000
  H   H779      1.0  0.98329  0.99573  0.64788  1.0000
  H   H780      1.0  0.58553  0.85006  0.87974  1.0000
  Fe  Fe48      1.0  0.83849  0.88078  0.85169  1.0000
  H   H781      1.0  0.88537  0.04580  0.64454  1.0000
  C   C431      1.0  0.54773  0.84270  0.87053  1.0000
  C   C432      1.0  0.60333  0.85533  0.64029  1.0000
  H   H782      1.0  0.86132  0.87048  0.69646  1.0000
  C   C433      1.0  0.61206  0.99779  0.83227  1.0000
  H   H783      1.0  0.75676  0.05887  0.77822  1.0000
  Fe  Fe49      1.0  0.78540  0.17513  0.67399  1.0000
  H   H784      1.0  0.55985  0.09766  0.70461  1.0000
  H   H785      1.0  0.92088  0.12187  0.86498  1.0000
  H   H786      1.0  0.84266  0.03723  0.73475  1.0000
  C   C434      1.0  0.85278  0.02487  0.77020  1.0000
  C   C435      1.0  0.01467  0.11611  0.79010  1.0000
  C   C436      1.0  0.81201  0.83624  0.64412  1.0000
  H   H787      1.0  0.57926  0.01343  0.71897  1.0000
  H   H788      1.0  0.61635  0.94609  0.68650  1.0000
  H   H789      1.0  0.95745  0.10062  0.64484  1.0000
  H   H790      1.0  0.85079  0.77128  0.64920  1.0000
  H   H791      1.0  0.67510  0.07246  0.81349  1.0000
  H   H792      1.0  0.83467  0.03599  0.84923  1.0000
  H   H793      1.0  0.85450  0.16492  0.81681  1.0000
  H   H794      1.0  0.76364  0.13659  0.80260  1.0000
  H   H795      1.0  0.84792  0.98628  0.76813  1.0000
  H   H796      1.0  0.63677  0.80177  0.72256  1.0000
  H   H797      1.0  0.95382  0.03526  0.69807  1.0000
  S   S93       1.0  0.78163  0.85434  0.80035  1.0000
  H   H798      1.0  0.57120  0.78498  0.81385  1.0000
  H   H799      1.0  0.65236  0.75546  0.75866  1.0000
  H   H800      1.0  0.00273  0.80891  0.80028  1.0000
  H   H801      1.0  0.89179  0.03258  0.77409  1.0000
  H   H802      1.0  0.98122  0.83371  0.69455  1.0000
  H   H803      1.0  0.77436  0.01945  0.68570  1.0000
  H   H804      1.0  0.59642  0.00418  0.87201  1.0000
  C   C437      1.0  0.71577  0.79327  0.83843  1.0000
  H   H805      1.0  0.98163  0.73028  0.76473  1.0000
  S   S94       1.0  0.83454  0.13360  0.71478  1.0000
  H   H806      1.0  0.88441  0.75864  0.74060  1.0000
  H   H807      1.0  0.00545  0.90769  0.66176  1.0000
  H   H808      1.0  0.58029  0.09059  0.76549  1.0000
  S   S95       1.0  0.91789  0.89108  0.83096  1.0000
  H   H809      1.0  0.60243  0.96191  0.81620  1.0000
  C   C438      1.0  0.81537  0.78795  0.66459  1.0000
  H   H810      1.0  0.83086  0.08780  0.81829  1.0000
  H   H811      1.0  0.68234  0.98956  0.79154  1.0000
  C   C439      1.0  0.61573  0.94376  0.64479  1.0000
  H   H812      1.0  0.92165  0.74301  0.84289  1.0000
  H   H813      1.0  0.69468  0.98051  0.67995  1.0000
  C   C440      1.0  0.87779  0.17265  0.73966  1.0000
  H   H814      1.0  0.64185  0.03057  0.72281  1.0000
  C   C441      1.0  0.87934  0.18211  0.79193  1.0000
  H   H815      1.0  0.71933  0.80991  0.67308  1.0000
  C   C442      1.0  0.95963  0.02728  0.65645  1.0000
  H   H816      1.0  0.86323  0.78877  0.80157  1.0000
  H   H817      1.0  0.80122  0.73413  0.74809  1.0000
  C   C443      1.0  0.99956  0.87697  0.63558  1.0000
  Fe  Fe50      1.0  0.68644  0.18667  0.63347  1.0000
  S   S96       1.0  0.94240  0.02576  0.87594  1.0000
  C   C444      1.0  0.82236  0.04998  0.81569  1.0000
  H   H818      1.0  0.90836  0.18884  0.66711  1.0000
  H   H819      1.0  0.59476  0.85952  0.68182  1.0000
  C   C445      1.0  0.66708  0.00178  0.83058  1.0000
  C   C446      1.0  0.98585  0.83503  0.65417  1.0000
  C   C447      1.0  0.59131  0.08737  0.72440  1.0000
  H   H820      1.0  0.76260  0.00392  0.80130  1.0000
  C   C448      1.0  0.90965  0.19576  0.70761  1.0000
  N   N26       1.0  0.77377  0.75490  0.65479  1.0000
  H   H821      1.0  0.89420  0.98564  0.65577  1.0000
  C   C449      1.0  0.85644  0.86603  0.65535  1.0000
  H   H822      1.0  0.96794  0.11335  0.72961  1.0000
  H   H823      1.0  0.71036  0.05945  0.64503  1.0000
  H   H824      1.0  0.77964  0.85656  0.66185  1.0000
  H   H825      1.0  0.91264  0.22256  0.85274  1.0000
  C   C450      1.0  0.89488  0.77097  0.77901  1.0000
  C   C451      1.0  0.72872  0.77544  0.68501  1.0000
  C   C452      1.0  0.64238  0.76334  0.72116  1.0000
  C   C453      1.0  0.98212  0.06988  0.63259  1.0000
  H   H826      1.0  0.62153  0.11209  0.71828  1.0000
  H   H827      1.0  0.67232  0.88893  0.63922  1.0000
  H   H828      1.0  0.66713  0.74480  0.87203  1.0000
  C   C454      1.0  0.69386  0.98371  0.63903  1.0000
  H   H829      1.0  0.79843  0.05192  0.63587  1.0000
  C   C455      1.0  0.61532  0.02895  0.64677  1.0000
  C   C456      1.0  0.60789  0.03711  0.70530  1.0000
  C   C457      1.0  0.74739  0.19544  0.85853  1.0000
  C   C458      1.0  0.77662  0.02090  0.64434  1.0000
  C   C459      1.0  0.76720  0.04232  0.81144  1.0000
  H   H830      1.0  0.59609  0.02376  0.81063  1.0000
  S   S97       1.0  0.71367  0.20325  0.71030  1.0000
  H   H831      1.0  0.55639  0.76787  0.87577  1.0000
  H   H832      1.0  0.92447  0.79664  0.77547  1.0000
  H   H833      1.0  0.70028  0.14482  0.82338  1.0000
  H   H834      1.0  0.00309  0.08139  0.80097  1.0000
  H   H835      1.0  0.65725  0.06962  0.87772  1.0000
  H   H836      1.0  0.01602  0.15549  0.72723  1.0000
  C   C460      1.0  0.73560  0.83828  0.84371  1.0000
  H   H837      1.0  0.60767  0.74563  0.71304  1.0000
  H   H838      1.0  0.66809  0.74882  0.64315  1.0000
  C   C461      1.0  0.91133  0.72961  0.80472  1.0000
  H   H839      1.0  0.73546  0.78360  0.72539  1.0000
  C   C462      1.0  0.73751  0.14518  0.83605  1.0000
  H   H840      1.0  0.74498  0.21957  0.82924  1.0000
  H   H841      1.0  0.78434  0.19808  0.87208  1.0000
  H   H842      1.0  0.99263  0.14383  0.81417  1.0000
  C   C463      1.0  0.68245  0.05320  0.84582  1.0000
  C   C464      1.0  0.54561  0.79127  0.84818  1.0000
  H   H843      1.0  0.72787  0.76823  0.80677  1.0000
  C   C465      1.0  0.00696  0.11921  0.73471  1.0000
  C   C466      1.0  0.91035  0.01497  0.63670  1.0000
  S   S98       1.0  0.96028  0.74378  0.64721  1.0000
  N   N27       1.0  0.73449  0.05932  0.85804  1.0000
  H   H844      1.0  0.67950  0.97713  0.85586  1.0000
  C   C467      1.0  0.91211  0.21489  0.81225  1.0000
  H   H845      1.0  0.85188  0.90124  0.64290  1.0000
  H   H846      1.0  0.53909  0.86444  0.84068  1.0000
  C   C468      1.0  0.74277  0.11034  0.87547  1.0000
  H   H847      1.0  0.88940  0.84923  0.63434  1.0000
  H   H848      1.0  0.63360  0.06029  0.63414  1.0000
  H   H849      1.0  0.57855  0.02961  0.63244  1.0000
  H   H850      1.0  0.57675  0.94484  0.63688  1.0000
  H   H851      1.0  0.71106  0.07285  0.96682  1.0000
  C   C469      1.0  0.72185  0.86951  0.88657  1.0000
  H   H852      1.0  0.99860  0.06596  0.98808  1.0000
  H   H853      1.0  0.64259  0.92969  0.02572  1.0000
  H   H854      1.0  0.95515  0.11142  0.99136  1.0000
  H   H855      1.0  0.90212  0.00255  0.12627  1.0000
  H   H856      1.0  0.55900  0.87029  0.99883  1.0000
  H   H857      1.0  0.98329  0.00841  0.07976  1.0000
  Fe  Fe51      1.0  0.84783  0.90637  0.96465  1.0000
  C   C470      1.0  0.72505  0.00387  0.98580  1.0000
  H   H858      1.0  0.67288  0.02701  0.93926  1.0000
  C   C471      1.0  0.55926  0.90085  0.97680  1.0000
  C   C472      1.0  0.86397  0.83852  0.05827  1.0000
  C   C473      1.0  0.74588  0.03100  0.89981  1.0000
  H   H859      1.0  0.53950  0.21752  0.06851  1.0000
  C   C474      1.0  0.94462  0.07595  0.07869  1.0000
  C   C475      1.0  0.71142  0.87271  0.11864  1.0000
  C   C476      1.0  0.86635  0.14479  0.92511  1.0000
  H   H860      1.0  0.82206  0.07809  0.01470  1.0000
  H   H861      1.0  0.76254  0.01135  0.99647  1.0000
  C   C477      1.0  0.56054  0.07840  0.99107  1.0000
  H   H862      1.0  0.98004  0.89929  0.03856  1.0000
  C   C478      1.0  0.01394  0.84386  0.07243  1.0000
  S   S99       1.0  0.81352  0.91759  0.04379  1.0000
  H   H863      1.0  0.75062  0.87856  0.12233  1.0000
  S   S100      1.0  0.69307  0.17969  0.11117  1.0000
  S   S101      1.0  0.85018  0.83825  0.91482  1.0000
  C   C479      1.0  0.88485  0.80826  0.08823  1.0000
  S   S102      1.0  0.62717  0.79517  0.96653  1.0000
  H   H864      1.0  0.95464  0.01325  0.02248  1.0000
  H   H865      1.0  0.59724  0.90902  0.07040  1.0000
  H   H866      1.0  0.70743  0.78169  0.02963  1.0000
  C   C480      1.0  0.71044  0.03634  0.94799  1.0000
  S   S103      1.0  0.98439  0.80051  0.90665  1.0000
  C   C481      1.0  0.77600  0.74619  0.02361  1.0000
  C   C482      1.0  0.60726  0.93808  0.04776  1.0000
  H   H867      1.0  0.52620  0.04526  0.10686  1.0000
  N   N28       1.0  0.98631  0.10593  0.06196  1.0000
  C   C483      1.0  0.56773  0.94596  0.01282  1.0000
  C   C484      1.0  0.87724  0.05580  0.95560  1.0000
  C   C485      1.0  0.53054  0.06210  0.02994  1.0000
  C   C486      1.0  0.84397  0.08815  0.98271  1.0000
  H   H868      1.0  0.72030  0.20678  0.89067  1.0000
  H   H869      1.0  0.00942  0.17750  0.08266  1.0000
  C   C487      1.0  0.90005  0.11266  0.89828  1.0000
  H   H870      1.0  0.87338  0.00740  0.06872  1.0000
  C   C488      1.0  0.60798  0.09172  0.99931  1.0000
  H   H871      1.0  0.86153  0.17883  0.91265  1.0000
  H   H872      1.0  0.73745  0.90403  0.89121  1.0000
  H   H873      1.0  0.91226  0.95785  0.07334  1.0000
  C   C489      1.0  0.52496  0.18412  0.08007  1.0000
  C   C490      1.0  0.54893  0.05819  0.07681  1.0000
  C   C491      1.0  0.99438  0.86311  0.02736  1.0000
  H   H874      1.0  0.77952  0.11498  0.88904  1.0000
  H   H875      1.0  0.77322  0.79980  0.11763  1.0000
  C   C492      1.0  0.93460  0.18198  0.06418  1.0000
  H   H876      1.0  0.96635  0.15676  0.12680  1.0000
  H   H877      1.0  0.55881  0.76938  0.10281  1.0000
  C   C493      1.0  0.66890  0.81093  0.91901  1.0000
  C   C494      1.0  0.83751  0.13222  0.96672  1.0000
  H   H878      1.0  0.88106  0.02134  0.96749  1.0000
  C   C495      1.0  0.73674  0.79024  0.10500  1.0000
  H   H879      1.0  0.93656  0.08238  0.12034  1.0000
  C   C496      1.0  0.99054  0.10264  0.00511  1.0000
  S   S104      1.0  0.92722  0.91917  0.95277  1.0000
  Fe  Fe52      1.0  0.92852  0.85385  0.89843  1.0000
  H   H880      1.0  0.78201  0.04059  0.91307  1.0000
  H   H881      1.0  0.55554  0.16335  0.09089  1.0000
  H   H882      1.0  0.96430  0.84065  0.01387  1.0000
  S   S105      1.0  0.83020  0.94809  0.90311  1.0000
  H   H883      1.0  0.81186  0.74870  0.03964  1.0000
  H   H884      1.0  0.59248  0.89568  0.95041  1.0000
  H   H885      1.0  0.64974  0.77088  0.09945  1.0000
  H   H886      1.0  0.74846  0.99319  0.88554  1.0000
  H   H887      1.0  0.53449  0.95756  0.03706  1.0000
  C   C497      1.0  0.90479  0.06781  0.91289  1.0000
  C   C498      1.0  0.62612  0.08813  0.04594  1.0000
  C   C499      1.0  0.97618  0.15582  0.08551  1.0000
  H   H888      1.0  0.72320  0.96651  0.96970  1.0000
  H   H889      1.0  0.75864  0.81989  0.03443  1.0000
  H   H890      1.0  0.71718  0.12260  0.90873  1.0000
  H   H891      1.0  0.64498  0.82534  0.07538  1.0000
  H   H892      1.0  0.94390  0.18724  0.02413  1.0000
  C   C500      1.0  0.59668  0.07169  0.08487  1.0000
  Fe  Fe53      1.0  0.76398  0.15245  0.07200  1.0000
  H   H893      1.0  0.55498  0.82889  0.08729  1.0000
  H   H894      1.0  0.70689  0.87603  0.07821  1.0000
  H   H895      1.0  0.67927  0.87977  0.95778  1.0000
  C   C501      1.0  0.90696  0.99611  0.08443  1.0000
  H   H896      1.0  0.69987  0.00940  0.02052  1.0000
  H   H897      1.0  0.57981  0.97483  0.99068  1.0000
  H   H898      1.0  0.63058  0.10550  0.96969  1.0000
  S   S106      1.0  0.75768  0.08165  0.09980  1.0000
  H   H899      1.0  0.55370  0.93503  0.88930  1.0000
  S   S107      1.0  0.54056  0.08079  0.93115  1.0000
  S   S108      1.0  0.79046  0.16998  0.99503  1.0000
  H   H900      1.0  0.66312  0.09794  0.05157  1.0000
  H   H901      1.0  0.00600  0.94646  0.88405  1.0000
  H   H902      1.0  0.98398  0.84447  0.10270  1.0000
  C   C502      1.0  0.64994  0.80950  0.11073  1.0000
  C   C503      1.0  0.95100  0.02222  0.06404  1.0000
  H   H903      1.0  0.02325  0.86319  0.99597  1.0000
  C   C504      1.0  0.68861  0.85587  0.92414  1.0000
  H   H904      1.0  0.61173  0.97043  0.07402  1.0000
  H   H905      1.0  0.86255  0.82785  0.01840  1.0000
  H   H906      1.0  0.90022  0.16222  0.06650  1.0000
  H   H907      1.0  0.89958  0.77469  0.07105  1.0000
  H   H908      1.0  0.91068  0.08615  0.06288  1.0000
  H   H909      1.0  0.72954  0.75425  0.11547  1.0000
  H   H910      1.0  0.99239  0.15058  0.91792  1.0000
  C   C505      1.0  0.84371  0.88152  0.08019  1.0000
  C   C506      1.0  0.74260  0.78710  0.04642  1.0000
  H   H911      1.0  0.78199  0.74680  0.98214  1.0000
  C   C507      1.0  0.55767  0.80703  0.11858  1.0000
  Fe  Fe54      1.0  0.91030  0.95567  0.88721  1.0000
  H   H912      1.0  0.70337  0.96463  0.09647  1.0000
  C   C508      1.0  0.99814  0.77959  0.33390  1.0000
  H   H913      1.0  0.82729  0.76215  0.34386  1.0000
  C   C509      1.0  0.96526  0.84910  0.29486  1.0000
  Fe  Fe55      1.0  0.73533  0.20416  0.17700  1.0000
  H   H914      1.0  0.68632  0.91411  0.19128  1.0000
  S   S109      1.0  0.80633  0.18297  0.13485  1.0000
  H   H915      1.0  0.97689  0.92290  0.13755  1.0000
  H   H916      1.0  0.87189  0.20769  0.36116  1.0000
  C   C510      1.0  0.88764  0.13546  0.22556  1.0000
  H   H917      1.0  0.62426  0.06079  0.37613  1.0000
  H   H918      1.0  0.94273  0.93524  0.22702  1.0000
  C   C511      1.0  0.00152  0.93454  0.16724  1.0000
  H   H919      1.0  0.80684  0.93801  0.24183  1.0000
  H   H920      1.0  0.86879  0.87535  0.20187  1.0000
  H   H921      1.0  0.64991  0.20685  0.22453  1.0000
  N   N29       1.0  0.98398  0.73562  0.35707  1.0000
  C   C512      1.0  0.93750  0.13524  0.23132  1.0000
  H   H922      1.0  0.59984  0.85687  0.16248  1.0000
  H   H923      1.0  0.79513  0.97465  0.32912  1.0000
  H   H924      1.0  0.00347  0.85873  0.28533  1.0000
  H   H925      1.0  0.76978  0.84781  0.28731  1.0000
  H   H926      1.0  0.92300  0.78987  0.31277  1.0000
  C   C513      1.0  0.83456  0.14167  0.36510  1.0000
  H   H927      1.0  0.61756  0.06543  0.31059  1.0000
  H   H928      1.0  0.66726  0.84291  0.20803  1.0000
  C   C514      1.0  0.74420  0.83329  0.21247  1.0000
  C   C515      1.0  0.69664  0.82040  0.18695  1.0000
  C   C516      1.0  0.60298  0.81959  0.14643  1.0000
  H   H929      1.0  0.80763  0.99461  0.21860  1.0000
  H   H930      1.0  0.71925  0.02090  0.37503  1.0000
  H   H931      1.0  0.00008  0.86613  0.19124  1.0000
  H   H932      1.0  0.85615  0.12653  0.33024  1.0000
  H   H933      1.0  0.64522  0.91464  0.14233  1.0000
  C   C517      1.0  0.88629  0.82137  0.14004  1.0000
  H   H934      1.0  0.53036  0.94362  0.21201  1.0000
  H   H935      1.0  0.00517  0.80887  0.36302  1.0000
  C   C518      1.0  0.81617  0.97550  0.25064  1.0000
  H   H936      1.0  0.77231  0.80542  0.20140  1.0000
  H   H937      1.0  0.81637  0.77392  0.28108  1.0000
  C   C519      1.0  0.88362  0.21880  0.25435  1.0000
  H   H938      1.0  0.00829  0.06029  0.14897  1.0000
  C   C520      1.0  0.53112  0.76308  0.29651  1.0000
  H   H939      1.0  0.68483  0.99088  0.15966  1.0000
  H   H940      1.0  0.95814  0.10285  0.22293  1.0000
  S   S110      1.0  0.61957  0.06958  0.14370  1.0000
  H   H941      1.0  0.95056  0.98972  0.20029  1.0000
  H   H942      1.0  0.99923  0.17723  0.25151  1.0000
  C   C521      1.0  0.70536  0.96121  0.13715  1.0000
  S   S111      1.0  0.87466  0.93630  0.37401  1.0000
  S   S112      1.0  0.72593  0.13734  0.21253  1.0000
  Fe  Fe56      1.0  0.79496  0.11442  0.16626  1.0000
  S   S113      1.0  0.85890  0.08526  0.19910  1.0000
  H   H943      1.0  0.75920  0.86686  0.20189  1.0000
  C   C522      1.0  0.53078  0.79335  0.34137  1.0000
  C   C523      1.0  0.97012  0.95953  0.21218  1.0000
  H   H944      1.0  0.83094  0.92854  0.14861  1.0000
  H   H945      1.0  0.85577  0.97774  0.25523  1.0000
  H   H946      1.0  0.71318  0.20366  0.36568  1.0000
  H   H947      1.0  0.72145  0.80552  0.28323  1.0000
  C   C524      1.0  0.72399  0.05904  0.37192  1.0000
  H   H948      1.0  0.60267  0.79775  0.17813  1.0000
  S   S114      1.0  0.99381  0.00328  0.36290  1.0000
  C   C525      1.0  0.86728  0.86496  0.16184  1.0000
  C   C526      1.0  0.83405  0.19494  0.36570  1.0000
  H   H949      1.0  0.78864  0.06809  0.28269  1.0000
  H   H950      1.0  0.82183  0.17704  0.23641  1.0000
  Fe  Fe57      1.0  0.68903  0.11062  0.14315  1.0000
  C   C527      1.0  0.96070  0.17732  0.24715  1.0000
  H   H951      1.0  0.83962  0.05059  0.31171  1.0000
  C   C528      1.0  0.86068  0.17700  0.23832  1.0000
  H   H952      1.0  0.94239  0.85854  0.26523  1.0000
  C   C529      1.0  0.82259  0.74567  0.30491  1.0000
  C   C530      1.0  0.96103  0.79671  0.29924  1.0000
  S   S115      1.0  0.57894  0.83195  0.35095  1.0000
  H   H953      1.0  0.70722  0.06306  0.29256  1.0000
  H   H954      1.0  0.81422  0.20547  0.33437  1.0000
  H   H955      1.0  0.96770  0.77741  0.26096  1.0000
  H   H956      1.0  0.55948  0.76556  0.26665  1.0000
  C   C531      1.0  0.78694  0.99597  0.29907  1.0000
  C   C532      1.0  0.84588  0.89494  0.13191  1.0000
  H   H957      1.0  0.54580  0.15070  0.27604  1.0000
  H   H958      1.0  0.64407  0.01305  0.32852  1.0000
  H   H959      1.0  0.68715  0.78394  0.19432  1.0000
  C   C533      1.0  0.93365  0.21915  0.25830  1.0000
  H   H960      1.0  0.70850  0.86735  0.28327  1.0000
  C   C534      1.0  0.68385  0.91464  0.15025  1.0000
  H   H961      1.0  0.53150  0.12894  0.18421  1.0000
  C   C535      1.0  0.79924  0.04828  0.31354  1.0000
  H   H962      1.0  0.74793  0.99172  0.29273  1.0000
  H   H963      1.0  0.56119  0.21073  0.22499  1.0000
  H   H964      1.0  0.56573  0.09223  0.25126  1.0000
  H   H965      1.0  0.68645  0.11254  0.33645  1.0000
  C   C536      1.0  0.64134  0.05183  0.33719  1.0000
  C   C537      1.0  0.73527  0.83867  0.27004  1.0000
  C   C538      1.0  0.69152  0.07379  0.33162  1.0000
  H   H966      1.0  0.95173  0.86963  0.33092  1.0000
  S   S116      1.0  0.91138  0.78338  0.17789  1.0000
  N   N30       1.0  0.77715  0.07040  0.36431  1.0000
  H   H967      1.0  0.76533  0.13556  0.33428  1.0000
  C   C539      1.0  0.78200  0.12284  0.36676  1.0000
  H   H968      1.0  0.99304  0.97305  0.24283  1.0000
  H   H969      1.0  0.77459  0.91019  0.37464  1.0000
  H   H970      1.0  0.74398  0.96381  0.14591  1.0000
  C   C540      1.0  0.53333  0.11541  0.26124  1.0000
  H   H971      1.0  0.74805  0.73180  0.32576  1.0000
  H   H972      1.0  0.85652  0.72645  0.28961  1.0000
  H   H973      1.0  0.90556  0.73466  0.37352  1.0000
  H   H974      1.0  0.52472  0.81305  0.14522  1.0000
  N   N31       1.0  0.69804  0.82416  0.13104  1.0000
  H   H975      1.0  0.91453  0.00371  0.59542  1.0000
  C   C541      1.0  0.52788  0.11832  0.51358  1.0000
  C   C542      1.0  0.81794  0.05066  0.49725  1.0000
  C   C543      1.0  0.80787  0.73169  0.56248  1.0000
  C   C544      1.0  0.63653  0.89432  0.62448  1.0000
  H   H976      1.0  0.53166  0.01698  0.48234  1.0000
  C   C545      1.0  0.64024  0.02299  0.54016  1.0000
  S   S117      1.0  0.60132  0.83938  0.49634  1.0000
  H   H977      1.0  0.56937  0.85523  0.62087  1.0000
  H   H978      1.0  0.78643  0.76643  0.49950  1.0000
  H   H979      1.0  0.71738  0.88497  0.44188  1.0000
  H   H980      1.0  0.81612  0.21201  0.40180  1.0000
  Fe  Fe58      1.0  0.94474  0.95755  0.40562  1.0000
  C   C546      1.0  0.00566  0.87939  0.58364  1.0000
  C   C547      1.0  0.92069  0.13913  0.50031  1.0000
  H   H981      1.0  0.85763  0.05361  0.48823  1.0000
  C   C548      1.0  0.89123  0.79310  0.46596  1.0000
  C   C549      1.0  0.54528  0.12779  0.56127  1.0000
  C   C550      1.0  0.62314  0.14936  0.52286  1.0000
  C   C551      1.0  0.77033  0.88834  0.49696  1.0000
  H   H982      1.0  0.69059  0.99959  0.47497  1.0000
  C   C552      1.0  0.65218  0.01161  0.48326  1.0000
  H   H983      1.0  0.79642  0.01317  0.40493  1.0000
  H   H984      1.0  0.64681  0.04358  0.46463  1.0000
  H   H985      1.0  0.91882  0.81773  0.39729  1.0000
  H   H986      1.0  0.65991  0.16148  0.52648  1.0000
  C   C553      1.0  0.75442  0.89302  0.44955  1.0000
  C   C554      1.0  0.90418  0.22198  0.45829  1.0000
  S   S118      1.0  0.00851  0.12162  0.44380  1.0000
  H   H987      1.0  0.00270  0.84124  0.50986  1.0000
  C   C555      1.0  0.95447  0.15347  0.46339  1.0000
  C   C556      1.0  0.79427  0.73041  0.50823  1.0000
  C   C557      1.0  0.94596  0.19495  0.44268  1.0000
  C   C558      1.0  0.80347  0.05128  0.40495  1.0000
  C   C559      1.0  0.64168  0.97801  0.56726  1.0000
  H   H988      1.0  0.89054  0.82765  0.48948  1.0000
  Fe  Fe59      1.0  0.00365  0.04325  0.43813  1.0000
  H   H989      1.0  0.76132  0.14074  0.40119  1.0000
  H   H990      1.0  0.96366  0.80712  0.43867  1.0000
  H   H991      1.0  0.54435  0.95473  0.47372  1.0000
  C   C560      1.0  0.84988  0.91545  0.46962  1.0000
  S   S119      1.0  0.69089  0.78989  0.41767  1.0000
  H   H992      1.0  0.74924  0.78168  0.58882  1.0000
  H   H993      1.0  0.84360  0.05352  0.39689  1.0000
  H   H994      1.0  0.80874  0.06803  0.53613  1.0000
  C   C561      1.0  0.59262  0.14380  0.56614  1.0000
  C   C562      1.0  0.93057  0.79270  0.42266  1.0000
  H   H995      1.0  0.89852  0.76576  0.49060  1.0000
  S   S120      1.0  0.66209  0.74846  0.52483  1.0000
  C   C563      1.0  0.97792  0.79498  0.62098  1.0000
  Fe  Fe60      1.0  0.67928  0.81852  0.49963  1.0000
  H   H996      1.0  0.01342  0.75543  0.45930  1.0000
  S   S121      1.0  0.58882  0.73497  0.43506  1.0000
  H   H997      1.0  0.82998  0.89700  0.54421  1.0000
  Fe  Fe61      1.0  0.58509  0.76685  0.51559  1.0000
  H   H998      1.0  0.66597  0.05005  0.55404  1.0000
  H   H999      1.0  0.97704  0.76609  0.54322  1.0000
  C   C564      1.0  0.60582  0.13918  0.47478  1.0000
  H   H1000     1.0  0.88700  0.92299  0.47721  1.0000
  C   C565      1.0  0.78662  0.90782  0.41170  1.0000
  Fe  Fe62      1.0  0.01264  0.95318  0.48782  1.0000
  H   H1001     1.0  0.67337  0.95607  0.54963  1.0000
  C   C566      1.0  0.83446  0.91867  0.42164  1.0000
  H   H1002     1.0  0.97078  0.20576  0.41329  1.0000
  S   S122      1.0  0.75631  0.15210  0.59931  1.0000
  S   S123      1.0  0.94998  0.00113  0.48026  1.0000
  H   H1003     1.0  0.80828  0.01300  0.49603  1.0000
  C   C567      1.0  0.93893  0.74267  0.39345  1.0000
  H   H1004     1.0  0.92731  0.10746  0.51705  1.0000
  C   C568      1.0  0.79027  0.07442  0.45984  1.0000
  H   H1005     1.0  0.79965  0.11217  0.46415  1.0000
  H   H1006     1.0  0.01212  0.12389  0.55518  1.0000
  C   C569      1.0  0.81762  0.90066  0.50752  1.0000
  H   H1007     1.0  0.71345  0.95181  0.61961  1.0000
  C   C570      1.0  0.72595  0.02556  0.62639  1.0000
  S   S124      1.0  0.73223  0.86375  0.54160  1.0000
  H   H1008     1.0  0.62803  0.98388  0.46719  1.0000
  C   C571      1.0  0.99741  0.83948  0.55000  1.0000
  C   C572      1.0  0.87859  0.16644  0.51617  1.0000
  H   H1009     1.0  0.85263  0.15538  0.54464  1.0000
  C   C573      1.0  0.87007  0.20758  0.49447  1.0000
  H   H1010     1.0  0.62920  0.14354  0.44127  1.0000
  H   H1011     1.0  0.70783  0.07723  0.40838  1.0000
  H   H1012     1.0  0.73083  0.02640  0.58501  1.0000
  H   H1013     1.0  0.97978  0.06262  0.59105  1.0000
  H   H1014     1.0  0.60315  0.03880  0.54636  1.0000
  H   H1015     1.0  0.75106  0.07130  0.47120  1.0000
  H   H1016     1.0  0.85350  0.13327  0.39798  1.0000
  S   S125      1.0  0.52504  0.74933  0.57129  1.0000
  H   H1017     1.0  0.64080  0.88977  0.58288  1.0000
  H   H1018     1.0  0.60919  0.95785  0.55552  1.0000
  C   C574      1.0  0.98352  0.79706  0.56875  1.0000
  S   S126      1.0  0.53481  0.11365  0.41081  1.0000
  H   H1019     1.0  0.85536  0.78765  0.45049  1.0000
  H   H1020     1.0  0.62164  0.82080  0.62873  1.0000
  C   C575      1.0  0.55787  0.12425  0.47025  1.0000
  Fe  Fe63      1.0  0.61163  0.80592  0.41623  1.0000
  S   S127      1.0  0.00360  0.90640  0.41622  1.0000
  H   H1021     1.0  0.81028  0.83194  0.60262  1.0000
  H   H1022     1.0  0.83966  0.75487  0.56682  1.0000
  C   C576      1.0  0.76413  0.74874  0.59993  1.0000
  N   N32       1.0  0.64222  0.98447  0.62434  1.0000
  S   S128      1.0  0.61244  0.15521  0.62689  1.0000
  H   H1023     1.0  0.79547  0.98880  0.62467  1.0000
  H   H1024     1.0  0.56812  0.20569  0.39346  1.0000
  Fe  Fe64      1.0  0.77704  0.22421  0.58155  1.0000
