data_image0
_chemical_formula_structural       H7FeCH2C2H3C2HC3H3CH2C3HFeCH2SHN2CHCH4SCH2C3H3CH2C2HCFeSHCH3C2NSH3SCSC2HCNHCH6C2H2FeC2H5C4H2CH6SC2HFeHCH2SH2CH4CHCH6CHFeSHCHCHCH3CHSCH7C2FeCH2SCH2CH3FeH2CSH3CH3CSCHSC2HCSCH2SH3FeCHC2NCSFeH3SCFeH3C2HCH3CHSC2H2CHC2HCH2FeHSCSHCHCH2CSCHC2HCSH2C3H6CSCH6SHSCFeCHC2H2CHCFeCSC2H2CH3CH3SHCSHCH4CH3SCHFeNCHFeHFeH2CHCH2C3H5CH6SHSC2FeCHC2H3NHCFeHSH3CSH4CSCHC3H2CHCH2FeSCHC2H4CH3C2HCH2NHCH2CSNC4SCSFeH7C2HCHCH2CH2CH3FeH3SHCH2SH8CHCH3C3HCHSH2CH2SHCH10SNH4CH5CHFeHCH2CH2FeSH3CSH2CH2C2H3FeCHNH8CHCHCH3Fe2H2CHCH2SC2HCH2CH2SHCHCHCH2C3HCHCH2CH2CH5SHSHCH2C2HFeHCH3CHSCH2CHCSHNH2C2H3CFeHCH4CS2HSH3C2FeC2HCHFeCHCHSH2C2H2CHCHCSC2HSHNCH3CH3SHC4HCHC2SH3CNHCH4CH9CH3CH3CFeHC2HC4HSCFeSCHCHCH3CH2C2H2FeC2H4C2H7C3HSH2CH2SH2C3HCHCSH2C3H4C2HCNFeSCH4CHCH4NCH2SH3C2SH3CH2CNH2C2HCFeCH8CH6CSH6CH3CHC2H3SFeC2FeH2CH2CH3C2SHFeH2SH2C2H6CH3CH3CSC2H2CH2SHFeHNHCH4C3H3CH3CFeH2SCSH5SH3CFeH4SH2CHCHCHC3HCHSHCHCH2CFeC2HCNHC2FeH3SFeCSH2C4H2CHSCH8CHSH2SC3H2SHSH2CHCH5SH3C2SCH2CSCH2CH2SH2C2SFe2CHNSCHCHC3HCH2FeCH2C2FeH3C2HCHC2HSCNCH7FeH3CH5CH3CHCHCH2C6H3SCHSCHC2H4CH2SHCH2C2HSCH2CH2SH3CFeC3HCH5NH6CH2CH3CHC3H3C2HC3HCH2CH3CNCH3C3HCH9CH11C2HCHCH3CH2SH2CH2FeHCH2CHCSHCH4SC2H9SC2H3CHCH2CHCSH5FeH3FeCHCHCH2CHC2H3CHCH4CH2C2H2C4H2CHSH7SH5CHC3H4CHC2H4SH3CHCHCH2CHCH3C2HC3HCH2SHCHCH9FeCNC2H2CH3CHCH7SC2HCHCH3FeHCS4CH4CH4CHCHCFeNH2C2HC3SH5CH3CH7NH4CHCH3CH2SH2C3H6SH2C2H5C2H2C3HCH6FeCSH5CHCFeNHCHCHC3H2C2FeH5CSCHCH4C2H2CH4CHC3HCH2NHFeH2C3HSCHCHSHCH2C2S3CHC2HC2HCNHCSCSHFeCH5CH2SHC3H5FeC2SCHFeHFeCH4CH3CSHSCHC2HNC2H4CH4SCH5C4HCS2NCHCH3C2HCFeHSC3H2CSH6CSH3FeH3C2HC2SC2H3SH4FeCH4CH2CHCSFeH3C4H2NFeHFeSHC2HC2HCH2SC2H3CNHC2H2FeC2H2C4H2SH3NH7CH4C2HSCFeCHFeCH6CHSHC5HC2SCFeH2CH4CH2CH4SHFeH2CFeC2HC2H3C2HCH2SCSH2FeCHSH3C2HSH5C2H2NH8FeCHCHFeH5CH7CHCH2CH2SCH3SC3HC4H4CHFeH3CHCHCH2CHC3SHCHCHCHCH6CHCSH3C3HFeCSCH2CNHCHCHNH3C3H5NH2CHCHCH2C2H2CH3SC4HCHCH5CH2CNCH5CHCH3FeH4CH4CH2CH5C3HFeSHCSH2C3HCHCH2SHC3H4C3HCSCHNHCH2C2H6CS2HCHCHCH2CH6SHCSCH3CS2C2HCHCHC3HCH2NHSH3FeCHC2SH2C3HSH5CH3C2H3CHCH10C2SH3CNCH4CH2SCFeHC3HCHC2H7CSCHFe2HSHSCH2CHCH2CHNCHCHC2H2CH2CHCH5CH3CHCH2FeCSCH4NH3CHCH4CSCH3CH2CH2CH4C3SH2C2SH3C2H3C3HCHC2HC2H12CHCHC2HNHC2HC5HSH3CHNFeHCH2SCH6CH2CH2SHFeC3HC4HCH6CH3CHCH8CSCSH5CH3CNH2SH2CHCHC2H3SH7SCHFeH2NSH4CHSH4C2H6C2HC4H3SC3HC2H2FeH3CSC2S2CFeSHCHCH3C5H2CH2FeCH4CH2CH2C2HCH5FeHC3HC2HCH2CH3C2HC2HCH3CHCHCH3SH5CH2C2H2C2HCSFeCFeCH4FeH3SCHCH2SC2H2CSH2FeH3CHCHNH5SFeCH3CH4CSH4C3H2CHCNCH2CH2CH2CH3CH2CHC2HCH3C2HC3FeSC2SH5CH2CHSHCH2C4HC3HCH3C2NH4SH4C3FeC2H3C3H4SCHSHSHCHC2H5SHC2HCH2FeH3SCHFeH5CHCNCH4NCSCH2C2SCH2CHCH2CH2CHCHSCH6CHCH9CHC2H2C3HC3H2CHCHC2H2SH4CH14C2H3C2SHCHCH6CNHCHC2HCH3C4SH4CHFeH3CH6CHCH3SCHCHCH2CSC3HCH2SHFeH3CH2CFeCH4C2H2CHFeSH3CSCFeC3HFeHCHNHS2H2SCHNHC2H6NHC2H3CFeCSH6CHC3NC2H2CH2CH2C3HCH2CH8SH5C2H5CHCHSC2H3CHFe2H4SH3C3H4SHFeCSH5CH2SHCHCHSC2HSH2CH3CHC2H5CH2SH4C2H2SH5CHSC2SFeSCHC2HCHC2NCHCHCHCHC2H3SCHSH5C2H2NCH3C2H4C2HCHC2H2C2HC2HCHCH2CHC3H2CH3C4H2SHCHCHC2HNCHFeHCH3CH2CHCH2CHSFeCSHCSHCFeH3C2HNCH7C2H5C2H3FeCH4CH2FeHSCHCHC2HFeHCH3SH2FeHCH2NC2FeHCHC2H5CFeCHCHSCSH2CH2CSH2C2H2CHCHFeCHS2HSHSHSH2CHCHC3H4CSHSH3CH4CHCH2CHFeSHNCH2CHSH4C3HCHCFeCHC2H8CHC2H3CHS
_chemical_formula_sum              "H2048 Fe128 C1152 S256 N64"
_cell_length_a       37.5552
_cell_length_b       49.4575
_cell_length_c       25.7849
_cell_angle_alpha    77.9113
_cell_angle_beta     80.9737
_cell_angle_gamma    83.6183

_space_group_name_H-M_alt    "P 1"
_space_group_IT_number       1

loop_
  _space_group_symop_operation_xyz
  'x, y, z'

loop_
  _atom_site_type_symbol
  _atom_site_label
  _atom_site_symmetry_multiplicity
  _atom_site_fract_x
  _atom_site_fract_y
  _atom_site_fract_z
  _atom_site_occupancy
  H   H1        1.0  0.06008  0.13380  0.79897  1.0000
  H   H2        1.0  0.18244  0.14321  0.88702  1.0000
  H   H3        1.0  0.10848  0.09983  0.77256  1.0000
  H   H4        1.0  0.02252  0.19144  0.76088  1.0000
  H   H5        1.0  0.43853  0.14511  0.98453  1.0000
  H   H6        1.0  0.00381  0.10344  0.71585  1.0000
  H   H7        1.0  0.04872  0.24913  0.89664  1.0000
  Fe  Fe1       1.0  0.28387  0.17421  0.97897  1.0000
  C   C1        1.0  0.01819  0.16429  0.99103  1.0000
  H   H8        1.0  0.29583  0.10268  0.73951  1.0000
  H   H9        1.0  0.33914  0.04230  0.06670  1.0000
  C   C2        1.0  0.28643  0.19584  0.66624  1.0000
  C   C3        1.0  0.43739  0.21691  0.01860  1.0000
  H   H10       1.0  0.03308  0.19485  0.64936  1.0000
  H   H11       1.0  0.48033  0.19770  0.06351  1.0000
  H   H12       1.0  0.09454  0.10410  0.70747  1.0000
  C   C4        1.0  0.41741  0.15094  0.64884  1.0000
  C   C5        1.0  0.02186  0.17193  0.03921  1.0000
  H   H13       1.0  0.22201  0.12865  0.69802  1.0000
  C   C6        1.0  0.24139  0.27561  0.72623  1.0000
  C   C7        1.0  0.15593  0.15285  0.87511  1.0000
  C   C8        1.0  0.25227  0.25673  0.06602  1.0000
  H   H14       1.0  0.39590  0.23679  0.79877  1.0000
  H   H15       1.0  0.15602  0.10582  0.83186  1.0000
  H   H16       1.0  0.98650  0.15858  0.66066  1.0000
  C   C9        1.0  0.44140  0.19147  0.87757  1.0000
  H   H17       1.0  0.38668  0.11851  0.88495  1.0000
  H   H18       1.0  0.25873  0.07501  0.99012  1.0000
  C   C10       1.0  0.17508  0.23986  0.99066  1.0000
  C   C11       1.0  0.03654  0.13991  0.97806  1.0000
  C   C12       1.0  0.40593  0.06620  0.03390  1.0000
  H   H19       1.0  0.17230  0.15531  0.04319  1.0000
  Fe  Fe2       1.0  0.05596  0.21484  0.10757  1.0000
  C   C13       1.0  0.33395  0.03812  0.80287  1.0000
  H   H20       1.0  0.33183  0.05351  0.69044  1.0000
  H   H21       1.0  0.41310  0.15460  0.90275  1.0000
  S   S1        1.0  0.01846  0.27709  0.77709  1.0000
  H   H22       1.0  0.98649  0.12414  0.80660  1.0000
  N   N1        1.0  0.14848  0.18148  0.88783  1.0000
  N   N2        1.0  0.21588  0.15568  0.62186  1.0000
  C   C14       1.0  0.41263  0.13641  0.75007  1.0000
  H   H23       1.0  0.12827  0.14629  0.07513  1.0000
  C   C15       1.0  0.30969  0.06187  0.71796  1.0000
  H   H24       1.0  0.16435  0.11557  0.67429  1.0000
  H   H25       1.0  0.35816  0.17638  0.78679  1.0000
  H   H26       1.0  0.15239  0.20101  0.95359  1.0000
  H   H27       1.0  0.05751  0.16342  0.70852  1.0000
  S   S2        1.0  0.27964  0.16656  0.06818  1.0000
  C   C16       1.0  0.04471  0.15565  0.07361  1.0000
  H   H28       1.0  0.00726  0.19053  0.04948  1.0000
  H   H29       1.0  0.37753  0.04013  0.73346  1.0000
  C   C17       1.0  0.43396  0.17385  0.08334  1.0000
  C   C18       1.0  0.17891  0.28090  0.76872  1.0000
  C   C19       1.0  0.16754  0.26805  0.73154  1.0000
  H   H30       1.0  0.16893  0.12176  0.76342  1.0000
  H   H31       1.0  0.44138  0.21103  0.84727  1.0000
  H   H32       1.0  0.10276  0.16977  0.99005  1.0000
  C   C20       1.0  0.37038  0.24791  0.81393  1.0000
  H   H33       1.0  0.22917  0.23418  0.82250  1.0000
  H   H34       1.0  0.31099  0.18167  0.65911  1.0000
  C   C21       1.0  0.15461  0.15100  0.81620  1.0000
  C   C22       1.0  0.43708  0.08241  0.63588  1.0000
  H   H35       1.0  0.13206  0.23484  0.62459  1.0000
  C   C23       1.0  0.40892  0.16090  0.70200  1.0000
  Fe  Fe3       1.0  0.11088  0.04605  0.87435  1.0000
  S   S3        1.0  0.28766  0.27380  0.73294  1.0000
  H   H36       1.0  0.45220  0.15659  0.80819  1.0000
  C   C24       1.0  0.18173  0.17043  0.64507  1.0000
  H   H37       1.0  0.11433  0.20124  0.64086  1.0000
  H   H38       1.0  0.13418  0.13978  0.98379  1.0000
  H   H39       1.0  0.28629  0.21366  0.63182  1.0000
  C   C25       1.0  0.38271  0.19275  0.03715  1.0000
  C   C26       1.0  0.17309  0.20173  0.85134  1.0000
  N   N3        1.0  0.00128  0.15696  0.73889  1.0000
  S   S4        1.0  0.04133  0.23806  0.02854  1.0000
  H   H40       1.0  0.34284  0.08978  0.74170  1.0000
  H   H41       1.0  0.17815  0.06529  0.68978  1.0000
  H   H42       1.0  0.39735  0.13671  0.64585  1.0000
  S   S5        1.0  0.32793  0.08158  0.92547  1.0000
  C   C27       1.0  0.18256  0.09115  0.11521  1.0000
  S   S6        1.0  0.03857  0.05510  0.99404  1.0000
  C   C28       1.0  0.22205  0.05082  0.88494  1.0000
  C   C29       1.0  0.31931  0.09115  0.71992  1.0000
  H   H43       1.0  0.45149  0.11730  0.88175  1.0000
  C   C30       1.0  0.21403  0.19193  0.84541  1.0000
  N   N4        1.0  0.30265  0.04209  0.77104  1.0000
  H   H44       1.0  0.28543  0.06446  0.69713  1.0000
  C   C31       1.0  0.22771  0.26046  0.90687  1.0000
  H   H45       1.0  0.07097  0.10351  0.00547  1.0000
  H   H46       1.0  0.33665  0.05745  0.81717  1.0000
  H   H47       1.0  0.16977  0.16694  0.78719  1.0000
  H   H48       1.0  0.38120  0.17128  0.70388  1.0000
  H   H49       1.0  0.44673  0.15742  0.11042  1.0000
  H   H50       1.0  0.24925  0.25747  0.65590  1.0000
  C   C32       1.0  0.00350  0.19902  0.65985  1.0000
  C   C33       1.0  0.45314  0.19641  0.05609  1.0000
  H   H51       1.0  0.18190  0.17020  0.68822  1.0000
  H   H52       1.0  0.18414  0.25127  0.66019  1.0000
  Fe  Fe4       1.0  0.09710  0.04103  0.99491  1.0000
  C   C34       1.0  0.24834  0.17141  0.62057  1.0000
  C   C35       1.0  0.17095  0.12275  0.80524  1.0000
  H   H53       1.0  0.16460  0.20793  0.81071  1.0000
  H   H54       1.0  0.30786  0.10877  0.63843  1.0000
  H   H55       1.0  0.29024  0.16967  0.78381  1.0000
  H   H56       1.0  0.28197  0.25439  0.06688  1.0000
  H   H57       1.0  0.44985  0.23922  0.11866  1.0000
  C   C36       1.0  0.13977  0.05411  0.08978  1.0000
  C   C37       1.0  0.25230  0.18052  0.67327  1.0000
  C   C38       1.0  0.09565  0.11475  0.74102  1.0000
  C   C39       1.0  0.47201  0.07959  0.64978  1.0000
  H   H58       1.0  0.09635  0.21839  0.94118  1.0000
  H   H59       1.0  0.01239  0.16361  0.81475  1.0000
  C   C40       1.0  0.15539  0.17999  0.94432  1.0000
  H   H60       1.0  0.10589  0.19403  0.83837  1.0000
  H   H61       1.0  0.24724  0.11656  0.64243  1.0000
  H   H62       1.0  0.12609  0.15375  0.80809  1.0000
  H   H63       1.0  0.27610  0.13499  0.79958  1.0000
  H   H64       1.0  0.15469  0.23161  0.02253  1.0000
  H   H65       1.0  0.24766  0.06076  0.77868  1.0000
  S   S7        1.0  0.12312  0.25782  0.74055  1.0000
  C   C41       1.0  0.35839  0.03823  0.09662  1.0000
  C   C42       1.0  0.19118  0.10739  0.65725  1.0000
  H   H66       1.0  0.20040  0.05720  0.85907  1.0000
  Fe  Fe5       1.0  0.25357  0.12818  0.06678  1.0000
  H   H67       1.0  0.21959  0.17298  0.82801  1.0000
  C   C43       1.0  0.20853  0.22443  0.98191  1.0000
  H   H68       1.0  0.22108  0.20165  0.11318  1.0000
  H   H69       1.0  0.18375  0.17202  0.94890  1.0000
  S   S8        1.0  0.33832  0.15084  0.96871  1.0000
  H   H70       1.0  0.36075  0.23724  0.85537  1.0000
  H   H71       1.0  0.19991  0.11945  0.81110  1.0000
  C   C44       1.0  0.41380  0.17283  0.86949  1.0000
  H   H72       1.0  0.48109  0.24843  0.76491  1.0000
  H   H73       1.0  0.43304  0.06475  0.00988  1.0000
  H   H74       1.0  0.20386  0.09858  0.03145  1.0000
  H   H75       1.0  0.44478  0.13986  0.64501  1.0000
  C   C45       1.0  0.05774  0.12463  0.76405  1.0000
  H   H76       1.0  0.05578  0.22987  0.84322  1.0000
  C   C46       1.0  0.27018  0.05458  0.80324  1.0000
  H   H77       1.0  0.46152  0.12823  0.04021  1.0000
  H   H78       1.0  0.00172  0.17752  0.96358  1.0000
  H   H79       1.0  0.05042  0.05575  0.68090  1.0000
  H   H80       1.0  0.43456  0.19679  0.91785  1.0000
  H   H81       1.0  0.32987  0.28363  0.87002  1.0000
  H   H82       1.0  0.03869  0.21333  0.91063  1.0000
  C   C47       1.0  0.00248  0.17576  0.77763  1.0000
  H   H83       1.0  0.13558  0.13888  0.89943  1.0000
  Fe  Fe6       1.0  0.00258  0.26322  0.07853  1.0000
  S   S9        1.0  0.30560  0.10166  0.06323  1.0000
  H   H84       1.0  0.09106  0.17581  0.90361  1.0000
  C   C48       1.0  0.29495  0.14873  0.80821  1.0000
  H   H85       1.0  0.11306  0.23651  0.87516  1.0000
  C   C49       1.0  0.13744  0.21279  0.64382  1.0000
  H   H86       1.0  0.39843  0.11894  0.74400  1.0000
  C   C50       1.0  0.03951  0.14613  0.72131  1.0000
  H   H87       1.0  0.16622  0.06573  0.00896  1.0000
  H   H88       1.0  0.34993  0.24698  0.78769  1.0000
  H   H89       1.0  0.44464  0.06000  0.86063  1.0000
  C   C51       1.0  0.16762  0.26525  0.95660  1.0000
  H   H90       1.0  0.33650  0.11561  0.81476  1.0000
  S   S10       1.0  0.03498  0.13146  0.91576  1.0000
  C   C52       1.0  0.44145  0.07460  0.88865  1.0000
  H   H91       1.0  0.46887  0.18071  0.87484  1.0000
  H   H92       1.0  0.26536  0.20902  0.81046  1.0000
  H   H93       1.0  0.38566  0.07558  0.00681  1.0000
  H   H94       1.0  0.25972  0.28180  0.98622  1.0000
  H   H95       1.0  0.22430  0.18758  0.88451  1.0000
  H   H96       1.0  0.35465  0.09845  0.64348  1.0000
  H   H97       1.0  0.39677  0.27773  0.84063  1.0000
  C   C53       1.0  0.32948  0.10795  0.66346  1.0000
  C   C54       1.0  0.19914  0.07902  0.69175  1.0000
  Fe  Fe7       1.0  0.41185  0.25591  0.62466  1.0000
  C   C55       1.0  0.22973  0.26451  0.68677  1.0000
  H   H98       1.0  0.25411  0.16236  0.70653  1.0000
  H   H99       1.0  0.19856  0.08080  0.73398  1.0000
  S   S11       1.0  0.46276  0.24353  0.98090  1.0000
  C   C56       1.0  0.27200  0.05466  0.98815  1.0000
  H   H100      1.0  0.35112  0.15660  0.85224  1.0000
  H   H101      1.0  0.13665  0.18234  0.05380  1.0000
  C   C57       1.0  0.42306  0.16408  0.81422  1.0000
  H   H102      1.0  0.13931  0.21175  0.68672  1.0000
  H   H103      1.0  0.04095  0.13695  0.68499  1.0000
  H   H104      1.0  0.03881  0.04939  0.75273  1.0000
  Fe  Fe8       1.0  0.33172  0.14058  0.05800  1.0000
  H   H105      1.0  0.11233  0.13268  0.72625  1.0000
  H   H106      1.0  0.38958  0.23141  0.98101  1.0000
  C   C58       1.0  0.13149  0.16162  0.98911  1.0000
  S   S12       1.0  0.10103  0.24134  0.10631  1.0000
  H   H107      1.0  0.38697  0.18478  0.87263  1.0000
  H   H108      1.0  0.42037  0.18361  0.78403  1.0000
  H   H109      1.0  0.21387  0.20455  0.00757  1.0000
  C   C59       1.0  0.37686  0.27801  0.81296  1.0000
  H   H110      1.0  0.07818  0.11730  0.08899  1.0000
  H   H111      1.0  0.28763  0.20416  0.70266  1.0000
  H   H112      1.0  0.04233  0.10607  0.77807  1.0000
  C   C60       1.0  0.40281  0.11628  0.84575  1.0000
  S   S13       1.0  0.46724  0.23856  0.64441  1.0000
  C   C61       1.0  0.40188  0.21544  0.00986  1.0000
  H   H113      1.0  0.28897  0.14965  0.85145  1.0000
  S   S14       1.0  0.05335  0.06060  0.86485  1.0000
  C   C62       1.0  0.39908  0.17171  0.07323  1.0000
  C   C63       1.0  0.22086  0.12716  0.65597  1.0000
  H   H114      1.0  0.33893  0.13861  0.75024  1.0000
  C   C64       1.0  0.36098  0.15476  0.81007  1.0000
  S   S15       1.0  0.27730  0.21662  0.92826  1.0000
  C   C65       1.0  0.19289  0.26064  0.68968  1.0000
  H   H115      1.0  0.24497  0.23891  0.05134  1.0000
  H   H116      1.0  0.45968  0.11037  0.98677  1.0000
  S   S16       1.0  0.14713  0.04307  0.79809  1.0000
  H   H117      1.0  0.46428  0.06966  0.91241  1.0000
  H   H118      1.0  0.22579  0.06931  0.67724  1.0000
  H   H119      1.0  0.35550  0.19140  0.02970  1.0000
  Fe  Fe9       1.0  0.05754  0.08724  0.92331  1.0000
  C   C66       1.0  0.18510  0.08750  0.06234  1.0000
  H   H120      1.0  0.27673  0.07381  0.81450  1.0000
  C   C67       1.0  0.16349  0.06910  0.04950  1.0000
  C   C68       1.0  0.06068  0.13019  0.06259  1.0000
  N   N5        1.0  0.39993  0.14298  0.80497  1.0000
  C   C69       1.0  0.05678  0.12243  0.01474  1.0000
  S   S17       1.0  0.25336  0.13790  0.97756  1.0000
  Fe  Fe10      1.0  0.08323  0.26656  0.03084  1.0000
  H   H121      1.0  0.40223  0.05417  0.80631  1.0000
  H   H122      1.0  0.23052  0.21673  0.76711  1.0000
  H   H123      1.0  0.24790  0.26827  0.87400  1.0000
  S   S18       1.0  0.36447  0.22992  0.64249  1.0000
  C   C70       1.0  0.46215  0.13088  0.99630  1.0000
  Fe  Fe11      1.0  0.30773  0.11391  0.97439  1.0000
  H   H124      1.0  0.46083  0.10487  0.82008  1.0000
  H   H125      1.0  0.42820  0.17655  0.70102  1.0000
  H   H126      1.0  0.41601  0.07103  0.91666  1.0000
  C   C71       1.0  0.23493  0.23486  0.94004  1.0000
  C   C72       1.0  0.33399  0.13757  0.79400  1.0000
  H   H127      1.0  0.23022  0.06945  0.89632  1.0000
  C   C73       1.0  0.30650  0.05191  0.95913  1.0000
  H   H128      1.0  0.40674  0.07990  0.06278  1.0000
  H   H129      1.0  0.08568  0.05097  0.72271  1.0000
  H   H130      1.0  0.41405  0.08036  0.66692  1.0000
  C   C74       1.0  0.09615  0.21973  0.89777  1.0000
  H   H131      1.0  0.46970  0.27240  0.83489  1.0000
  S   S19       1.0  0.11636  0.07523  0.92782  1.0000
  C   C75       1.0  0.05742  0.22844  0.88632  1.0000
  C   C76       1.0  0.44143  0.10459  0.85730  1.0000
  H   H132      1.0  0.15804  0.15924  0.64438  1.0000
  H   H133      1.0  0.39059  0.09960  0.83323  1.0000
  C   C77       1.0  0.19414  0.27554  0.91491  1.0000
  H   H134      1.0  0.44171  0.12865  0.74640  1.0000
  C   C78       1.0  0.14293  0.16149  0.04347  1.0000
  C   C79       1.0  0.10977  0.19155  0.88110  1.0000
  H   H135      1.0  0.33372  0.12954  0.66524  1.0000
  C   C80       1.0  0.23604  0.21427  0.80888  1.0000
  H   H136      1.0  0.22914  0.19499  0.68499  1.0000
  H   H137      1.0  0.17060  0.22157  0.86617  1.0000
  Fe  Fe12      1.0  0.33088  0.26752  0.66455  1.0000
  H   H138      1.0  0.99874  0.21538  0.68435  1.0000
  S   S20       1.0  0.37716  0.14188  0.10321  1.0000
  C   C81       1.0  0.39653  0.03721  0.06354  1.0000
  S   S21       1.0  0.47931  0.07207  0.71672  1.0000
  H   H139      1.0  0.99036  0.22345  0.82137  1.0000
  C   C82       1.0  0.25455  0.03578  0.85616  1.0000
  H   H140      1.0  0.20417  0.26780  0.11745  1.0000
  C   C83       1.0  0.05906  0.04416  0.71927  1.0000
  H   H141      1.0  0.35462  0.05703  0.11489  1.0000
  H   H142      1.0  0.21091  0.03671  0.92200  1.0000
  C   C84       1.0  0.24399  0.28328  0.02585  1.0000
  S   S22       1.0  0.00940  0.24552  0.44602  1.0000
  C   C85       1.0  0.26300  0.03818  0.58348  1.0000
  H   H143      1.0  0.24544  0.05269  0.16941  1.0000
  C   C86       1.0  0.28614  0.26232  0.47910  1.0000
  C   C87       1.0  0.10934  0.08930  0.58871  1.0000
  H   H144      1.0  0.27972  0.21290  0.12256  1.0000
  C   C88       1.0  0.27610  0.27981  0.29024  1.0000
  S   S23       1.0  0.10677  0.14416  0.59604  1.0000
  H   H145      1.0  0.23284  0.09140  0.41163  1.0000
  H   H146      1.0  0.48205  0.11468  0.12981  1.0000
  C   C89       1.0  0.26776  0.21682  0.16277  1.0000
  C   C90       1.0  0.07901  0.13028  0.33716  1.0000
  C   C91       1.0  0.17265  0.20057  0.61599  1.0000
  H   H147      1.0  0.11639  0.11186  0.42722  1.0000
  H   H148      1.0  0.28240  0.24605  0.35800  1.0000
  H   H149      1.0  0.21214  0.21755  0.24689  1.0000
  H   H150      1.0  0.15261  0.15661  0.19402  1.0000
  H   H151      1.0  0.05464  0.06629  0.21058  1.0000
  H   H152      1.0  0.27538  0.12030  0.31938  1.0000
  C   C92       1.0  0.36758  0.21263  0.36366  1.0000
  S   S24       1.0  0.05706  0.16829  0.12645  1.0000
  C   C93       1.0  0.27540  0.21524  0.47775  1.0000
  H   H153      1.0  0.47205  0.18413  0.30696  1.0000
  H   H154      1.0  0.00461  0.19184  0.42239  1.0000
  H   H155      1.0  0.16599  0.05196  0.36463  1.0000
  H   H156      1.0  0.25891  0.18866  0.24181  1.0000
  H   H157      1.0  0.24526  0.04290  0.45233  1.0000
  H   H158      1.0  0.24839  0.19046  0.58856  1.0000
  S   S25       1.0  0.45743  0.09581  0.47429  1.0000
  H   H159      1.0  0.00574  0.22283  0.33989  1.0000
  S   S26       1.0  0.21049  0.11276  0.13306  1.0000
  C   C94       1.0  0.40820  0.10691  0.23226  1.0000
  Fe  Fe13      1.0  0.12749  0.18963  0.40181  1.0000
  C   C95       1.0  0.44359  0.20270  0.21724  1.0000
  H   H160      1.0  0.39639  0.04716  0.17058  1.0000
  C   C96       1.0  0.23962  0.22406  0.46877  1.0000
  C   C97       1.0  0.20078  0.16501  0.33716  1.0000
  H   H161      1.0  0.36854  0.23115  0.38126  1.0000
  H   H162      1.0  0.47690  0.22893  0.45779  1.0000
  C   C98       1.0  0.08208  0.21304  0.26239  1.0000
  H   H163      1.0  0.32419  0.19395  0.22416  1.0000
  C   C99       1.0  0.06165  0.12037  0.55026  1.0000
  Fe  Fe14      1.0  0.40071  0.08954  0.46767  1.0000
  C   C100      1.0  0.15804  0.07683  0.15501  1.0000
  S   S27       1.0  0.37596  0.04945  0.50218  1.0000
  C   C101      1.0  0.27258  0.18835  0.20077  1.0000
  C   C102      1.0  0.40174  0.20892  0.32406  1.0000
  H   H164      1.0  0.15165  0.23065  0.29023  1.0000
  H   H165      1.0  0.07916  0.09619  0.17970  1.0000
  C   C103      1.0  0.24211  0.13977  0.47849  1.0000
  H   H166      1.0  0.47762  0.15024  0.53214  1.0000
  H   H167      1.0  0.18404  0.22608  0.12250  1.0000
  H   H168      1.0  0.30428  0.27732  0.48157  1.0000
  C   C104      1.0  0.25888  0.13826  0.32903  1.0000
  H   H169      1.0  0.23599  0.11242  0.55416  1.0000
  H   H170      1.0  0.16744  0.06683  0.48739  1.0000
  H   H171      1.0  0.13874  0.18764  0.14896  1.0000
  S   S28       1.0  0.28324  0.06751  0.58884  1.0000
  H   H172      1.0  0.07719  0.08624  0.27789  1.0000
  C   C105      1.0  0.07002  0.07280  0.53796  1.0000
  S   S29       1.0  0.01681  0.23964  0.15742  1.0000
  H   H173      1.0  0.28545  0.23113  0.17279  1.0000
  C   C106      1.0  0.46393  0.16700  0.29065  1.0000
  H   H174      1.0  0.16624  0.20125  0.21671  1.0000
  H   H175      1.0  0.31419  0.09229  0.26330  1.0000
  H   H176      1.0  0.11784  0.04735  0.17299  1.0000
  H   H177      1.0  0.32807  0.17956  0.16421  1.0000
  C   C107      1.0  0.46247  0.08931  0.54188  1.0000
  H   H178      1.0  0.10404  0.17128  0.26472  1.0000
  H   H179      1.0  0.01327  0.25806  0.30868  1.0000
  H   H180      1.0  0.18570  0.14714  0.56273  1.0000
  S   S30       1.0  0.15406  0.16793  0.33599  1.0000
  C   C108      1.0  0.05281  0.09680  0.26081  1.0000
  H   H181      1.0  0.20969  0.12650  0.30911  1.0000
  Fe  Fe15      1.0  0.06450  0.22375  0.45327  1.0000
  N   N6        1.0  0.04706  0.13948  0.30649  1.0000
  C   C109      1.0  0.27466  0.15826  0.34686  1.0000
  H   H182      1.0  0.04670  0.14049  0.54418  1.0000
  Fe  Fe16      1.0  0.05986  0.26900  0.14718  1.0000
  H   H183      1.0  0.42505  0.20581  0.34681  1.0000
  Fe  Fe17      1.0  0.32497  0.07636  0.51720  1.0000
  H   H184      1.0  0.17894  0.16658  0.12955  1.0000
  H   H185      1.0  0.34319  0.21535  0.34337  1.0000
  C   C110      1.0  0.09881  0.06769  0.56813  1.0000
  H   H186      1.0  0.11297  0.07545  0.42994  1.0000
  C   C111      1.0  0.42494  0.15569  0.22956  1.0000
  H   H187      1.0  0.00906  0.13983  0.37848  1.0000
  H   H188      1.0  0.15563  0.07998  0.19570  1.0000
  C   C112      1.0  0.27958  0.05798  0.27743  1.0000
  C   C113      1.0  0.22667  0.25177  0.46729  1.0000
  C   C114      1.0  0.48091  0.17170  0.50860  1.0000
  H   H189      1.0  0.39534  0.16581  0.33012  1.0000
  H   H190      1.0  0.99796  0.05853  0.45233  1.0000
  H   H191      1.0  0.43708  0.11806  0.28904  1.0000
  H   H192      1.0  0.41946  0.15041  0.49706  1.0000
  H   H193      1.0  0.13567  0.09623  0.37068  1.0000
  C   C115      1.0  0.29392  0.08491  0.24348  1.0000
  H   H194      1.0  0.99980  0.23081  0.58835  1.0000
  H   H195      1.0  0.13626  0.04889  0.28860  1.0000
  H   H196      1.0  0.99849  0.23552  0.27104  1.0000
  H   H197      1.0  0.22213  0.20945  0.46323  1.0000
  H   H198      1.0  0.40534  0.08965  0.57057  1.0000
  H   H199      1.0  0.40163  0.16325  0.20710  1.0000
  S   S31       1.0  0.30760  0.07656  0.43817  1.0000
  H   H200      1.0  0.01349  0.10817  0.35563  1.0000
  S   S32       1.0  0.32057  0.15424  0.35406  1.0000
  C   C116      1.0  0.07851  0.18352  0.25625  1.0000
  C   C117      1.0  0.05426  0.08914  0.20608  1.0000
  Fe  Fe18      1.0  0.33726  0.11481  0.40891  1.0000
  C   C118      1.0  0.21548  0.23683  0.21622  1.0000
  H   H201      1.0  0.03248  0.13886  0.22892  1.0000
  C   C119      1.0  0.20543  0.21284  0.14366  1.0000
  C   C120      1.0  0.99595  0.24093  0.31105  1.0000
  H   H202      1.0  0.19211  0.06679  0.30186  1.0000
  H   H203      1.0  0.36163  0.03767  0.22613  1.0000
  H   H204      1.0  0.02151  0.17903  0.26959  1.0000
  N   N7        1.0  0.24290  0.03854  0.37024  1.0000
  H   H205      1.0  0.45530  0.15094  0.32642  1.0000
  C   C121      1.0  0.46635  0.17236  0.45515  1.0000
  Fe  Fe19      1.0  0.35553  0.24879  0.55788  1.0000
  H   H206      1.0  0.26598  0.19704  0.37323  1.0000
  S   S33       1.0  0.11334  0.23531  0.39438  1.0000
  H   H207      1.0  0.20059  0.20340  0.36427  1.0000
  H   H208      1.0  0.25049  0.24084  0.31632  1.0000
  H   H209      1.0  0.02939  0.10319  0.50588  1.0000
  C   C122      1.0  0.41306  0.21852  0.18559  1.0000
  S   S34       1.0  0.38881  0.09059  0.38563  1.0000
  H   H210      1.0  0.26210  0.12492  0.46066  1.0000
  H   H211      1.0  0.27378  0.15889  0.60942  1.0000
  H   H212      1.0  0.47987  0.15509  0.43610  1.0000
  H   H213      1.0  0.40439  0.25511  0.12422  1.0000
  C   C123      1.0  0.07721  0.10320  0.38022  1.0000
  S   S35       1.0  0.18107  0.26318  0.46290  1.0000
  C   C124      1.0  0.41512  0.12760  0.26528  1.0000
  H   H214      1.0  0.23983  0.08055  0.32381  1.0000
  C   C125      1.0  0.05285  0.12855  0.25518  1.0000
  C   C126      1.0  0.27682  0.24911  0.31598  1.0000
  C   C127      1.0  0.22571  0.04690  0.42262  1.0000
  H   H215      1.0  0.36502  0.19425  0.39680  1.0000
  H   H216      1.0  0.41697  0.16527  0.42790  1.0000
  C   C128      1.0  0.05142  0.09904  0.52946  1.0000
  H   H217      1.0  0.21386  0.17469  0.53935  1.0000
  C   C129      1.0  0.09115  0.11581  0.57854  1.0000
  H   H218      1.0  0.38974  0.13074  0.29237  1.0000
  H   H219      1.0  0.08356  0.14648  0.35916  1.0000
  Fe  Fe20      1.0  0.36050  0.05225  0.42066  1.0000
  S   S36       1.0  0.15829  0.18621  0.47020  1.0000
  C   C130      1.0  0.21042  0.07757  0.42046  1.0000
  H   H220      1.0  0.10680  0.22090  0.23693  1.0000
  C   C131      1.0  0.17934  0.25537  0.21929  1.0000
  C   C132      1.0  0.25381  0.18203  0.35811  1.0000
  H   H221      1.0  0.44812  0.15158  0.19901  1.0000
  H   H222      1.0  0.46166  0.18520  0.53157  1.0000
  H   H223      1.0  0.40313  0.08662  0.25906  1.0000
  H   H224      1.0  0.46589  0.19691  0.18661  1.0000
  C   C133      1.0  0.29822  0.23421  0.48512  1.0000
  H   H225      1.0  0.26061  0.05109  0.25517  1.0000
  H   H226      1.0  0.24534  0.27278  0.13880  1.0000
  H   H227      1.0  0.19447  0.21401  0.61536  1.0000
  C   C134      1.0  0.23187  0.25791  0.12273  1.0000
  C   C135      1.0  0.18854  0.08181  0.47376  1.0000
  H   H228      1.0  0.05556  0.10577  0.41382  1.0000
  C   C136      1.0  0.13689  0.05822  0.14231  1.0000
  H   H229      1.0  0.28515  0.19363  0.48054  1.0000
  H   H230      1.0  0.13211  0.08567  0.61090  1.0000
  N   N8        1.0  0.22973  0.23046  0.16181  1.0000
  H   H231      1.0  0.13594  0.26689  0.27867  1.0000
  C   C137      1.0  0.25041  0.27103  0.47020  1.0000
  H   H232      1.0  0.25008  0.16096  0.46115  1.0000
  H   H233      1.0  0.03033  0.09896  0.18670  1.0000
  C   C138      1.0  0.31260  0.17964  0.20460  1.0000
  S   S37       1.0  0.35102  0.11649  0.48960  1.0000
  N   N9        1.0  0.43311  0.17735  0.25851  1.0000
  C   C139      1.0  0.24182  0.13428  0.53881  1.0000
  C   C140      1.0  0.04467  0.17080  0.29203  1.0000
  C   C141      1.0  0.18513  0.19113  0.18772  1.0000
  C   C142      1.0  0.42580  0.16872  0.46493  1.0000
  S   S38       1.0  0.34092  0.22246  0.50450  1.0000
  C   C143      1.0  0.11278  0.09625  0.40348  1.0000
  S   S39       1.0  0.31859  0.28395  0.58179  1.0000
  Fe  Fe21      1.0  0.14202  0.23134  0.46566  1.0000
  H   H234      1.0  0.20384  0.17627  0.21072  1.0000
  H   H235      1.0  0.41027  0.18748  0.47661  1.0000
  H   H236      1.0  0.31558  0.15835  0.22899  1.0000
  H   H237      1.0  0.40413  0.22854  0.29419  1.0000
  H   H238      1.0  0.07187  0.08531  0.36387  1.0000
  H   H239      1.0  0.26938  0.13678  0.54635  1.0000
  H   H240      1.0  0.43188  0.10376  0.20189  1.0000
  C   C144      1.0  0.21678  0.18529  0.35399  1.0000
  C   C145      1.0  0.22528  0.03820  0.58930  1.0000
  H   H241      1.0  0.30307  0.04242  0.28182  1.0000
  C   C146      1.0  0.42627  0.24462  0.14749  1.0000
  H   H242      1.0  0.38914  0.22507  0.21249  1.0000
  C   C147      1.0  0.21263  0.15380  0.56528  1.0000
  H   H243      1.0  0.27895  0.28149  0.24614  1.0000
  H   H244      1.0  0.98744  0.10670  0.59829  1.0000
  C   C148      1.0  0.43226  0.08742  0.58164  1.0000
  H   H245      1.0  0.31162  0.03932  0.18118  1.0000
  H   H246      1.0  0.23556  0.24768  0.22987  1.0000
  C   C149      1.0  0.47445  0.05760  0.34814  1.0000
  H   H247      1.0  0.37540  0.18732  0.27685  1.0000
  H   H248      1.0  0.43412  0.25929  0.17015  1.0000
  H   H249      1.0  0.38395  0.11432  0.21200  1.0000
  Fe  Fe22      1.0  0.10612  0.17856  0.52357  1.0000
  H   H250      1.0  0.20677  0.07937  0.50460  1.0000
  H   H251      1.0  0.45486  0.21764  0.23591  1.0000
  H   H252      1.0  0.05898  0.22699  0.24863  1.0000
  S   S40       1.0  0.05651  0.04731  0.50924  1.0000
  H   H253      1.0  0.17485  0.10310  0.46921  1.0000
  C   C150      1.0  0.16013  0.03431  0.29804  1.0000
  H   H254      1.0  0.08396  0.21376  0.30462  1.0000
  H   H255      1.0  0.19286  0.08456  0.38896  1.0000
  S   S41       1.0  0.09173  0.22366  0.52484  1.0000
  H   H256      1.0  0.03936  0.17951  0.32930  1.0000
  H   H257      1.0  0.40396  0.20543  0.16102  1.0000
  H   H258      1.0  0.16868  0.20127  0.57403  1.0000
  H   H259      1.0  0.10440  0.12799  0.30900  1.0000
  H   H260      1.0  0.26189  0.17212  0.18500  1.0000
  H   H261      1.0  0.16052  0.25023  0.19426  1.0000
  H   H262      1.0  0.44673  0.05586  0.33995  1.0000
  H   H263      1.0  0.27141  0.10131  0.23692  1.0000
  C   C151      1.0  0.16248  0.17454  0.16346  1.0000
  H   H264      1.0  0.99571  0.19613  0.57943  1.0000
  C   C152      1.0  0.01237  0.13098  0.34143  1.0000
  H   H265      1.0  0.11322  0.04735  0.57487  1.0000
  H   H266      1.0  0.30732  0.08159  0.20358  1.0000
  H   H267      1.0  0.02818  0.08865  0.28604  1.0000
  C   C153      1.0  0.18342  0.04725  0.32826  1.0000
  C   C154      1.0  0.22201  0.14186  0.32319  1.0000
  C   C155      1.0  0.26007  0.06281  0.33260  1.0000
  H   H268      1.0  0.07926  0.13430  0.23126  1.0000
  C   C156      1.0  0.16029  0.25203  0.27663  1.0000
  H   H269      1.0  0.07658  0.18412  0.21366  1.0000
  S   S42       1.0  0.07623  0.17814  0.45496  1.0000
  H   H270      1.0  0.29822  0.23716  0.29322  1.0000
  H   H271      1.0  0.28024  0.07036  0.35192  1.0000
  C   C157      1.0  0.40016  0.18394  0.29683  1.0000
  H   H272      1.0  0.47089  0.19194  0.42601  1.0000
  H   H273      1.0  0.21512  0.13768  0.46815  1.0000
  S   S43       1.0  0.40454  0.27308  0.53889  1.0000
  H   H274      1.0  0.20830  0.05634  0.59735  1.0000
  C   C158      1.0  0.98836  0.21074  0.60752  1.0000
  H   H275      1.0  0.17831  0.25569  0.30422  1.0000
  H   H276      1.0  0.18462  0.27756  0.20478  1.0000
  H   H277      1.0  0.18878  0.10420  0.61679  1.0000
  H   H278      1.0  0.47387  0.07330  0.37342  1.0000
  H   H279      1.0  0.11832  0.27687  0.55784  1.0000
  H   H280      1.0  0.41629  0.16899  0.61509  1.0000
  H   H281      1.0  0.47250  0.03553  0.45651  1.0000
  H   H282      1.0  0.42036  0.03706  0.25718  1.0000
  H   H283      1.0  0.31217  0.47667  0.04541  1.0000
  H   H284      1.0  0.38922  0.46310  0.93939  1.0000
  S   S44       1.0  0.25417  0.40136  0.71705  1.0000
  N   N10       1.0  0.34314  0.32520  0.82912  1.0000
  H   H285      1.0  0.45480  0.49438  0.87995  1.0000
  H   H286      1.0  0.07014  0.40116  0.02387  1.0000
  H   H287      1.0  0.32154  0.29259  0.80256  1.0000
  H   H288      1.0  0.18500  0.38275  0.90615  1.0000
  C   C159      1.0  0.20261  0.52491  0.83431  1.0000
  H   H289      1.0  0.07006  0.47123  0.79632  1.0000
  H   H290      1.0  0.35759  0.38246  0.78421  1.0000
  H   H291      1.0  0.18849  0.29506  0.88829  1.0000
  H   H292      1.0  0.99814  0.42094  0.05801  1.0000
  H   H293      1.0  0.18380  0.51152  0.99725  1.0000
  C   C160      1.0  0.08561  0.41173  0.98602  1.0000
  H   H294      1.0  0.25162  0.30165  0.03875  1.0000
  Fe  Fe23      1.0  0.00895  0.31257  0.82118  1.0000
  H   H295      1.0  0.47072  0.40226  0.70919  1.0000
  C   C161      1.0  0.99287  0.38619  0.02325  1.0000
  H   H296      1.0  0.01495  0.48975  0.07675  1.0000
  H   H297      1.0  0.31367  0.52396  0.91513  1.0000
  C   C162      1.0  0.28664  0.53321  0.90529  1.0000
  H   H298      1.0  0.38716  0.36651  0.85212  1.0000
  H   H299      1.0  0.38285  0.37638  0.94264  1.0000
  Fe  Fe24      1.0  0.04986  0.35075  0.73129  1.0000
  S   S45       1.0  0.06215  0.31922  0.67891  1.0000
  H   H300      1.0  0.16191  0.36583  0.98884  1.0000
  H   H301      1.0  0.29114  0.33631  0.80140  1.0000
  H   H302      1.0  0.15290  0.36906  0.87552  1.0000
  C   C163      1.0  0.16256  0.38837  0.88182  1.0000
  S   S46       1.0  0.37950  0.29162  0.65489  1.0000
  H   H303      1.0  0.12312  0.49211  0.79770  1.0000
  H   H304      1.0  0.08150  0.35799  0.99977  1.0000
  C   C164      1.0  0.12993  0.37403  0.06117  1.0000
  H   H305      1.0  0.99730  0.36805  0.63151  1.0000
  H   H306      1.0  0.22557  0.33310  0.92729  1.0000
  C   C165      1.0  0.31178  0.34990  0.62790  1.0000
  C   C166      1.0  0.09801  0.36607  0.96095  1.0000
  H   H307      1.0  0.27727  0.30446  0.89152  1.0000
  H   H308      1.0  0.11902  0.34886  0.95461  1.0000
  H   H309      1.0  0.41298  0.42671  0.74385  1.0000
  Fe  Fe25      1.0  0.27713  0.43265  0.75089  1.0000
  C   C167      1.0  0.38017  0.35499  0.93741  1.0000
  H   H310      1.0  0.12929  0.35252  0.66979  1.0000
  N   N11       1.0  0.16550  0.52334  0.64088  1.0000
  H   H311      1.0  0.21246  0.46875  0.04541  1.0000
  H   H312      1.0  0.98911  0.47588  0.65671  1.0000
  H   H313      1.0  0.19006  0.37675  0.67611  1.0000
  H   H314      1.0  0.07796  0.47421  0.03183  1.0000
  H   H315      1.0  0.11120  0.41377  0.88278  1.0000
  H   H316      1.0  0.05505  0.38841  0.91518  1.0000
  H   H317      1.0  0.20729  0.34138  0.69550  1.0000
  H   H318      1.0  0.35666  0.32827  0.74338  1.0000
  C   C168      1.0  0.00150  0.45514  0.67374  1.0000
  H   H319      1.0  0.28165  0.45280  0.03652  1.0000
  C   C169      1.0  0.36314  0.33818  0.77556  1.0000
  H   H320      1.0  0.17679  0.34545  0.07992  1.0000
  C   C170      1.0  0.43131  0.41583  0.77114  1.0000
  H   H321      1.0  0.09018  0.44355  0.72572  1.0000
  H   H322      1.0  0.46024  0.28673  0.70884  1.0000
  H   H323      1.0  0.24447  0.36423  0.88777  1.0000
  Fe  Fe26      1.0  0.00481  0.30875  0.70591  1.0000
  Fe  Fe27      1.0  0.25825  0.46753  0.83786  1.0000
  H   H324      1.0  0.11450  0.39142  0.07799  1.0000
  H   H325      1.0  0.14172  0.37253  0.75038  1.0000
  C   C171      1.0  0.43110  0.51091  0.70061  1.0000
  H   H326      1.0  0.30406  0.42856  0.62835  1.0000
  C   C172      1.0  0.28052  0.32673  0.88815  1.0000
  H   H327      1.0  0.09051  0.51019  0.67445  1.0000
  H   H328      1.0  0.99527  0.41206  0.67740  1.0000
  S   S47       1.0  0.24582  0.47343  0.75400  1.0000
  C   C173      1.0  0.06952  0.43662  0.75843  1.0000
  C   C174      1.0  0.09841  0.43890  0.99525  1.0000
  H   H329      1.0  0.44996  0.30262  0.76639  1.0000
  C   C175      1.0  0.30486  0.33836  0.83570  1.0000
  H   H330      1.0  0.44037  0.40182  0.90359  1.0000
  H   H331      1.0  0.48069  0.32310  0.81805  1.0000
  C   C176      1.0  0.12813  0.52757  0.86852  1.0000
  H   H332      1.0  0.35067  0.31428  0.91268  1.0000
  H   H333      1.0  0.12858  0.47825  0.70727  1.0000
  S   S48       1.0  0.12564  0.28465  0.96465  1.0000
  H   H334      1.0  0.41534  0.50701  0.62522  1.0000
  C   C177      1.0  0.24275  0.34177  0.88961  1.0000
  H   H335      1.0  0.37755  0.36784  0.67232  1.0000
  C   C178      1.0  0.16285  0.35495  0.74993  1.0000
  H   H336      1.0  0.13998  0.49179  0.92889  1.0000
  C   C179      1.0  0.06838  0.45450  0.02721  1.0000
  H   H337      1.0  0.04426  0.45954  0.00582  1.0000
  H   H338      1.0  0.09945  0.52809  0.88138  1.0000
  C   C180      1.0  0.15254  0.48264  0.72285  1.0000
  C   C181      1.0  0.18213  0.35542  0.69301  1.0000
  C   C182      1.0  0.44670  0.40179  0.86118  1.0000
  H   H339      1.0  0.02908  0.45209  0.65175  1.0000
  C   C183      1.0  0.01545  0.41885  0.84253  1.0000
  H   H340      1.0  0.39127  0.31735  0.86802  1.0000
  C   C184      1.0  0.05774  0.45249  0.79779  1.0000
  H   H341      1.0  0.00669  0.39429  0.98257  1.0000
  H   H342      1.0  0.99434  0.41195  0.87481  1.0000
  C   C185      1.0  0.48447  0.49975  0.78046  1.0000
  H   H343      1.0  0.12216  0.43509  0.01712  1.0000
  H   H344      1.0  0.13907  0.29914  0.62258  1.0000
  C   C186      1.0  0.02759  0.40270  0.80334  1.0000
  H   H345      1.0  0.20202  0.39210  0.81070  1.0000
  H   H346      1.0  0.06074  0.44190  0.06775  1.0000
  H   H347      1.0  0.36065  0.34514  0.97115  1.0000
  H   H348      1.0  0.42998  0.33245  0.68400  1.0000
  H   H349      1.0  0.23133  0.52364  0.82032  1.0000
  S   S49       1.0  0.38267  0.43209  0.85331  1.0000
  H   H350      1.0  0.06521  0.41859  0.95804  1.0000
  S   S50       1.0  0.21578  0.47657  0.90500  1.0000
  H   H351      1.0  0.00367  0.45477  0.71630  1.0000
  C   C187      1.0  0.47626  0.30792  0.90208  1.0000
  H   H352      1.0  0.18805  0.42434  0.83188  1.0000
  H   H353      1.0  0.39286  0.33428  0.77590  1.0000
  C   C188      1.0  0.09823  0.51935  0.63175  1.0000
  C   C189      1.0  0.46746  0.30328  0.72753  1.0000
  H   H354      1.0  0.29194  0.32954  0.92365  1.0000
  Fe  Fe28      1.0  0.01147  0.50984  0.84816  1.0000
  H   H355      1.0  0.14979  0.33534  0.76625  1.0000
  C   C190      1.0  0.36314  0.32690  0.87455  1.0000
  H   H356      1.0  0.40704  0.34317  0.93858  1.0000
  H   H357      1.0  0.31437  0.32792  0.62979  1.0000
  H   H358      1.0  0.47274  0.32952  0.90900  1.0000
  C   C191      1.0  0.42277  0.41558  0.82608  1.0000
  H   H359      1.0  0.32658  0.37380  0.74569  1.0000
  S   S51       1.0  0.33045  0.45057  0.72052  1.0000
  C   C192      1.0  0.45831  0.33118  0.69211  1.0000
  H   H360      1.0  0.17975  0.38055  0.08881  1.0000
  H   H361      1.0  0.16165  0.40054  0.99649  1.0000
  C   C193      1.0  0.13200  0.40607  0.91005  1.0000
  H   H362      1.0  0.14446  0.42492  0.91338  1.0000
  C   C194      1.0  0.14370  0.38349  0.00083  1.0000
  S   S52       1.0  0.06832  0.39347  0.70902  1.0000
  H   H363      1.0  0.18278  0.35665  0.77628  1.0000
  N   N12       1.0  0.44505  0.50787  0.79721  1.0000
  H   H364      1.0  0.34086  0.36934  0.88420  1.0000
  H   H365      1.0  0.21968  0.46588  0.11313  1.0000
  C   C195      1.0  0.35472  0.36974  0.75487  1.0000
  C   C196      1.0  0.47856  0.38750  0.84198  1.0000
  H   H366      1.0  0.30422  0.36101  0.83371  1.0000
  H   H367      1.0  0.03263  0.34288  0.96474  1.0000
  H   H368      1.0  0.39268  0.50767  0.77220  1.0000
  C   C197      1.0  0.46392  0.40204  0.75160  1.0000
  Fe  Fe29      1.0  0.07560  0.28937  0.75266  1.0000
  H   H369      1.0  0.43460  0.47019  0.85530  1.0000
  C   C198      1.0  0.40931  0.49780  0.66847  1.0000
  H   H370      1.0  0.47617  0.33371  0.65330  1.0000
  H   H371      1.0  0.37988  0.50154  0.68130  1.0000
  H   H372      1.0  0.22979  0.33908  0.85527  1.0000
  H   H373      1.0  0.27072  0.34682  0.69649  1.0000
  C   C199      1.0  0.28403  0.38900  0.66637  1.0000
  S   S53       1.0  0.04322  0.52454  0.76801  1.0000
  S   S54       1.0  0.04269  0.29495  0.07177  1.0000
  H   H374      1.0  0.44920  0.29987  0.90758  1.0000
  S   S55       1.0  0.28514  0.42495  0.83721  1.0000
  H   H375      1.0  0.01288  0.37321  0.04728  1.0000
  H   H376      1.0  0.46170  0.34832  0.71225  1.0000
  H   H377      1.0  0.15806  0.40887  0.79937  1.0000
  C   C200      1.0  0.03046  0.44392  0.83952  1.0000
  C   C201      1.0  0.16137  0.36385  0.09334  1.0000
  Fe  Fe30      1.0  0.29927  0.49127  0.72841  1.0000
  C   C202      1.0  0.16242  0.51293  0.70089  1.0000
  C   C203      1.0  0.36679  0.35628  0.88388  1.0000
  H   H378      1.0  0.22448  0.29410  0.79553  1.0000
  C   C204      1.0  0.28683  0.36070  0.66600  1.0000
  H   H379      1.0  0.40774  0.37887  0.71078  1.0000
  Fe  Fe31      1.0  0.33608  0.44638  0.80723  1.0000
  C   C205      1.0  0.14457  0.47688  0.78388  1.0000
  H   H380      1.0  0.26108  0.50700  0.07908  1.0000
  C   C206      1.0  0.37936  0.38012  0.70313  1.0000
  H   H381      1.0  0.11227  0.35677  0.06745  1.0000
  S   S56       1.0  0.30497  0.52788  0.66040  1.0000
  H   H382      1.0  0.46004  0.50620  0.68619  1.0000
  H   H383      1.0  0.26712  0.51704  0.91870  1.0000
  C   C207      1.0  0.30580  0.40667  0.62770  1.0000
  C   C208      1.0  0.34089  0.29480  0.82956  1.0000
  H   H384      1.0  0.37100  0.40208  0.68711  1.0000
  H   H385      1.0  0.06726  0.32543  0.92344  1.0000
  C   C209      1.0  0.07350  0.36944  0.91653  1.0000
  H   H386      1.0  0.39407  0.52424  0.88388  1.0000
  C   C210      1.0  0.18820  0.50513  0.87738  1.0000
  H   H387      1.0  0.13504  0.45588  0.79861  1.0000
  C   C211      1.0  0.42131  0.49989  0.76167  1.0000
  S   S57       1.0  0.01559  0.46455  0.88781  1.0000
  C   C212      1.0  0.17841  0.40457  0.82761  1.0000
  C   C213      1.0  0.28547  0.46820  0.06055  1.0000
  H   H388      1.0  0.16927  0.47793  0.80163  1.0000
  S   S58       1.0  0.99139  0.34321  0.75113  1.0000
  H   H389      1.0  0.28570  0.45774  0.10305  1.0000
  N   N13       1.0  0.11488  0.39189  0.96440  1.0000
  C   C214      1.0  0.15216  0.48812  0.09594  1.0000
  H   H390      1.0  0.25779  0.50194  0.01291  1.0000
  H   H391      1.0  0.42076  0.47694  0.76884  1.0000
  H   H392      1.0  0.14794  0.47898  0.06151  1.0000
  C   C215      1.0  0.05433  0.41185  0.76085  1.0000
  H   H393      1.0  0.41664  0.47508  0.67402  1.0000
  H   H394      1.0  0.17516  0.46765  0.71141  1.0000
  H   H395      1.0  0.09007  0.37072  0.87655  1.0000
  S   S59       1.0  0.30951  0.48870  0.81275  1.0000
  H   H396      1.0  0.10567  0.45283  0.95611  1.0000
  C   C216      1.0  0.21753  0.48100  0.07492  1.0000
  C   C217      1.0  0.15806  0.34527  0.65848  1.0000
  C   C218      1.0  0.38930  0.48558  0.93913  1.0000
  C   C219      1.0  0.15112  0.50696  0.89550  1.0000
  H   H397      1.0  0.12797  0.50289  0.10039  1.0000
  C   C220      1.0  0.25559  0.49185  0.05572  1.0000
  H   H398      1.0  0.13582  0.40082  0.64547  1.0000
  C   C221      1.0  0.39652  0.50194  0.88174  1.0000
  C   C222      1.0  0.43439  0.49281  0.85396  1.0000
  S   S60       1.0  0.06741  0.32186  0.80335  1.0000
  H   H399      1.0  0.37494  0.49822  0.85990  1.0000
  H   H400      1.0  0.41021  0.48856  0.96303  1.0000
  H   H401      1.0  0.36249  0.49287  0.95866  1.0000
  C   C223      1.0  0.05017  0.34509  0.92546  1.0000
  N   N14       1.0  0.18659  0.50279  0.08248  1.0000
  H   H402      1.0  0.18816  0.51444  0.71608  1.0000
  C   C224      1.0  0.18584  0.52292  0.02960  1.0000
  H   H403      1.0  0.15904  0.32244  0.67215  1.0000
  H   H404      1.0  0.01586  0.38344  0.80566  1.0000
  H   H405      1.0  0.03236  0.34883  0.89379  1.0000
  H   H406      1.0  0.22426  0.48485  0.65135  1.0000
  C   C225      1.0  0.99099  0.49018  0.10781  1.0000
  H   H407      1.0  0.38905  0.28680  0.77172  1.0000
  H   H408      1.0  0.47958  0.46412  0.74302  1.0000
  H   H409      1.0  0.13156  0.43345  0.11331  1.0000
  H   H410      1.0  0.21151  0.53319  0.01769  1.0000
  H   H411      1.0  0.14226  0.52667  0.72200  1.0000
  H   H412      1.0  0.21477  0.28602  0.02140  1.0000
  H   H413      1.0  0.42492  0.53373  0.69097  1.0000
  H   H414      1.0  0.17991  0.43116  0.11432  1.0000
  H   H415      1.0  0.15971  0.28625  0.80169  1.0000
  C   C226      1.0  0.21568  0.28506  0.76552  1.0000
  H   H416      1.0  0.20775  0.44450  0.62056  1.0000
  H   H417      1.0  0.04202  0.52292  0.61887  1.0000
  H   H418      1.0  0.15933  0.48341  0.62195  1.0000
  C   C227      1.0  0.15070  0.52761  0.44581  1.0000
  H   H419      1.0  0.05909  0.45506  0.53623  1.0000
  H   H420      1.0  0.02357  0.39761  0.60368  1.0000
  H   H421      1.0  0.09837  0.47032  0.45403  1.0000
  C   C228      1.0  0.41830  0.44753  0.51868  1.0000
  Fe  Fe32      1.0  0.36957  0.49826  0.23542  1.0000
  H   H422      1.0  0.17461  0.30397  0.36698  1.0000
  C   C229      1.0  0.26547  0.33425  0.33291  1.0000
  C   C230      1.0  0.09411  0.36251  0.23186  1.0000
  H   H423      1.0  0.98649  0.44523  0.58383  1.0000
  C   C231      1.0  0.40901  0.44302  0.57964  1.0000
  C   C232      1.0  0.14522  0.34174  0.38057  1.0000
  C   C233      1.0  0.23459  0.43357  0.27830  1.0000
  C   C234      1.0  0.21422  0.42939  0.37357  1.0000
  H   H424      1.0  0.21019  0.31847  0.60266  1.0000
  S   S61       1.0  0.31761  0.49046  0.29054  1.0000
  C   C235      1.0  0.22321  0.46051  0.59175  1.0000
  Fe  Fe33      1.0  0.03830  0.46716  0.34744  1.0000
  S   S62       1.0  0.36505  0.35311  0.54175  1.0000
  C   C236      1.0  0.04531  0.30858  0.36594  1.0000
  H   H425      1.0  0.06507  0.51774  0.42870  1.0000
  C   C237      1.0  0.33319  0.36735  0.58848  1.0000
  H   H426      1.0  0.10835  0.39118  0.60159  1.0000
  C   C238      1.0  0.14463  0.30893  0.57969  1.0000
  H   H427      1.0  0.11457  0.34809  0.58629  1.0000
  H   H428      1.0  0.98767  0.31005  0.38402  1.0000
  H   H429      1.0  0.11199  0.32018  0.26384  1.0000
  C   C239      1.0  0.13393  0.50506  0.37639  1.0000
  H   H430      1.0  0.46295  0.41551  0.52453  1.0000
  H   H431      1.0  0.43408  0.44045  0.59867  1.0000
  C   C240      1.0  0.29046  0.37196  0.36726  1.0000
  C   C241      1.0  0.15906  0.52955  0.15880  1.0000
  H   H432      1.0  0.98620  0.41252  0.53080  1.0000
  H   H433      1.0  0.21874  0.43163  0.41282  1.0000
  Fe  Fe34      1.0  0.36814  0.30690  0.57071  1.0000
  C   C242      1.0  0.00653  0.38278  0.59439  1.0000
  C   C243      1.0  0.20205  0.42434  0.27185  1.0000
  H   H434      1.0  0.12169  0.30795  0.50758  1.0000
  H   H435      1.0  0.19221  0.50067  0.25726  1.0000
  H   H436      1.0  0.16796  0.38903  0.53486  1.0000
  H   H437      1.0  0.34616  0.40954  0.55754  1.0000
  C   C244      1.0  0.24089  0.43599  0.32918  1.0000
  C   C245      1.0  0.13069  0.43043  0.57336  1.0000
  H   H438      1.0  0.47047  0.34401  0.40443  1.0000
  H   H439      1.0  0.99195  0.51446  0.55933  1.0000
  H   H440      1.0  0.39197  0.46126  0.59102  1.0000
  H   H441      1.0  0.05266  0.48926  0.55168  1.0000
  H   H442      1.0  0.06689  0.32226  0.34566  1.0000
  H   H443      1.0  0.04902  0.28919  0.34965  1.0000
  H   H444      1.0  0.04036  0.37957  0.51839  1.0000
  C   C246      1.0  0.46050  0.49765  0.21850  1.0000
  C   C247      1.0  0.25224  0.33634  0.24027  1.0000
  C   C248      1.0  0.14930  0.46537  0.14805  1.0000
  H   H445      1.0  0.43342  0.43488  0.36516  1.0000
  S   S63       1.0  0.09125  0.45277  0.30547  1.0000
  H   H446      1.0  0.08874  0.30720  0.56701  1.0000
  H   H447      1.0  0.03383  0.48213  0.49578  1.0000
  C   C249      1.0  0.18114  0.32525  0.36753  1.0000
  H   H448      1.0  0.20492  0.33525  0.50274  1.0000
  H   H449      1.0  0.24285  0.36670  0.13769  1.0000
  S   S64       1.0  0.42291  0.49075  0.26805  1.0000
  H   H450      1.0  0.39252  0.45215  0.50138  1.0000
  H   H451      1.0  0.23584  0.32749  0.21630  1.0000
  C   C250      1.0  0.26017  0.33358  0.51500  1.0000
  C   C251      1.0  0.48098  0.44479  0.42719  1.0000
  C   C252      1.0  0.03037  0.36594  0.55675  1.0000
  H   H452      1.0  0.15577  0.44046  0.57259  1.0000
  C   C253      1.0  0.07961  0.32242  0.20089  1.0000
  H   H453      1.0  0.18466  0.33510  0.28174  1.0000
  C   C254      1.0  0.16721  0.38383  0.57920  1.0000
  S   S65       1.0  0.27498  0.51837  0.18814  1.0000
  H   H454      1.0  0.14966  0.42072  0.17510  1.0000
  H   H455      1.0  0.02525  0.33938  0.27487  1.0000
  C   C255      1.0  0.45839  0.49763  0.16482  1.0000
  C   C256      1.0  0.13363  0.40044  0.60324  1.0000
  C   C257      1.0  0.19302  0.51744  0.12571  1.0000
  H   H456      1.0  0.33658  0.41758  0.39746  1.0000
  H   H457      1.0  0.28084  0.32857  0.22951  1.0000
  H   H458      1.0  0.22057  0.36797  0.50563  1.0000
  H   H459      1.0  0.27818  0.34443  0.53273  1.0000
  C   C258      1.0  0.18129  0.42081  0.36659  1.0000
  C   C259      1.0  0.42305  0.43384  0.40833  1.0000
  H   H460      1.0  0.19715  0.42259  0.23256  1.0000
  C   C260      1.0  0.25084  0.36802  0.21920  1.0000
  N   N15       1.0  0.45299  0.42372  0.44217  1.0000
  Fe  Fe35      1.0  0.01685  0.40871  0.39119  1.0000
  S   S66       1.0  0.04408  0.43784  0.42475  1.0000
  C   C261      1.0  0.47563  0.34356  0.44586  1.0000
  H   H461      1.0  0.22317  0.37775  0.22758  1.0000
  H   H462      1.0  0.28236  0.38934  0.38890  1.0000
  H   H463      1.0  0.20829  0.50323  0.15567  1.0000
  H   H464      1.0  0.19904  0.36095  0.30936  1.0000
  C   C262      1.0  0.05809  0.36888  0.15960  1.0000
  H   H465      1.0  0.16135  0.47626  0.29547  1.0000
  C   C263      1.0  0.04268  0.51416  0.23591  1.0000
  H   H466      1.0  0.26165  0.31126  0.53337  1.0000
  H   H467      1.0  0.15065  0.35773  0.13642  1.0000
  H   H468      1.0  0.30952  0.37943  0.33079  1.0000
  H   H469      1.0  0.22599  0.35061  0.60354  1.0000
  N   N16       1.0  0.23979  0.32674  0.29933  1.0000
  C   C264      1.0  0.47160  0.39630  0.43089  1.0000
  H   H470      1.0  0.11013  0.49592  0.36776  1.0000
  H   H471      1.0  0.99523  0.38361  0.27069  1.0000
  S   S67       1.0  0.26762  0.44031  0.22264  1.0000
  H   H472      1.0  0.47431  0.51695  0.54288  1.0000
  H   H473      1.0  0.08128  0.52853  0.48174  1.0000
  H   H474      1.0  0.23563  0.50263  0.58368  1.0000
  C   C265      1.0  0.17813  0.49290  0.29780  1.0000
  C   C266      1.0  0.22118  0.34558  0.52414  1.0000
  S   S68       1.0  0.06565  0.41543  0.19649  1.0000
  H   H475      1.0  0.39812  0.39627  0.40588  1.0000
  H   H476      1.0  0.27005  0.37740  0.23742  1.0000
  H   H477      1.0  0.17154  0.30031  0.56314  1.0000
  C   C267      1.0  0.43963  0.42140  0.50130  1.0000
  H   H478      1.0  0.99433  0.30866  0.20863  1.0000
  H   H479      1.0  0.04799  0.30297  0.40928  1.0000
  C   C268      1.0  0.25696  0.36237  0.35158  1.0000
  N   N17       1.0  0.16882  0.35276  0.59871  1.0000
  H   H480      1.0  0.29356  0.33381  0.31120  1.0000
  H   H481      1.0  0.26066  0.39788  0.14497  1.0000
  C   C269      1.0  0.14276  0.34110  0.57171  1.0000
  C   C270      1.0  0.39023  0.41610  0.41987  1.0000
  H   H482      1.0  0.14984  0.36288  0.38473  1.0000
  C   C271      1.0  0.09235  0.48514  0.48173  1.0000
  Fe  Fe36      1.0  0.09531  0.42134  0.38128  1.0000
  C   C272      1.0  0.35946  0.43096  0.38959  1.0000
  H   H483      1.0  0.46887  0.46569  0.43271  1.0000
  H   H484      1.0  0.23545  0.36045  0.38674  1.0000
  H   H485      1.0  0.42128  0.40451  0.51632  1.0000
  H   H486      1.0  0.00288  0.30832  0.28958  1.0000
  H   H487      1.0  0.12587  0.43112  0.53168  1.0000
  H   H488      1.0  0.43391  0.46607  0.50613  1.0000
  H   H489      1.0  0.26952  0.33570  0.47161  1.0000
  H   H490      1.0  0.25235  0.45330  0.58973  1.0000
  C   C273      1.0  0.00804  0.32358  0.35873  1.0000
  H   H491      1.0  0.12800  0.34315  0.34866  1.0000
  H   H492      1.0  0.39388  0.42433  0.59528  1.0000
  H   H493      1.0  0.98812  0.35940  0.20193  1.0000
  H   H494      1.0  0.10703  0.37111  0.25864  1.0000
  H   H495      1.0  0.20110  0.52347  0.39130  1.0000
  H   H496      1.0  0.26629  0.44277  0.33431  1.0000
  C   C274      1.0  0.05730  0.47758  0.51854  1.0000
  S   S69       1.0  0.07837  0.28628  0.21160  1.0000
  H   H497      1.0  0.24731  0.37891  0.32013  1.0000
  H   H498      1.0  0.14759  0.51307  0.19135  1.0000
  H   H499      1.0  0.00687  0.34304  0.37379  1.0000
  H   H500      1.0  0.43343  0.49340  0.15325  1.0000
  H   H501      1.0  0.21858  0.28931  0.29050  1.0000
  H   H502      1.0  0.37937  0.41161  0.46299  1.0000
  C   C275      1.0  0.20112  0.33821  0.31219  1.0000
  H   H503      1.0  0.14615  0.34957  0.52780  1.0000
  H   H504      1.0  0.47163  0.39524  0.38814  1.0000
  H   H505      1.0  0.19151  0.39258  0.58696  1.0000
  C   C276      1.0  0.07375  0.37999  0.19540  1.0000
  H   H506      1.0  0.19918  0.48449  0.32385  1.0000
  C   C277      1.0  0.06078  0.34009  0.16264  1.0000
  C   C278      1.0  0.00164  0.32921  0.29941  1.0000
  H   H507      1.0  0.41313  0.45561  0.41137  1.0000
  H   H508      1.0  0.19785  0.32413  0.39991  1.0000
  H   H509      1.0  0.13052  0.33117  0.41883  1.0000
  S   S70       1.0  0.06867  0.38958  0.35344  1.0000
  Fe  Fe37      1.0  0.06035  0.42249  0.28089  1.0000
  C   C279      1.0  0.17555  0.41778  0.31594  1.0000
  C   C280      1.0  0.20700  0.34103  0.58490  1.0000
  Fe  Fe38      1.0  0.29786  0.53327  0.25143  1.0000
  H   H510      1.0  0.28978  0.36629  0.14734  1.0000
  H   H511      1.0  0.26705  0.31839  0.37044  1.0000
  C   C281      1.0  0.24009  0.29553  0.30976  1.0000
  H   H512      1.0  0.15053  0.41053  0.31056  1.0000
  H   H513      1.0  0.34958  0.45072  0.40304  1.0000
  C   C282      1.0  0.11656  0.29985  0.55128  1.0000
  H   H514      1.0  0.24073  0.29261  0.46673  1.0000
  H   H515      1.0  0.05397  0.35550  0.57572  1.0000
  H   H516      1.0  0.17299  0.53229  0.31987  1.0000
  C   C283      1.0  0.05299  0.52739  0.18271  1.0000
  C   C284      1.0  0.21688  0.48819  0.61051  1.0000
  S   S71       1.0  0.14604  0.41582  0.41970  1.0000
  H   H517      1.0  0.46477  0.32464  0.47225  1.0000
  Fe  Fe39      1.0  0.29895  0.47621  0.22301  1.0000
  H   H518      1.0  0.21527  0.46275  0.55125  1.0000
  H   H519      1.0  0.11417  0.48205  0.50717  1.0000
  S   S72       1.0  0.35253  0.48022  0.17122  1.0000
  H   H520      1.0  0.30469  0.35492  0.39363  1.0000
  H   H521      1.0  0.00041  0.48516  0.14776  1.0000
  C   C285      1.0  0.45691  0.36925  0.46589  1.0000
  C   C286      1.0  0.32979  0.39590  0.58792  1.0000
  H   H522      1.0  0.42755  0.36897  0.46619  1.0000
  H   H523      1.0  0.23346  0.28712  0.35350  1.0000
  H   H524      1.0  0.46204  0.36723  0.50787  1.0000
  H   H525      1.0  0.36868  0.43549  0.34574  1.0000
  H   H526      1.0  0.45726  0.29680  0.59871  1.0000
  H   H527      1.0  0.29987  0.28824  0.30002  1.0000
  C   C287      1.0  0.09723  0.33375  0.23437  1.0000
  H   H528      1.0  0.04680  0.33162  0.13714  1.0000
  H   H529      1.0  0.12217  0.46837  0.17166  1.0000
  H   H530      1.0  0.15049  0.48710  0.39721  1.0000
  C   C288      1.0  0.26172  0.37496  0.15854  1.0000
  H   H531      1.0  0.16923  0.46688  0.17461  1.0000
  H   H532      1.0  0.21824  0.52332  0.48056  1.0000
  H   H533      1.0  0.03572  0.49290  0.24444  1.0000
  C   C289      1.0  0.17721  0.50069  0.60907  1.0000
  S   S73       1.0  0.02815  0.51260  0.34421  1.0000
  C   C290      1.0  0.15478  0.51617  0.32011  1.0000
  C   C291      1.0  0.08882  0.51558  0.45070  1.0000
  H   H534      1.0  0.15862  0.50677  0.46882  1.0000
  H   H535      1.0  0.01499  0.34974  0.54834  1.0000
  C   C292      1.0  0.15303  0.43594  0.13666  1.0000
  H   H536      1.0  0.04240  0.38238  0.13127  1.0000
  H   H537      1.0  0.10500  0.50259  0.60840  1.0000
  S   S74       1.0  0.00652  0.43959  0.31703  1.0000
  H   H538      1.0  0.05401  0.51631  0.15044  1.0000
  Fe  Fe40      1.0  0.32964  0.52316  0.13966  1.0000
  H   H539      1.0  0.43102  0.52150  0.35244  1.0000
  N   N18       1.0  0.12168  0.52571  0.41265  1.0000
  H   H540      1.0  0.17420  0.50871  0.56615  1.0000
  C   C293      1.0  0.04065  0.52870  0.27760  1.0000
  H   H541      1.0  0.46586  0.53179  0.38314  1.0000
  H   H542      1.0  0.48161  0.45847  0.33994  1.0000
  H   H543      1.0  0.13493  0.52544  0.29223  1.0000
  H   H544      1.0  0.10766  0.44201  0.59403  1.0000
  C   C294      1.0  0.35607  0.56537  0.63807  1.0000
  C   C295      1.0  0.27423  0.55776  0.93294  1.0000
  C   C296      1.0  0.16501  0.75454  0.97087  1.0000
  H   H545      1.0  0.11999  0.55395  0.64972  1.0000
  H   H546      1.0  0.16549  0.75817  0.08255  1.0000
  H   H547      1.0  0.23407  0.76557  0.08246  1.0000
  C   C297      1.0  0.42578  0.57528  0.97580  1.0000
  H   H548      1.0  0.12840  0.53925  0.03702  1.0000
  H   H549      1.0  0.18354  0.57570  0.96181  1.0000
  H   H550      1.0  0.13511  0.58225  0.97170  1.0000
  C   C298      1.0  0.39954  0.55607  0.99221  1.0000
  Fe  Fe41      1.0  0.43290  0.66357  0.00166  1.0000
  H   H551      1.0  0.07445  0.73895  0.98997  1.0000
  H   H552      1.0  0.47778  0.63382  0.85866  1.0000
  S   S75       1.0  0.02652  0.54347  0.88492  1.0000
  C   C299      1.0  0.14229  0.54699  0.82457  1.0000
  S   S76       1.0  0.08508  0.65010  0.02900  1.0000
  H   H553      1.0  0.23062  0.61662  0.01846  1.0000
  H   H554      1.0  0.19100  0.56137  0.77533  1.0000
  H   H555      1.0  0.40626  0.64024  0.88788  1.0000
  H   H556      1.0  0.35259  0.76671  0.72671  1.0000
  H   H557      1.0  0.45274  0.74167  0.74074  1.0000
  S   S77       1.0  0.38203  0.68626  0.97495  1.0000
  H   H558      1.0  0.31065  0.59471  0.00113  1.0000
  H   H559      1.0  0.99289  0.61190  0.96127  1.0000
  H   H560      1.0  0.30561  0.54601  0.75917  1.0000
  C   C300      1.0  0.21772  0.66892  0.07119  1.0000
  Fe  Fe42      1.0  0.06293  0.67671  0.08921  1.0000
  H   H561      1.0  0.37272  0.67663  0.69709  1.0000
  H   H562      1.0  0.19822  0.64878  0.85270  1.0000
  H   H563      1.0  0.28787  0.53994  0.86122  1.0000
  H   H564      1.0  0.17167  0.56717  0.69000  1.0000
  S   S78       1.0  0.33708  0.53700  0.05047  1.0000
  H   H565      1.0  0.21109  0.53443  0.10805  1.0000
  H   H566      1.0  0.37771  0.76107  0.62708  1.0000
  C   C301      1.0  0.37315  0.58806  0.70421  1.0000
  H   H567      1.0  0.30878  0.58268  0.86994  1.0000
  C   C302      1.0  0.36849  0.58337  0.05593  1.0000
  H   H568      1.0  0.36948  0.66509  0.86882  1.0000
  C   C303      1.0  0.23371  0.77623  0.90952  1.0000
  H   H569      1.0  0.24839  0.76971  0.98917  1.0000
  C   C304      1.0  0.28752  0.60843  0.98613  1.0000
  C   C305      1.0  0.34352  0.77267  0.96735  1.0000
  C   C306      1.0  0.47293  0.67796  0.83405  1.0000
  H   H570      1.0  0.05138  0.59128  0.92434  1.0000
  C   C307      1.0  0.35330  0.62465  0.91317  1.0000
  H   H571      1.0  0.22044  0.76485  0.88599  1.0000
  S   S79       1.0  0.11348  0.57125  0.78729  1.0000
  H   H572      1.0  0.22989  0.60702  0.93444  1.0000
  C   C308      1.0  0.37971  0.71412  0.72542  1.0000
  H   H573      1.0  0.99473  0.57448  0.97753  1.0000
  C   C309      1.0  0.37096  0.56009  0.03236  1.0000
  H   H574      1.0  0.35479  0.72468  0.70986  1.0000
  H   H575      1.0  0.44834  0.57176  0.94591  1.0000
  C   C310      1.0  0.25151  0.61966  0.91054  1.0000
  Fe  Fe43      1.0  0.08803  0.61543  0.10030  1.0000
  C   C311      1.0  0.18823  0.74938  0.05613  1.0000
  C   C312      1.0  0.00503  0.59305  0.98601  1.0000
  H   H576      1.0  0.41077  0.54605  0.79884  1.0000
  C   C313      1.0  0.37169  0.78363  0.92914  1.0000
  N   N19       1.0  0.42239  0.75187  0.67340  1.0000
  H   H577      1.0  0.38347  0.63659  0.83375  1.0000
  C   C314      1.0  0.10307  0.73843  0.97061  1.0000
  C   C315      1.0  0.25546  0.68396  0.98729  1.0000
  Fe  Fe44      1.0  0.99283  0.55040  0.74788  1.0000
  H   H578      1.0  0.29877  0.78137  0.02653  1.0000
  H   H579      1.0  0.40883  0.75689  0.75615  1.0000
  H   H580      1.0  0.24383  0.73230  0.06486  1.0000
  S   S80       1.0  0.07447  0.57173  0.10500  1.0000
  Fe  Fe45      1.0  0.45011  0.62087  0.66492  1.0000
  C   C316      1.0  0.34719  0.57449  0.74292  1.0000
  S   S81       1.0  0.40005  0.61018  0.72273  1.0000
  H   H581      1.0  0.26435  0.63765  0.82479  1.0000
  H   H582      1.0  0.23699  0.57533  0.66685  1.0000
  C   C317      1.0  0.15771  0.56570  0.97206  1.0000
  C   C318      1.0  0.45965  0.55051  0.83133  1.0000
  C   C319      1.0  0.22812  0.76225  0.96971  1.0000
  C   C320      1.0  0.45564  0.75436  0.63166  1.0000
  H   H583      1.0  0.19132  0.61224  0.86368  1.0000
  H   H584      1.0  0.18180  0.72771  0.05739  1.0000
  C   C321      1.0  0.17974  0.54616  0.80863  1.0000
  H   H585      1.0  0.23281  0.59105  0.10917  1.0000
  S   S82       1.0  0.40407  0.76134  0.89901  1.0000
  C   C322      1.0  0.37736  0.58369  0.65166  1.0000
  H   H586      1.0  0.15538  0.55365  0.94121  1.0000
  H   H587      1.0  0.45670  0.59322  0.78752  1.0000
  H   H588      1.0  0.34007  0.75069  0.97511  1.0000
  H   H589      1.0  0.30811  0.69500  0.99390  1.0000
  H   H590      1.0  0.34377  0.57798  0.78347  1.0000
  H   H591      1.0  0.27841  0.57686  0.09248  1.0000
  H   H592      1.0  0.26906  0.61362  0.09170  1.0000
  H   H593      1.0  0.01238  0.61021  0.05296  1.0000
  C   C323      1.0  0.24588  0.67118  0.09924  1.0000
  H   H594      1.0  0.05902  0.57184  0.98964  1.0000
  S   S83       1.0  0.18698  0.67197  0.98050  1.0000
  H   H595      1.0  0.40163  0.53797  0.97434  1.0000
  H   H596      1.0  0.40022  0.67104  0.75053  1.0000
  S   S84       1.0  0.11729  0.68854  0.09830  1.0000
  C   C324      1.0  0.39361  0.60332  0.03735  1.0000
  C   C325      1.0  0.30074  0.58077  0.91388  1.0000
  C   C326      1.0  0.18351  0.57157  0.64727  1.0000
  H   H597      1.0  0.35243  0.63010  0.95300  1.0000
  H   H598      1.0  0.10370  0.74730  0.92722  1.0000
  S   S85       1.0  0.31232  0.68495  0.10829  1.0000
  H   H599      1.0  0.17462  0.73271  0.96751  1.0000
  S   S86       1.0  0.39212  0.73058  0.04921  1.0000
  H   H600      1.0  0.40777  0.71636  0.64691  1.0000
  H   H601      1.0  0.24298  0.58075  0.01777  1.0000
  C   C327      1.0  0.39181  0.77135  0.65172  1.0000
  H   H602      1.0  0.35180  0.67748  0.76462  1.0000
  C   C328      1.0  0.22245  0.67509  0.01523  1.0000
  H   H603      1.0  0.24650  0.56490  0.92399  1.0000
  H   H604      1.0  0.46520  0.56173  0.08815  1.0000
  H   H605      1.0  0.24394  0.64077  0.91967  1.0000
  H   H606      1.0  0.11420  0.71639  0.97575  1.0000
  H   H607      1.0  0.34626  0.58664  0.08675  1.0000
  S   S87       1.0  0.00839  0.58706  0.77505  1.0000
  H   H608      1.0  0.46513  0.68163  0.87554  1.0000
  H   H609      1.0  0.38145  0.71933  0.76466  1.0000
  H   H610      1.0  0.16481  0.76630  0.92915  1.0000
  C   C329      1.0  0.28344  0.68689  0.01550  1.0000
  C   C330      1.0  0.24798  0.62135  0.85077  1.0000
  S   S88       1.0  0.45346  0.62440  0.97282  1.0000
  C   C331      1.0  0.37596  0.68293  0.73492  1.0000
  H   H611      1.0  0.19233  0.66258  0.09339  1.0000
  H   H612      1.0  0.42591  0.78191  0.06820  1.0000
  C   C332      1.0  0.48302  0.57693  0.09432  1.0000
  S   S89       1.0  0.14457  0.62218  0.10723  1.0000
  C   C333      1.0  0.36272  0.78302  0.69301  1.0000
  H   H613      1.0  0.45733  0.78138  0.80076  1.0000
  H   H614      1.0  0.27679  0.78289  0.84248  1.0000
  C   C334      1.0  0.20868  0.62873  0.84072  1.0000
  H   H615      1.0  0.25693  0.60128  0.83818  1.0000
  H   H616      1.0  0.25913  0.68913  0.94402  1.0000
  S   S90       1.0  0.45856  0.66549  0.63370  1.0000
  H   H617      1.0  0.39687  0.59444  0.62151  1.0000
  H   H618      1.0  0.05596  0.55322  0.63564  1.0000
  C   C335      1.0  0.04586  0.59125  0.96795  1.0000
  C   C336      1.0  0.25877  0.59507  0.08297  1.0000
  S   S91       1.0  0.41586  0.66525  0.08819  1.0000
  Fe  Fe46      1.0  0.05596  0.55937  0.80325  1.0000
  Fe  Fe47      1.0  0.41074  0.72460  0.96511  1.0000
  C   C337      1.0  0.32594  0.55618  0.72937  1.0000
  H   H619      1.0  0.45009  0.54967  0.75163  1.0000
  N   N20       1.0  0.28808  0.60893  0.92713  1.0000
  S   S92       1.0  0.01245  0.70412  0.07323  1.0000
  C   C338      1.0  0.44912  0.58142  0.82852  1.0000
  H   H620      1.0  0.28734  0.75452  0.89583  1.0000
  C   C339      1.0  0.21673  0.58769  0.64236  1.0000
  H   H621      1.0  0.23618  0.73974  0.97199  1.0000
  C   C340      1.0  0.25268  0.59983  0.02444  1.0000
  C   C341      1.0  0.33051  0.55150  0.67703  1.0000
  C   C342      1.0  0.37958  0.64287  0.87330  1.0000
  H   H622      1.0  0.47853  0.74014  0.64681  1.0000
  C   C343      1.0  0.22255  0.74572  0.08433  1.0000
  H   H623      1.0  0.31465  0.63765  0.62180  1.0000
  H   H624      1.0  0.27374  0.54992  0.97657  1.0000
  Fe  Fe48      1.0  0.44245  0.70492  0.06927  1.0000
  C   C344      1.0  0.42240  0.59925  0.99742  1.0000
  H   H625      1.0  0.05800  0.60932  0.97528  1.0000
  H   H626      1.0  0.47596  0.75050  0.02208  1.0000
  C   C345      1.0  0.41326  0.72208  0.68411  1.0000
  C   C346      1.0  0.43234  0.75803  0.72403  1.0000
  Fe  Fe49      1.0  0.13947  0.65969  0.04242  1.0000
  H   H627      1.0  0.12163  0.74622  0.04009  1.0000
  H   H628      1.0  0.43693  0.70808  0.69737  1.0000
  H   H629      1.0  0.00740  0.57386  0.06899  1.0000
  C   C347      1.0  0.27875  0.68027  0.07158  1.0000
  C   C348      1.0  0.19342  0.54445  0.62505  1.0000
  H   H630      1.0  0.36478  0.60291  0.91542  1.0000
  C   C349      1.0  0.13000  0.53781  0.62532  1.0000
  H   H631      1.0  0.44786  0.67806  0.81618  1.0000
  C   C350      1.0  0.31488  0.62912  0.89600  1.0000
  C   C351      1.0  0.99621  0.59395  0.04653  1.0000
  H   H632      1.0  0.41958  0.58525  0.84073  1.0000
  S   S93       1.0  0.46348  0.70163  0.98413  1.0000
  C   C352      1.0  0.44005  0.53891  0.79293  1.0000
  N   N21       1.0  0.19044  0.76601  0.99931  1.0000
  C   C353      1.0  0.27381  0.77580  0.88662  1.0000
  H   H633      1.0  0.31846  0.62849  0.85257  1.0000
  H   H634      1.0  0.30442  0.65082  0.89917  1.0000
  H   H635      1.0  0.45278  0.54010  0.87364  1.0000
  H   H636      1.0  0.39038  0.62191  0.05368  1.0000
  H   H637      1.0  0.32579  0.57218  0.93156  1.0000
  H   H638      1.0  0.46366  0.58922  0.85576  1.0000
  H   H639      1.0  0.15882  0.56053  0.05565  1.0000
  Fe  Fe50      1.0  0.36689  0.69069  0.06039  1.0000
  H   H640      1.0  0.29157  0.62939  0.99270  1.0000
  H   H641      1.0  0.20690  0.63065  0.79749  1.0000
  H   H642      1.0  0.20855  0.60728  0.65728  1.0000
  C   C354      1.0  0.12470  0.75506  0.99664  1.0000
  H   H643      1.0  0.46471  0.77568  0.62338  1.0000
  H   H644      1.0  0.21964  0.53525  0.63882  1.0000
  H   H645      1.0  0.11215  0.77670  0.99114  1.0000
  H   H646      1.0  0.31663  0.78280  0.65116  1.0000
  H   H647      1.0  0.35411  0.77453  0.11386  1.0000
  C   C355      1.0  0.15567  0.54705  0.02757  1.0000
  H   H648      1.0  0.16338  0.58525  0.62444  1.0000
  H   H649      1.0  0.43878  0.60550  0.11493  1.0000
  H   H650      1.0  0.00661  0.60552  0.14415  1.0000
  C   C356      1.0  0.42478  0.70255  0.49643  1.0000
  H   H651      1.0  0.35980  0.56153  0.59772  1.0000
  C   C357      1.0  0.37154  0.68320  0.39156  1.0000
  H   H652      1.0  0.34905  0.60633  0.53330  1.0000
  C   C358      1.0  0.98941  0.53419  0.52973  1.0000
  H   H653      1.0  0.40854  0.55354  0.27216  1.0000
  H   H654      1.0  0.35027  0.58399  0.26421  1.0000
  C   C359      1.0  0.23566  0.58594  0.28620  1.0000
  C   C360      1.0  0.35236  0.66961  0.44718  1.0000
  C   C361      1.0  0.04931  0.55619  0.26614  1.0000
  C   C362      1.0  0.43219  0.73992  0.24626  1.0000
  C   C363      1.0  0.06126  0.56884  0.21351  1.0000
  C   C364      1.0  0.41182  0.60003  0.47328  1.0000
  H   H655      1.0  0.43514  0.78129  0.15619  1.0000
  H   H656      1.0  0.28744  0.62657  0.52228  1.0000
  H   H657      1.0  0.07018  0.58927  0.20592  1.0000
  S   S94       1.0  0.06287  0.64173  0.15961  1.0000
  C   C365      1.0  0.16826  0.55282  0.18389  1.0000
  H   H658      1.0  0.14016  0.54042  0.47643  1.0000
  S   S95       1.0  0.14100  0.64873  0.24058  1.0000
  C   C366      1.0  0.18644  0.53869  0.41486  1.0000
  H   H659      1.0  0.39608  0.58622  0.45851  1.0000
  C   C367      1.0  0.32226  0.77375  0.19029  1.0000
  C   C368      1.0  0.17828  0.62500  0.25634  1.0000
  H   H660      1.0  0.36146  0.67955  0.47711  1.0000
  H   H661      1.0  0.24334  0.58004  0.20482  1.0000
  H   H662      1.0  0.40857  0.59450  0.51771  1.0000
  H   H663      1.0  0.47285  0.77842  0.33285  1.0000
  C   C369      1.0  0.22750  0.59106  0.23378  1.0000
  H   H664      1.0  0.06964  0.57088  0.43879  1.0000
  H   H665      1.0  0.47963  0.75266  0.49540  1.0000
  S   S96       1.0  0.27048  0.56119  0.30734  1.0000
  H   H666      1.0  0.26602  0.62995  0.36128  1.0000
  C   C370      1.0  0.30525  0.63737  0.54025  1.0000
  H   H667      1.0  0.06374  0.60083  0.35013  1.0000
  H   H668      1.0  0.33197  0.64129  0.19615  1.0000
  C   C371      1.0  0.45324  0.56044  0.31100  1.0000
  C   C372      1.0  0.21159  0.54311  0.45304  1.0000
  H   H669      1.0  0.36039  0.61669  0.27546  1.0000
  S   S97       1.0  0.35084  0.54175  0.19968  1.0000
  C   C373      1.0  0.28910  0.76481  0.17269  1.0000
  H   H670      1.0  0.43241  0.73406  0.29022  1.0000
  H   H671      1.0  0.46479  0.57751  0.32303  1.0000
  C   C374      1.0  0.08498  0.60368  0.37357  1.0000
  H   H672      1.0  0.01601  0.53791  0.50507  1.0000
  H   H673      1.0  0.19749  0.74628  0.16641  1.0000
  S   S98       1.0  0.46734  0.60920  0.58474  1.0000
  H   H674      1.0  0.10912  0.61086  0.34536  1.0000
  H   H675      1.0  0.40426  0.67421  0.56758  1.0000
  H   H676      1.0  0.40334  0.64549  0.26173  1.0000
  C   C375      1.0  0.98963  0.70008  0.18097  1.0000
  Fe  Fe51      1.0  0.47960  0.65351  0.55523  1.0000
  C   C376      1.0  0.06219  0.55487  0.17147  1.0000
  C   C377      1.0  0.38908  0.74666  0.47772  1.0000
  C   C378      1.0  0.45266  0.57757  0.18938  1.0000
  H   H677      1.0  0.36953  0.72188  0.33354  1.0000
  C   C379      1.0  0.28918  0.61834  0.38037  1.0000
  H   H678      1.0  0.47567  0.64380  0.30441  1.0000
  H   H679      1.0  0.21144  0.76333  0.53523  1.0000
  H   H680      1.0  0.36211  0.63768  0.54556  1.0000
  H   H681      1.0  0.33732  0.75465  0.20936  1.0000
  H   H682      1.0  0.19970  0.71285  0.14757  1.0000
  N   N22       1.0  0.35879  0.63844  0.46229  1.0000
  H   H683      1.0  0.33533  0.60222  0.45129  1.0000
  H   H684      1.0  0.43644  0.66759  0.31386  1.0000
  H   H685      1.0  0.23992  0.72526  0.16042  1.0000
  H   H686      1.0  0.17165  0.63134  0.33744  1.0000
  H   H687      1.0  0.47884  0.56963  0.20408  1.0000
  H   H688      1.0  0.41914  0.62021  0.31666  1.0000
  C   C380      1.0  0.46294  0.59505  0.13248  1.0000
  H   H689      1.0  0.32254  0.60846  0.18285  1.0000
  H   H690      1.0  0.01787  0.69962  0.18545  1.0000
  C   C381      1.0  0.35443  0.71240  0.37239  1.0000
  H   H691      1.0  0.48118  0.61105  0.13365  1.0000
  H   H692      1.0  0.45237  0.63147  0.19789  1.0000
  H   H693      1.0  0.32586  0.71168  0.36667  1.0000
  C   C382      1.0  0.45170  0.65458  0.28628  1.0000
  H   H694      1.0  0.42112  0.54935  0.38957  1.0000
  C   C383      1.0  0.42052  0.57167  0.28026  1.0000
  C   C384      1.0  0.48438  0.75578  0.53511  1.0000
  C   C385      1.0  0.39919  0.63109  0.45475  1.0000
  H   H695      1.0  0.41652  0.78231  0.25018  1.0000
  H   H696      1.0  0.04738  0.56768  0.29790  1.0000
  H   H697      1.0  0.40373  0.75763  0.15480  1.0000
  C   C386      1.0  0.21428  0.73174  0.14324  1.0000
  C   C387      1.0  0.35788  0.60509  0.24409  1.0000
  H   H698      1.0  0.22196  0.59707  0.36363  1.0000
  C   C388      1.0  0.32658  0.61950  0.21458  1.0000
  C   C389      1.0  0.40682  0.76604  0.23331  1.0000
  C   C390      1.0  0.39360  0.60328  0.20485  1.0000
  H   H699      1.0  0.44882  0.72596  0.57903  1.0000
  C   C391      1.0  0.42751  0.63352  0.27732  1.0000
  H   H700      1.0  0.11495  0.58092  0.43532  1.0000
  H   H701      1.0  0.19349  0.61516  0.17807  1.0000
  C   C392      1.0  0.40686  0.77601  0.17195  1.0000
  H   H702      1.0  0.06997  0.54583  0.56923  1.0000
  H   H703      1.0  0.46083  0.66853  0.24777  1.0000
  H   H704      1.0  0.38502  0.76682  0.45244  1.0000
  C   C393      1.0  0.36539  0.73895  0.52496  1.0000
  N   N23       1.0  0.42817  0.59254  0.22867  1.0000
  C   C394      1.0  0.44743  0.61629  0.23627  1.0000
  H   H705      1.0  0.40043  0.68501  0.39428  1.0000
  H   H706      1.0  0.42740  0.76036  0.56029  1.0000
  H   H707      1.0  0.35531  0.72575  0.40179  1.0000
  C   C395      1.0  0.44195  0.53953  0.36215  1.0000
  C   C396      1.0  0.19898  0.61075  0.21878  1.0000
  C   C397      1.0  0.40059  0.69459  0.54301  1.0000
  H   H708      1.0  0.19896  0.55896  0.47655  1.0000
  C   C398      1.0  0.30658  0.63769  0.40626  1.0000
  H   H709      1.0  0.14370  0.56095  0.20774  1.0000
  H   H710      1.0  0.18952  0.54551  0.21012  1.0000
  H   H711      1.0  0.41070  0.63697  0.41187  1.0000
  H   H712      1.0  0.36077  0.61963  0.39270  1.0000
  H   H713      1.0  0.46022  0.74372  0.22695  1.0000
  H   H714      1.0  0.27906  0.60045  0.41084  1.0000
  H   H715      1.0  0.23725  0.55056  0.42946  1.0000
  H   H716      1.0  0.44000  0.55892  0.18496  1.0000
  H   H717      1.0  0.39995  0.58038  0.30939  1.0000
  C   C399      1.0  0.09474  0.57663  0.41160  1.0000
  H   H718      1.0  0.24191  0.66625  0.14261  1.0000
  H   H719      1.0  0.30869  0.61041  0.34890  1.0000
  H   H720      1.0  0.41278  0.64324  0.47661  1.0000
  H   H721      1.0  0.07456  0.62010  0.39685  1.0000
  H   H722      1.0  0.19930  0.55052  0.58062  1.0000
  H   H723      1.0  0.29860  0.66009  0.53022  1.0000
  H   H724      1.0  0.13261  0.56230  0.35015  1.0000
  H   H725      1.0  0.39651  0.62420  0.17932  1.0000
  H   H726      1.0  0.42304  0.72242  0.23225  1.0000
  H   H727      1.0  0.22934  0.59283  0.59993  1.0000
  H   H728      1.0  0.37056  0.67064  0.36093  1.0000
  C   C400      1.0  0.22342  0.78330  0.51732  1.0000
  C   C401      1.0  0.37098  0.71276  0.55728  1.0000
  H   H729      1.0  0.17828  0.57007  0.15208  1.0000
  C   C402      1.0  0.18713  0.62017  0.30837  1.0000
  H   H730      1.0  0.46873  0.60768  0.46618  1.0000
  C   C403      1.0  0.34149  0.62334  0.42854  1.0000
  H   H731      1.0  0.46067  0.57208  0.46913  1.0000
  H   H732      1.0  0.45634  0.59741  0.40853  1.0000
  H   H733      1.0  0.47478  0.60865  0.24705  1.0000
  C   C404      1.0  0.45137  0.74831  0.57627  1.0000
  H   H734      1.0  0.13403  0.54902  0.58283  1.0000
  H   H735      1.0  0.24283  0.78044  0.48125  1.0000
  S   S99       1.0  0.46295  0.68046  0.47998  1.0000
  H   H736      1.0  0.27202  0.75372  0.20817  1.0000
  H   H737      1.0  0.30118  0.61969  0.24314  1.0000
  C   C405      1.0  0.34546  0.62930  0.52118  1.0000
  H   H738      1.0  0.31295  0.65627  0.37494  1.0000
  H   H739      1.0  0.37950  0.76155  0.25442  1.0000
  Fe  Fe52      1.0  0.11983  0.65035  0.16284  1.0000
  H   H740      1.0  0.29750  0.75055  0.14404  1.0000
  C   C406      1.0  0.41860  0.72841  0.46330  1.0000
  H   H741      1.0  0.47493  0.54977  0.28656  1.0000
  H   H742      1.0  0.38838  0.59024  0.17692  1.0000
  C   C407      1.0  0.21572  0.60083  0.32313  1.0000
  H   H743      1.0  0.43716  0.73470  0.42721  1.0000
  C   C408      1.0  0.06466  0.53646  0.61246  1.0000
  S   S100      1.0  0.47215  0.71668  0.12871  1.0000
  H   H744      1.0  0.28613  0.64450  0.43770  1.0000
  C   C409      1.0  0.11018  0.55351  0.37994  1.0000
  H   H745      1.0  0.35251  0.70658  0.59349  1.0000
  H   H746      1.0  0.08932  0.55067  0.35572  1.0000
  H   H747      1.0  0.18134  0.55877  0.38783  1.0000
  H   H748      1.0  0.32310  0.67629  0.44901  1.0000
  S   S101      1.0  0.32915  0.76198  0.54451  1.0000
  C   C410      1.0  0.45183  0.59402  0.45293  1.0000
  C   C411      1.0  0.29640  0.62865  0.60106  1.0000
  H   H749      1.0  0.13735  0.53817  0.13453  1.0000
  H   H750      1.0  0.27269  0.78316  0.15333  1.0000
  H   H751      1.0  0.26810  0.63613  0.61416  1.0000
  H   H752      1.0  0.29906  0.60570  0.61329  1.0000
  H   H753      1.0  0.98590  0.63111  0.21560  1.0000
  H   H754      1.0  0.22682  0.03322  0.03435  1.0000
  H   H755      1.0  0.10240  0.93127  0.83628  1.0000
  H   H756      1.0  0.17351  0.80720  0.95821  1.0000
  H   H757      1.0  0.27492  0.02967  0.88392  1.0000
  S   S102      1.0  0.45303  0.94909  0.11805  1.0000
  C   C412      1.0  0.34957  0.98873  0.11162  1.0000
  C   C413      1.0  0.44847  0.78632  0.71769  1.0000
  H   H758      1.0  0.45510  0.81680  0.76432  1.0000
  H   H759      1.0  0.34702  0.93896  0.08398  1.0000
  H   H760      1.0  0.27219  0.94066  0.65074  1.0000
  C   C414      1.0  0.18968  0.84361  0.01285  1.0000
  H   H761      1.0  0.13571  0.85437  0.64722  1.0000
  C   C415      1.0  0.40157  0.03195  0.80512  1.0000
  H   H762      1.0  0.34590  0.92971  0.64388  1.0000
  H   H763      1.0  0.24550  0.01660  0.84853  1.0000
  C   C416      1.0  0.32366  0.02549  0.95720  1.0000
  H   H764      1.0  0.22256  0.79819  0.90299  1.0000
  C   C417      1.0  0.21446  0.96043  0.80598  1.0000
  S   S103      1.0  0.24269  0.92973  0.80867  1.0000
  H   H765      1.0  0.39724  0.02411  0.03324  1.0000
  H   H766      1.0  0.37412  0.79832  0.71033  1.0000
  H   H767      1.0  0.17055  0.90555  0.69409  1.0000
  H   H768      1.0  0.40251  0.78985  0.62332  1.0000
  H   H769      1.0  0.37798  0.83469  0.08615  1.0000
  Fe  Fe53      1.0  0.33925  0.93228  0.92122  1.0000
  H   H770      1.0  0.03508  0.00762  0.71501  1.0000
  H   H771      1.0  0.26405  0.01544  0.75784  1.0000
  H   H772      1.0  0.24797  0.91276  0.64307  1.0000
  Fe  Fe54      1.0  0.03936  0.02715  0.93588  1.0000
  C   C418      1.0  0.15590  0.92649  0.68798  1.0000
  H   H773      1.0  0.28422  0.03330  0.09922  1.0000
  C   C419      1.0  0.09544  0.95403  0.83101  1.0000
  H   H774      1.0  0.20759  0.85489  0.02989  1.0000
  C   C420      1.0  0.31994  0.79003  0.99614  1.0000
  H   H775      1.0  0.40760  0.92024  0.65968  1.0000
  H   H776      1.0  0.28742  0.79014  0.90345  1.0000
  C   C421      1.0  0.38225  0.88252  0.62026  1.0000
  H   H777      1.0  0.09971  0.83091  0.72839  1.0000
  C   C422      1.0  0.06824  0.95829  0.88101  1.0000
  C   C423      1.0  0.31354  0.00458  0.71120  1.0000
  H   H778      1.0  0.32862  0.02232  0.84023  1.0000
  H   H779      1.0  0.15146  0.79802  0.02420  1.0000
  H   H780      1.0  0.31699  0.96058  0.74707  1.0000
  C   C424      1.0  0.30725  0.97471  0.71173  1.0000
  H   H781      1.0  0.99865  0.00665  0.04298  1.0000
  C   C425      1.0  0.17824  0.79616  0.99911  1.0000
  H   H782      1.0  0.12962  0.96372  0.01242  1.0000
  H   H783      1.0  0.48066  0.95546  0.91490  1.0000
  H   H784      1.0  0.20780  0.95848  0.89117  1.0000
  H   H785      1.0  0.06352  0.94761  0.96763  1.0000
  C   C426      1.0  0.30522  0.90171  0.64718  1.0000
  H   H786      1.0  0.43852  0.86471  0.63042  1.0000
  H   H787      1.0  0.43942  0.80777  0.97532  1.0000
  C   C427      1.0  0.30579  0.00188  0.98306  1.0000
  C   C428      1.0  0.11335  0.96065  0.73450  1.0000
  H   H788      1.0  0.08199  0.00933  0.68518  1.0000
  H   H789      1.0  0.45518  0.86749  0.05071  1.0000
  C   C429      1.0  0.07323  0.99615  0.77369  1.0000
  C   C430      1.0  0.36033  0.86237  0.71405  1.0000
  C   C431      1.0  0.20137  0.97023  0.85305  1.0000
  C   C432      1.0  0.39709  0.81720  0.10212  1.0000
  H   H790      1.0  0.04264  0.96766  0.68972  1.0000
  H   H791      1.0  0.40589  0.83964  0.63942  1.0000
  C   C433      1.0  0.48325  0.98179  0.81341  1.0000
  H   H792      1.0  0.10952  0.94844  0.93440  1.0000
  S   S104      1.0  0.31714  0.91684  0.00674  1.0000
  H   H793      1.0  0.04148  0.95108  0.87999  1.0000
  H   H794      1.0  0.48310  0.91848  0.99412  1.0000
  H   H795      1.0  0.45370  0.99098  0.02042  1.0000
  H   H796      1.0  0.21597  0.96825  0.72020  1.0000
  H   H797      1.0  0.29740  0.99791  0.79740  1.0000
  H   H798      1.0  0.14360  0.81695  0.65523  1.0000
  H   H799      1.0  0.17028  0.00301  0.88740  1.0000
  S   S105      1.0  0.29038  0.96057  0.90307  1.0000
  H   H800      1.0  0.10475  0.96667  0.69452  1.0000
  H   H801      1.0  0.27815  0.97264  0.71247  1.0000
  H   H802      1.0  0.41512  0.91053  0.08467  1.0000
  H   H803      1.0  0.35671  0.85101  0.94178  1.0000
  H   H804      1.0  0.23127  0.81190  0.99851  1.0000
  C   C434      1.0  0.41789  0.92845  0.05247  1.0000
  H   H805      1.0  0.32196  0.96884  0.67453  1.0000
  C   C435      1.0  0.15907  0.95919  0.01393  1.0000
  C   C436      1.0  0.20629  0.97587  0.75672  1.0000
  C   C437      1.0  0.43229  0.81915  0.00886  1.0000
  H   H806      1.0  0.06288  0.93290  0.70241  1.0000
  H   H807      1.0  0.33720  0.88064  0.78507  1.0000
  H   H808      1.0  0.17191  0.97908  0.00688  1.0000
  H   H809      1.0  0.36793  0.92393  0.75176  1.0000
  C   C438      1.0  0.40734  0.95215  0.96314  1.0000
  H   H810      1.0  0.47594  0.99614  0.84199  1.0000
  C   C439      1.0  0.33159  0.86482  0.76363  1.0000
  C   C440      1.0  0.33031  0.79777  0.66638  1.0000
  H   H811      1.0  0.16175  0.84622  0.03397  1.0000
  H   H812      1.0  0.08348  0.91976  0.93438  1.0000
  H   H813      1.0  0.42704  0.99279  0.93721  1.0000
  H   H814      1.0  0.30140  0.87927  0.66000  1.0000
  S   S106      1.0  0.29402  0.84007  0.02141  1.0000
  H   H815      1.0  0.48515  0.96096  0.63671  1.0000
  H   H816      1.0  0.30099  0.94845  0.10944  1.0000
  H   H817      1.0  0.00391  0.91614  0.74992  1.0000
  C   C441      1.0  0.42414  0.92697  0.75254  1.0000
  H   H818      1.0  0.34305  0.00600  0.70642  1.0000
  C   C442      1.0  0.16547  0.94143  0.06823  1.0000
  H   H819      1.0  0.32638  0.91566  0.70971  1.0000
  C   C443      1.0  0.29333  0.01459  0.76196  1.0000
  H   H820      1.0  0.45821  0.97421  0.80559  1.0000
  H   H821      1.0  0.19020  0.85300  0.96966  1.0000
  C   C444      1.0  0.32969  0.83715  0.80327  1.0000
  H   H822      1.0  0.35069  0.02321  0.93584  1.0000
  C   C445      1.0  0.20337  0.81295  0.02010  1.0000
  H   H823      1.0  0.05028  0.00032  0.80470  1.0000
  H   H824      1.0  0.47859  0.87580  0.89146  1.0000
  H   H825      1.0  0.37639  0.98492  0.08816  1.0000
  C   C446      1.0  0.37122  0.02834  0.77481  1.0000
  C   C447      1.0  0.35206  0.82943  0.94750  1.0000
  H   H826      1.0  0.06434  0.98051  0.88333  1.0000
  C   C448      1.0  0.06208  0.01297  0.72004  1.0000
  C   C449      1.0  0.48421  0.86856  0.05319  1.0000
  C   C450      1.0  0.37578  0.81206  0.91891  1.0000
  H   H827      1.0  0.42454  0.88731  0.69233  1.0000
  C   C451      1.0  0.44344  0.79651  0.77055  1.0000
  H   H828      1.0  0.17623  0.94214  0.67606  1.0000
  H   H829      1.0  0.35646  0.83010  0.81658  1.0000
  S   S107      1.0  0.11465  0.02924  0.07608  1.0000
  H   H830      1.0  0.33079  0.99369  0.08102  1.0000
  C   C452      1.0  0.04212  0.94781  0.71892  1.0000
  H   H831      1.0  0.38589  0.79636  0.03978  1.0000
  C   C453      1.0  0.27057  0.00465  0.01012  1.0000
  H   H832      1.0  0.42795  0.02495  0.78399  1.0000
  H   H833      1.0  0.14959  0.92676  0.77170  1.0000
  H   H834      1.0  0.45052  0.91446  0.74825  1.0000
  H   H835      1.0  0.30982  0.83964  0.83908  1.0000
  H   H836      1.0  0.30330  0.01748  0.67507  1.0000
  H   H837      1.0  0.39282  0.89191  0.77857  1.0000
  H   H838      1.0  0.26134  0.91277  0.70701  1.0000
  H   H839      1.0  0.41943  0.93237  0.79293  1.0000
  H   H840      1.0  0.20389  0.80529  0.06355  1.0000
  Fe  Fe55      1.0  0.26876  0.92450  0.88260  1.0000
  C   C454      1.0  0.32394  0.81849  0.98577  1.0000
  N   N24       1.0  0.08238  0.96529  0.77748  1.0000
  C   C455      1.0  0.26962  0.91802  0.66314  1.0000
  C   C456      1.0  0.39983  0.90181  0.69092  1.0000
  H   H841      1.0  0.11153  0.91510  0.75007  1.0000
  H   H842      1.0  0.38547  0.85114  0.72836  1.0000
  C   C457      1.0  0.17295  0.01130  0.80153  1.0000
  H   H843      1.0  0.42547  0.94654  0.72213  1.0000
  H   H844      1.0  0.15304  0.92170  0.07193  1.0000
  H   H845      1.0  0.33906  0.81462  0.63237  1.0000
  C   C458      1.0  0.13185  0.93072  0.73973  1.0000
  H   H846      1.0  0.31046  0.80692  0.69593  1.0000
  C   C459      1.0  0.08218  0.94248  0.93245  1.0000
  H   H847      1.0  0.32109  0.82107  0.78470  1.0000
  H   H848      1.0  0.18088  0.01388  0.71602  1.0000
  H   H849      1.0  0.19491  0.93637  0.06831  1.0000
  H   H850      1.0  0.13939  0.92821  0.65510  1.0000
  H   H851      1.0  0.39788  0.01954  0.84658  1.0000
  H   H852      1.0  0.31944  0.98152  0.98220  1.0000
  H   H853      1.0  0.07823  0.81262  0.68975  1.0000
  S   S108      1.0  0.24696  0.97525  0.03855  1.0000
  C   C460      1.0  0.42450  0.97481  0.96934  1.0000
  C   C461      1.0  0.12398  0.83504  0.64522  1.0000
  H   H854      1.0  0.17084  0.94793  0.98148  1.0000
  C   C462      1.0  0.43965  0.97378  0.01629  1.0000
  H   H855      1.0  0.09663  0.00574  0.78223  1.0000
  C   C463      1.0  0.09111  0.83193  0.68868  1.0000
  H   H856      1.0  0.39819  0.82045  0.89066  1.0000
  H   H857      1.0  0.02464  0.96156  0.79416  1.0000
  H   H858      1.0  0.13478  0.97461  0.73328  1.0000
  Fe  Fe56      1.0  0.26764  0.94387  0.98767  1.0000
  H   H859      1.0  0.00106  0.93402  0.68225  1.0000
  C   C464      1.0  0.33725  0.91007  0.67049  1.0000
  S   S109      1.0  0.32004  0.89750  0.89209  1.0000
  S   S110      1.0  0.09676  0.01061  0.94172  1.0000
  S   S111      1.0  0.39197  0.95187  0.90234  1.0000
  S   S112      1.0  0.24135  0.90987  0.96599  1.0000
  C   C465      1.0  0.04938  0.95087  0.77497  1.0000
  H   H860      1.0  0.34960  0.84812  0.69323  1.0000
  H   H861      1.0  0.07090  0.85005  0.68124  1.0000
  H   H862      1.0  0.41702  0.83917  0.99441  1.0000
  H   H863      1.0  0.46342  0.90017  0.95567  1.0000
  C   C466      1.0  0.43589  0.95070  0.05811  1.0000
  H   H864      1.0  0.39251  0.91092  0.99944  1.0000
  H   H865      1.0  0.37199  0.00589  0.77420  1.0000
  H   H866      1.0  0.41426  0.79930  0.78625  1.0000
  H   H867      1.0  0.46636  0.93264  0.87930  1.0000
  C   C467      1.0  0.18645  0.00170  0.75437  1.0000
  H   H868      1.0  0.45774  0.82319  0.02148  1.0000
  C   C468      1.0  0.25390  0.03105  0.01316  1.0000
  H   H869      1.0  0.05088  0.92935  0.79902  1.0000
  C   C469      1.0  0.18002  0.99542  0.85094  1.0000
  Fe  Fe57      1.0  0.29386  0.88431  0.97708  1.0000
  N   N25       1.0  0.36938  0.88892  0.67533  1.0000
  H   H870      1.0  0.43596  0.80250  0.68795  1.0000
  H   H871      1.0  0.30428  0.87076  0.75152  1.0000
  C   C470      1.0  0.40962  0.80151  0.05536  1.0000
  C   C471      1.0  0.39336  0.91062  0.74609  1.0000
  H   H872      1.0  0.12082  0.96336  0.83301  1.0000
  C   C472      1.0  0.00527  0.93666  0.72246  1.0000
  C   C473      1.0  0.40430  0.92894  0.00469  1.0000
  C   C474      1.0  0.14872  0.95666  0.11431  1.0000
  S   S113      1.0  0.99416  0.00099  0.93602  1.0000
  H   H873      1.0  0.42079  0.82673  0.10984  1.0000
  H   H874      1.0  0.15844  0.97787  0.10336  1.0000
  H   H875      1.0  0.47797  0.78415  0.70338  1.0000
  H   H876      1.0  0.11905  0.96018  0.11281  1.0000
  H   H877      1.0  0.41798  0.02875  0.08873  1.0000
  C   C475      1.0  0.99626  0.91971  0.47627  1.0000
  H   H878      1.0  0.34743  0.99722  0.48384  1.0000
  H   H879      1.0  0.15550  0.98649  0.23559  1.0000
  H   H880      1.0  0.39596  0.82624  0.20161  1.0000
  C   C476      1.0  0.48539  0.81836  0.20074  1.0000
  H   H881      1.0  0.23862  0.88980  0.41275  1.0000
  H   H882      1.0  0.46585  0.00459  0.53638  1.0000
  H   H883      1.0  0.09531  0.82025  0.59095  1.0000
  H   H884      1.0  0.27634  0.99842  0.13347  1.0000
  H   H885      1.0  0.09463  0.85687  0.58396  1.0000
  H   H886      1.0  0.32045  0.96337  0.18418  1.0000
  H   H887      1.0  0.44116  0.01377  0.21413  1.0000
  N   N26       1.0  0.37978  0.80000  0.15352  1.0000
  H   H888      1.0  0.11025  0.82158  0.49553  1.0000
  H   H889      1.0  0.25629  0.94551  0.43191  1.0000
  H   H890      1.0  0.43521  0.87635  0.53305  1.0000
  H   H891      1.0  0.42889  0.90214  0.31658  1.0000
  C   C477      1.0  0.41421  0.85991  0.61599  1.0000
  H   H892      1.0  0.37651  0.97847  0.58866  1.0000
  C   C478      1.0  0.42299  0.98141  0.52663  1.0000
  H   H893      1.0  0.17570  0.03014  0.25981  1.0000
  H   H894      1.0  0.23870  0.78905  0.54643  1.0000
  H   H895      1.0  0.36644  0.95093  0.16621  1.0000
  C   C479      1.0  0.48059  0.93932  0.45665  1.0000
  H   H896      1.0  0.20352  0.03374  0.44210  1.0000
  H   H897      1.0  0.20417  0.00887  0.37268  1.0000
  S   S114      1.0  0.28772  0.83801  0.48765  1.0000
  H   H898      1.0  0.16965  0.86127  0.32083  1.0000
  H   H899      1.0  0.31986  0.84498  0.26303  1.0000
  C   C480      1.0  0.20752  0.93706  0.22992  1.0000
  C   C481      1.0  0.23131  0.99149  0.57213  1.0000
  C   C482      1.0  0.15357  0.90157  0.34007  1.0000
  H   H900      1.0  0.40683  0.00355  0.59258  1.0000
  H   H901      1.0  0.36446  0.91855  0.38812  1.0000
  H   H902      1.0  0.10228  0.01739  0.25233  1.0000
  H   H903      1.0  0.14633  0.88017  0.54915  1.0000
  H   H904      1.0  0.23930  0.01821  0.20966  1.0000
  H   H905      1.0  0.43652  0.92496  0.42605  1.0000
  S   S115      1.0  0.32316  0.80124  0.39774  1.0000
  H   H906      1.0  0.48015  0.92891  0.21876  1.0000
  H   H907      1.0  0.99298  0.98165  0.60423  1.0000
  C   C483      1.0  0.28480  0.01481  0.57205  1.0000
  C   C484      1.0  0.16164  0.92200  0.36554  1.0000
  H   H908      1.0  0.14808  0.79308  0.55954  1.0000
  H   H909      1.0  0.23289  0.99215  0.44610  1.0000
  H   H910      1.0  0.19573  0.90081  0.58120  1.0000
  H   H911      1.0  0.31242  0.78700  0.22020  1.0000
  H   H912      1.0  0.15933  0.90213  0.22101  1.0000
  C   C485      1.0  0.26057  0.98952  0.42466  1.0000
  C   C486      1.0  0.34387  0.84440  0.18033  1.0000
  H   H913      1.0  0.24428  0.96645  0.36984  1.0000
  H   H914      1.0  0.09671  0.90682  0.21083  1.0000
  C   C487      1.0  0.38605  0.02972  0.20188  1.0000
  C   C488      1.0  0.42565  0.85665  0.55796  1.0000
  C   C489      1.0  0.36253  0.98490  0.40769  1.0000
  H   H915      1.0  0.31445  0.87752  0.21724  1.0000
  C   C490      1.0  0.41543  0.01995  0.23802  1.0000
  H   H916      1.0  0.44296  0.97367  0.42632  1.0000
  H   H917      1.0  0.19857  0.97080  0.16308  1.0000
  H   H918      1.0  0.21904  0.84443  0.54933  1.0000
  H   H919      1.0  0.41896  0.96076  0.51917  1.0000
  H   H920      1.0  0.32654  0.91998  0.14692  1.0000
  H   H921      1.0  0.15032  0.01464  0.32279  1.0000
  Fe  Fe58      1.0  0.33467  0.86428  0.45894  1.0000
  C   C491      1.0  0.45206  0.81716  0.35570  1.0000
  S   S116      1.0  0.21259  0.96210  0.56414  1.0000
  H   H922      1.0  0.31392  0.01465  0.56765  1.0000
  H   H923      1.0  0.99595  0.02268  0.48701  1.0000
  H   H924      1.0  0.13055  0.94218  0.25113  1.0000
  H   H925      1.0  0.20707  0.82535  0.48178  1.0000
  H   H926      1.0  0.30809  0.00394  0.20807  1.0000
  C   C492      1.0  0.46990  0.91016  0.24622  1.0000
  H   H927      1.0  0.47071  0.89831  0.44701  1.0000
  C   C493      1.0  0.36731  0.96262  0.38072  1.0000
  Fe  Fe59      1.0  0.28593  0.83973  0.40057  1.0000
  N   N27       1.0  0.34958  0.01284  0.13880  1.0000
  H   H928      1.0  0.00139  0.92485  0.43301  1.0000
  C   C494      1.0  0.20687  0.87282  0.36634  1.0000
  H   H929      1.0  0.36014  0.87470  0.60496  1.0000
  C   C495      1.0  0.37072  0.81859  0.19426  1.0000
  H   H930      1.0  0.20848  0.91411  0.24039  1.0000
  C   C496      1.0  0.48537  0.83288  0.41593  1.0000
  C   C497      1.0  0.24554  0.94489  0.23086  1.0000
  C   C498      1.0  0.33349  0.85906  0.22791  1.0000
  H   H931      1.0  0.45002  0.93439  0.30799  1.0000
  H   H932      1.0  0.09103  0.86586  0.17364  1.0000
  C   C499      1.0  0.17604  0.87701  0.34064  1.0000
  C   C500      1.0  0.47007  0.01970  0.43248  1.0000
  Fe  Fe60      1.0  0.09085  0.00738  0.51114  1.0000
  H   H933      1.0  0.10532  0.91442  0.13914  1.0000
  H   H934      1.0  0.28643  0.00896  0.34612  1.0000
  H   H935      1.0  0.21455  0.93875  0.14471  1.0000
  H   H936      1.0  0.28559  0.97305  0.55954  1.0000
  H   H937      1.0  0.26515  0.93530  0.20175  1.0000
  C   C501      1.0  0.24464  0.03043  0.16838  1.0000
  S   S117      1.0  0.34272  0.89766  0.50185  1.0000
  C   C502      1.0  0.09886  0.86637  0.47809  1.0000
  H   H938      1.0  0.46204  0.81802  0.17958  1.0000
  C   C503      1.0  0.40542  0.98266  0.58383  1.0000
  H   H939      1.0  0.05221  0.91911  0.48603  1.0000
  H   H940      1.0  0.12961  0.90454  0.32051  1.0000
  H   H941      1.0  0.17527  0.90206  0.15298  1.0000
  H   H942      1.0  0.46122  0.85301  0.23517  1.0000
  C   C504      1.0  0.11635  0.90292  0.17566  1.0000
  C   C505      1.0  0.19196  0.91753  0.39261  1.0000
  H   H943      1.0  0.18934  0.94570  0.26156  1.0000
  H   H944      1.0  0.40723  0.00209  0.27000  1.0000
  C   C506      1.0  0.01845  0.91087  0.56232  1.0000
  H   H945      1.0  0.25336  0.93705  0.27150  1.0000
  H   H946      1.0  0.47737  0.96842  0.54343  1.0000
  H   H947      1.0  0.27858  0.98505  0.45617  1.0000
  H   H948      1.0  0.10485  0.86286  0.39390  1.0000
  C   C507      1.0  0.45629  0.83663  0.38625  1.0000
  H   H949      1.0  0.13676  0.86710  0.13956  1.0000
  C   C508      1.0  0.19396  0.80610  0.50133  1.0000
  C   C509      1.0  0.35082  0.93090  0.46454  1.0000
  C   C510      1.0  0.28006  0.01956  0.13896  1.0000
  H   H950      1.0  0.07600  0.00062  0.21751  1.0000
  C   C511      1.0  0.02499  0.91662  0.50633  1.0000
  H   H951      1.0  0.29384  0.02421  0.39889  1.0000
  H   H952      1.0  0.24654  0.96773  0.22109  1.0000
  N   N28       1.0  0.15679  0.94281  0.16979  1.0000
  H   H953      1.0  0.44079  0.02108  0.42857  1.0000
  Fe  Fe61      1.0  0.36727  0.83003  0.37677  1.0000
  H   H954      1.0  0.40259  0.85099  0.54142  1.0000
  H   H955      1.0  0.14617  0.84075  0.45679  1.0000
  C   C512      1.0  0.34136  0.96077  0.14989  1.0000
  C   C513      1.0  0.34645  0.78931  0.14165  1.0000
  C   C514      1.0  0.47667  0.79383  0.35520  1.0000
  H   H956      1.0  0.46892  0.93407  0.49928  1.0000
  S   S118      1.0  0.05357  0.91118  0.59958  1.0000
  C   C515      1.0  0.43983  0.92004  0.28696  1.0000
  H   H957      1.0  0.41742  0.93147  0.26580  1.0000
  C   C516      1.0  0.08313  0.86600  0.42705  1.0000
  H   H958      1.0  0.33969  0.94929  0.53443  1.0000
  S   S119      1.0  0.23461  0.84201  0.36516  1.0000
  H   H959      1.0  0.22119  0.89615  0.51753  1.0000
  C   C517      1.0  0.12517  0.84024  0.49260  1.0000
  H   H960      1.0  0.12834  0.85956  0.21211  1.0000
  H   H961      1.0  0.13816  0.99831  0.17332  1.0000
  C   C518      1.0  0.21486  0.89303  0.39258  1.0000
  C   C519      1.0  0.36107  0.93564  0.40905  1.0000
  S   S120      1.0  0.41568  0.82161  0.31894  1.0000
  S   S121      1.0  0.10494  0.97890  0.58595  1.0000
  S   S122      1.0  0.36982  0.01859  0.37185  1.0000
  C   C520      1.0  0.47215  0.97018  0.43155  1.0000
  H   H962      1.0  0.17448  0.87045  0.49315  1.0000
  C   C521      1.0  0.34707  0.95305  0.49146  1.0000
  C   C522      1.0  0.21461  0.88630  0.56040  1.0000
  H   H963      1.0  0.10161  0.95345  0.20193  1.0000
  C   C523      1.0  0.09799  0.99724  0.24300  1.0000
  C   C524      1.0  0.35200  0.98009  0.46297  1.0000
  H   H964      1.0  0.19158  0.85011  0.60926  1.0000
  C   C525      1.0  0.13283  0.98520  0.21356  1.0000
  N   N29       1.0  0.48212  0.99099  0.46101  1.0000
  H   H965      1.0  0.18052  0.79967  0.47089  1.0000
  C   C526      1.0  0.16560  0.81073  0.55017  1.0000
  S   S123      1.0  0.37509  0.82742  0.46188  1.0000
  C   C527      1.0  0.26888  0.99130  0.56755  1.0000
  S   S124      1.0  0.14555  0.00186  0.46350  1.0000
  H   H966      1.0  0.18005  0.80812  0.58546  1.0000
  Fe  Fe62      1.0  0.15829  0.97100  0.53661  1.0000
  C   C528      1.0  0.21592  0.02703  0.34487  1.0000
  H   H967      1.0  0.43722  0.85469  0.38675  1.0000
  H   H968      1.0  0.31855  0.83858  0.17004  1.0000
  H   H969      1.0  0.31063  0.90639  0.60287  1.0000
  H   H970      1.0  0.40296  0.99627  0.15815  1.0000
  H   H971      1.0  0.06739  0.88609  0.41457  1.0000
  C   C529      1.0  0.20939  0.01501  0.58260  1.0000
  H   H972      1.0  0.18027  0.01520  0.58622  1.0000
  H   H973      1.0  0.40856  0.99710  0.49871  1.0000
  S   S125      1.0  0.14060  0.93548  0.50914  1.0000
  H   H974      1.0  0.45764  0.89836  0.22261  1.0000
  C   C530      1.0  0.46608  0.92024  0.42667  1.0000
  C   C531      1.0  0.27240  0.01585  0.38291  1.0000
  C   C532      1.0  0.37717  0.00561  0.17732  1.0000
  H   H975      1.0  0.08933  0.98310  0.28135  1.0000
  H   H976      1.0  0.22957  0.01847  0.30961  1.0000
  H   H977      1.0  0.35912  0.80692  0.23375  1.0000
  H   H978      1.0  0.36794  0.98896  0.21156  1.0000
  H   H979      1.0  0.48218  0.80315  0.23908  1.0000
  Fe  Fe63      1.0  0.32813  0.80144  0.48285  1.0000
  C   C533      1.0  0.11265  0.83741  0.58918  1.0000
  C   C534      1.0  0.12953  0.95472  0.21028  1.0000
  S   S126      1.0  0.13475  0.95354  0.36057  1.0000
  C   C535      1.0  0.19489  0.94816  0.17428  1.0000
  H   H980      1.0  0.29114  0.95940  0.38033  1.0000
  Fe  Fe64      1.0  0.12399  0.96653  0.43985  1.0000
  H   H981      1.0  0.07535  0.86741  0.50958  1.0000
  Fe  Fe65      1.0  0.08638  0.94549  0.55231  1.0000
  C   C536      1.0  0.31282  0.01892  0.16945  1.0000
  H   H982      1.0  0.06473  0.84910  0.43430  1.0000
  H   H983      1.0  0.22194  0.02873  0.14657  1.0000
  H   H984      1.0  0.24008  0.88260  0.57855  1.0000
  H   H985      1.0  0.37539  0.96623  0.33787  1.0000
  C   C537      1.0  0.19792  0.85883  0.56611  1.0000
  H   H986      1.0  0.35789  0.86594  0.23925  1.0000
  H   H987      1.0  0.44805  0.84007  0.55576  1.0000
  H   H988      1.0  0.48031  0.92256  0.38509  1.0000
  C   C538      1.0  0.46363  0.98641  0.51824  1.0000
  S   S127      1.0  0.06805  0.97466  0.48098  1.0000
  H   H989      1.0  0.35622  0.85971  0.14626  1.0000
  S   S128      1.0  0.32996  0.86882  0.37180  1.0000
  C   C539      1.0  0.11838  0.87193  0.17522  1.0000
  H   H990      1.0  0.19809  0.93321  0.41265  1.0000
  C   C540      1.0  0.98885  0.03013  0.40461  1.0000
  C   C541      1.0  0.15392  0.91193  0.17983  1.0000
  H   H991      1.0  0.11309  0.88557  0.47163  1.0000
  N   N30       1.0  0.14268  0.83797  0.54255  1.0000
  C   C542      1.0  0.16431  0.86276  0.53615  1.0000
  C   C543      1.0  0.26321  0.96373  0.39987  1.0000
  H   H992      1.0  0.38965  0.90182  0.59105  1.0000
  H   H993      1.0  0.01825  0.02580  0.39188  1.0000
  H   H994      1.0  0.41928  0.96689  0.61298  1.0000
  H   H995      1.0  0.32944  0.80643  0.11958  1.0000
  C   C544      1.0  0.32818  0.94081  0.12075  1.0000
  H   H996      1.0  0.97900  0.08171  0.93188  1.0000
  H   H997      1.0  0.59077  0.08764  0.91616  1.0000
  H   H998      1.0  0.79028  0.24393  0.08307  1.0000
  H   H999      1.0  0.97897  0.19398  0.87367  1.0000
  S   S129      1.0  0.85504  0.21479  0.75786  1.0000
  C   C545      1.0  0.86555  0.13177  0.91053  1.0000
  H   H1000     1.0  0.77852  0.23148  0.02721  1.0000
  H   H1001     1.0  0.75697  0.21857  0.79410  1.0000
  H   H1002     1.0  0.70656  0.26232  0.89875  1.0000
  H   H1003     1.0  0.82615  0.17824  0.11574  1.0000
  H   H1004     1.0  0.55716  0.14458  0.65471  1.0000
  C   C546      1.0  0.71675  0.28157  0.87240  1.0000
  C   C547      1.0  0.96598  0.19153  0.79540  1.0000
  C   C548      1.0  0.97814  0.13365  0.76668  1.0000
  C   C549      1.0  0.74918  0.05566  0.67403  1.0000
  H   H1005     1.0  0.72213  0.10846  0.88248  1.0000
  C   C550      1.0  0.56336  0.09548  0.93281  1.0000
  S   S130      1.0  0.56180  0.26346  0.95788  1.0000
  S   S131      1.0  0.72712  0.16912  0.65422  1.0000
  N   N31       1.0  0.75385  0.03548  0.81522  1.0000
  C   C551      1.0  0.95368  0.08439  0.95960  1.0000
  H   H1006     1.0  0.59860  0.18658  0.82722  1.0000
  C   C552      1.0  0.66753  0.17553  0.96977  1.0000
  H   H1007     1.0  0.64312  0.17816  0.99720  1.0000
  H   H1008     1.0  0.84078  0.17137  0.01300  1.0000
  H   H1009     1.0  0.67610  0.11469  0.82500  1.0000
  C   C553      1.0  0.73034  0.15766  0.95427  1.0000
  C   C554      1.0  0.77637  0.04588  0.76255  1.0000
  H   H1010     1.0  0.91664  0.24048  0.98746  1.0000
  C   C555      1.0  0.53987  0.06977  0.87138  1.0000
  Fe  Fe66      1.0  0.56924  0.20343  0.08020  1.0000
  H   H1011     1.0  0.88693  0.11483  0.90507  1.0000
  S   S132      1.0  0.80788  0.06972  0.00579  1.0000
  C   C556      1.0  0.49728  0.14265  0.96630  1.0000
  C   C557      1.0  0.51080  0.24913  0.76320  1.0000
  C   C558      1.0  0.65115  0.04460  0.96854  1.0000
  H   H1012     1.0  0.86491  0.12255  0.09858  1.0000
  H   H1013     1.0  0.83204  0.25270  0.96889  1.0000
  C   C559      1.0  0.88019  0.24469  0.11742  1.0000
  S   S133      1.0  0.72387  0.07731  0.06556  1.0000
  H   H1014     1.0  0.94482  0.17714  0.81338  1.0000
  H   H1015     1.0  0.70148  0.19298  0.83827  1.0000
  H   H1016     1.0  0.63494  0.16650  0.79552  1.0000
  H   H1017     1.0  0.76815  0.11734  0.87613  1.0000
  H   H1018     1.0  0.50977  0.26321  0.86383  1.0000
  H   H1019     1.0  0.77593  0.28158  0.96602  1.0000
  C   C560      1.0  0.66283  0.10007  0.75794  1.0000
  S   S134      1.0  0.82243  0.12947  0.63413  1.0000
  H   H1020     1.0  0.75387  0.08678  0.92247  1.0000
  H   H1021     1.0  0.56633  0.26172  0.81720  1.0000
  H   H1022     1.0  0.56955  0.10037  0.06642  1.0000
  Fe  Fe67      1.0  0.60692  0.04941  0.63218  1.0000
  H   H1023     1.0  0.52863  0.05350  0.90460  1.0000
  H   H1024     1.0  0.54946  0.15128  0.88383  1.0000
  H   H1025     1.0  0.52433  0.17743  0.80504  1.0000
  C   C561      1.0  0.75691  0.06755  0.72106  1.0000
  C   C562      1.0  0.85411  0.05014  0.68642  1.0000
  H   H1026     1.0  0.69719  0.15108  0.03131  1.0000
  C   C563      1.0  0.96070  0.08500  0.77166  1.0000
  C   C564      1.0  0.86029  0.14527  0.08391  1.0000
  S   S135      1.0  0.55257  0.19728  0.00425  1.0000
  C   C565      1.0  0.70042  0.18387  0.88026  1.0000
  C   C566      1.0  0.85620  0.15088  0.02355  1.0000
  H   H1027     1.0  0.65677  0.08893  0.68355  1.0000
  H   H1028     1.0  0.61190  0.12331  0.85786  1.0000
  H   H1029     1.0  0.55326  0.22127  0.80218  1.0000
  S   S136      1.0  0.61632  0.22742  0.03840  1.0000
  H   H1030     1.0  0.95583  0.17829  0.70041  1.0000
  H   H1031     1.0  0.69287  0.12581  0.62759  1.0000
  H   H1032     1.0  0.94511  0.21232  0.01982  1.0000
  H   H1033     1.0  0.82581  0.22621  0.90355  1.0000
  Fe  Fe68      1.0  0.51837  0.23731  0.00528  1.0000
  C   C567      1.0  0.76865  0.23405  0.89345  1.0000
  H   H1034     1.0  0.57223  0.16529  0.92512  1.0000
  H   H1035     1.0  0.73583  0.07226  0.64564  1.0000
  H   H1036     1.0  0.71997  0.24491  0.69486  1.0000
  H   H1037     1.0  0.91582  0.11533  0.03950  1.0000
  C   C568      1.0  0.80113  0.23738  0.04455  1.0000
  H   H1038     1.0  0.62400  0.07628  0.10222  1.0000
  H   H1039     1.0  0.51518  0.15411  0.69372  1.0000
  C   C569      1.0  0.70010  0.13820  0.75012  1.0000
  H   H1040     1.0  0.79156  0.07679  0.83900  1.0000
  C   C570      1.0  0.61970  0.19322  0.62151  1.0000
  S   S137      1.0  0.79133  0.09448  0.11595  1.0000
  Fe  Fe69      1.0  0.60996  0.05274  0.74775  1.0000
  H   H1041     1.0  0.84339  0.26557  0.02350  1.0000
  H   H1042     1.0  0.51669  0.12790  0.65438  1.0000
  H   H1043     1.0  0.83785  0.13555  0.01941  1.0000
  C   C571      1.0  0.91794  0.24091  0.11055  1.0000
  C   C572      1.0  0.52734  0.14779  0.65551  1.0000
  C   C573      1.0  0.66926  0.18846  0.91569  1.0000
  C   C574      1.0  0.69804  0.15991  0.98905  1.0000
  H   H1044     1.0  0.73159  0.07705  0.73999  1.0000
  H   H1045     1.0  0.70524  0.03769  0.77859  1.0000
  N   N32       1.0  0.51884  0.27567  0.77727  1.0000
  Fe  Fe70      1.0  0.53702  0.05391  0.71076  1.0000
  H   H1046     1.0  0.90450  0.16227  0.89889  1.0000
  Fe  Fe71      1.0  0.76249  0.04304  0.04036  1.0000
  S   S138      1.0  0.63725  0.07404  0.79789  1.0000
  H   H1047     1.0  0.79505  0.25089  0.81434  1.0000
  C   C575      1.0  0.91647  0.16934  0.99016  1.0000
  C   C576      1.0  0.87067  0.05152  0.73075  1.0000
  H   H1048     1.0  0.73419  0.04920  0.88921  1.0000
  C   C577      1.0  0.92929  0.21922  0.98577  1.0000
  C   C578      1.0  0.51830  0.19688  0.77638  1.0000
  H   H1049     1.0  0.49613  0.16494  0.96870  1.0000
  C   C579      1.0  0.80269  0.21459  0.90111  1.0000
  H   H1050     1.0  0.79148  0.27285  0.86026  1.0000
  H   H1051     1.0  0.63072  0.14669  0.88897  1.0000
  S   S139      1.0  0.86785  0.08222  0.75596  1.0000
  C   C580      1.0  0.92157  0.26361  0.64745  1.0000
  C   C581      1.0  0.77590  0.25873  0.84622  1.0000
  H   H1052     1.0  0.82719  0.15675  0.86130  1.0000
  H   H1053     1.0  0.79946  0.03624  0.89779  1.0000
  H   H1054     1.0  0.95759  0.07265  0.00015  1.0000
  C   C582      1.0  0.53086  0.12701  0.99092  1.0000
  N   N33       1.0  0.56498  0.12167  0.95336  1.0000
  H   H1055     1.0  0.56818  0.06279  0.85750  1.0000
  C   C583      1.0  0.75072  0.09990  0.88263  1.0000
  C   C584      1.0  0.62659  0.09271  0.06548  1.0000
  H   H1056     1.0  0.77442  0.08489  0.70420  1.0000
  H   H1057     1.0  0.74722  0.22211  0.88669  1.0000
  Fe  Fe72      1.0  0.84676  0.12299  0.70983  1.0000
  C   C585      1.0  0.59634  0.11760  0.98531  1.0000
  C   C586      1.0  0.68835  0.12400  0.67048  1.0000
  H   H1058     1.0  0.58903  0.16053  0.79230  1.0000
  H   H1059     1.0  0.93407  0.09096  0.79361  1.0000
  C   C587      1.0  0.93706  0.27775  0.67894  1.0000
  C   C588      1.0  0.64329  0.27442  0.11010  1.0000
  C   C589      1.0  0.92650  0.27301  0.73438  1.0000
  C   C590      1.0  0.82055  0.26063  0.00572  1.0000
  H   H1060     1.0  0.53628  0.13948  0.01973  1.0000
  H   H1061     1.0  0.88324  0.15530  0.09199  1.0000
  S   S140      1.0  0.82189  0.19673  0.62900  1.0000
  H   H1062     1.0  0.80113  0.15225  0.10187  1.0000
  H   H1063     1.0  0.86065  0.17378  0.92419  1.0000
  H   H1064     1.0  0.92939  0.16238  0.02729  1.0000
  N   N34       1.0  0.89069  0.14894  0.98528  1.0000
  H   H1065     1.0  0.52884  0.07996  0.61984  1.0000
  H   H1066     1.0  0.71201  0.06715  0.83556  1.0000
  H   H1067     1.0  0.71245  0.15179  0.76876  1.0000
  H   H1068     1.0  0.62977  0.11264  0.07712  1.0000
  H   H1069     1.0  0.82706  0.03452  0.83468  1.0000
  H   H1070     1.0  0.52270  0.10706  0.01702  1.0000
  H   H1071     1.0  0.51000  0.10171  0.90656  1.0000
  C   C591      1.0  0.89650  0.24407  0.67144  1.0000
  H   H1072     1.0  0.53658  0.19658  0.73812  1.0000
  H   H1073     1.0  0.65104  0.08710  0.03851  1.0000
  H   H1074     1.0  0.63302  0.17627  0.64940  1.0000
  H   H1075     1.0  0.86713  0.26414  0.09940  1.0000
  C   C592      1.0  0.67939  0.11735  0.78189  1.0000
  C   C593      1.0  0.88092  0.15558  0.92894  1.0000
  H   H1076     1.0  0.93175  0.07598  0.94500  1.0000
  S   S141      1.0  0.58317  0.08060  0.68249  1.0000
  C   C594      1.0  0.62436  0.26789  0.74230  1.0000
  Fe  Fe73      1.0  0.59703  0.22370  0.96279  1.0000
  C   C595      1.0  0.58522  0.26955  0.73155  1.0000
  H   H1077     1.0  0.88528  0.23276  0.64703  1.0000
  Fe  Fe74      1.0  0.82450  0.05867  0.08749  1.0000
  C   C596      1.0  0.90065  0.25407  0.75820  1.0000
  H   H1078     1.0  0.51471  0.15757  0.11195  1.0000
  H   H1079     1.0  0.93955  0.16999  0.95717  1.0000
  H   H1080     1.0  0.96689  0.12230  0.97714  1.0000
  H   H1081     1.0  0.95672  0.06968  0.74756  1.0000
  H   H1082     1.0  0.70139  0.05950  0.97611  1.0000
  H   H1083     1.0  0.52377  0.07226  0.83781  1.0000
  C   C597      1.0  0.73117  0.16906  0.89966  1.0000
  H   H1084     1.0  0.70344  0.24543  0.82429  1.0000
  S   S142      1.0  0.80600  0.15342  0.74486  1.0000
  H   H1085     1.0  0.88507  0.20714  0.95426  1.0000
  C   C598      1.0  0.66785  0.10310  0.70222  1.0000
  C   C599      1.0  0.60737  0.14383  0.86958  1.0000
  C   C600      1.0  0.52408  0.22197  0.79929  1.0000
  C   C601      1.0  0.90885  0.12007  0.99797  1.0000
  C   C602      1.0  0.97682  0.11043  0.73492  1.0000
  H   H1086     1.0  0.95607  0.20632  0.76104  1.0000
  C   C603      1.0  0.82601  0.15573  0.11697  1.0000
  C   C604      1.0  0.85121  0.14175  0.85700  1.0000
  S   S143      1.0  0.88076  0.04782  0.10774  1.0000
  C   C605      1.0  0.73912  0.05821  0.84580  1.0000
  Fe  Fe75      1.0  0.57720  0.26504  0.03778  1.0000
  H   H1087     1.0  0.55413  0.07859  0.96637  1.0000
  H   H1088     1.0  0.54621  0.11318  0.85372  1.0000
  C   C606      1.0  0.72724  0.22734  0.72699  1.0000
  H   H1089     1.0  0.70772  0.27228  0.76731  1.0000
  H   H1090     1.0  0.61158  0.21102  0.64207  1.0000
  H   H1091     1.0  0.84325  0.12281  0.94028  1.0000
  H   H1092     1.0  0.87235  0.15163  0.82590  1.0000
  C   C607      1.0  0.72381  0.25798  0.79593  1.0000
  H   H1093     1.0  0.88990  0.10422  0.99814  1.0000
  H   H1094     1.0  0.94948  0.14171  0.77567  1.0000
  C   C608      1.0  0.94475  0.11500  0.96116  1.0000
  H   H1095     1.0  0.94456  0.12634  0.91934  1.0000
  H   H1096     1.0  0.58103  0.24939  0.72207  1.0000
  H   H1097     1.0  0.59011  0.07450  0.02913  1.0000
  H   H1098     1.0  0.82046  0.21894  0.05280  1.0000
  S   S144      1.0  0.88741  0.15427  0.67734  1.0000
  H   H1099     1.0  0.84285  0.12375  0.84361  1.0000
  Fe  Fe76      1.0  0.77079  0.10342  0.03628  1.0000
  H   H1100     1.0  0.88112  0.20078  0.02639  1.0000
  H   H1101     1.0  0.79973  0.05582  0.76888  1.0000
  C   C609      1.0  0.57166  0.14639  0.90849  1.0000
  Fe  Fe77      1.0  0.84511  0.18538  0.70667  1.0000
  C   C610      1.0  0.70394  0.14183  0.69437  1.0000
  C   C611      1.0  0.88607  0.23928  0.72687  1.0000
  H   H1102     1.0  0.79768  0.19896  0.93862  1.0000
  C   C612      1.0  0.68698  0.04140  0.97907  1.0000
  C   C613      1.0  0.53834  0.09727  0.88977  1.0000
  H   H1103     1.0  0.84110  0.06872  0.66482  1.0000
  H   H1104     1.0  0.77478  0.04779  0.65216  1.0000
  H   H1105     1.0  0.75603  0.16733  0.87252  1.0000
  C   C614      1.0  0.74790  0.23712  0.76527  1.0000
  C   C615      1.0  0.76246  0.08319  0.83845  1.0000
  H   H1106     1.0  0.75968  0.09736  0.79951  1.0000
  C   C616      1.0  0.59309  0.09515  0.03758  1.0000
  H   H1107     1.0  0.63820  0.06507  0.95781  1.0000
  H   H1108     1.0  0.64296  0.26336  0.70664  1.0000
  S   S145      1.0  0.53119  0.24146  0.08533  1.0000
  C   C617      1.0  0.89998  0.19957  0.98909  1.0000
  S   S146      1.0  0.77106  0.14429  0.97876  1.0000
  H   H1109     1.0  0.94806  0.22018  0.94777  1.0000
  H   H1110     1.0  0.52193  0.24838  0.72086  1.0000
  Fe  Fe78      1.0  0.78545  0.16284  0.66569  1.0000
  C   C618      1.0  0.97014  0.20805  0.83761  1.0000
  H   H1111     1.0  0.62204  0.11193  0.96065  1.0000
  S   S147      1.0  0.63410  0.21222  0.89255  1.0000
  H   H1112     1.0  0.75949  0.24173  0.93126  1.0000
  H   H1113     1.0  0.80985  0.20362  0.86706  1.0000
  H   H1114     1.0  0.89253  0.25050  0.80106  1.0000
  C   C619      1.0  0.60726  0.16575  0.81807  1.0000
  C   C620      1.0  0.55855  0.27614  0.78059  1.0000
  H   H1115     1.0  0.94385  0.21931  0.84947  1.0000
  S   S148      1.0  0.94282  0.26845  0.07305  1.0000
  H   H1116     1.0  0.70224  0.21793  0.74863  1.0000
  H   H1117     1.0  0.74471  0.21144  0.70810  1.0000
  H   H1118     1.0  0.60044  0.13750  0.99670  1.0000
  H   H1119     1.0  0.77249  0.24595  0.74137  1.0000
  H   H1120     1.0  0.62923  0.25097  0.77700  1.0000
  C   C621      1.0  0.49785  0.27831  0.83129  1.0000
  C   C622      1.0  0.98520  0.17241  0.69003  1.0000
  H   H1121     1.0  0.49755  0.14203  0.92389  1.0000
  H   H1122     1.0  0.97908  0.07500  0.80125  1.0000
  N   N35       1.0  0.74271  0.27451  0.82506  1.0000
  H   H1123     1.0  0.50904  0.22009  0.84037  1.0000
  H   H1124     1.0  0.73098  0.03863  0.68777  1.0000
  H   H1125     1.0  0.95949  0.11809  0.70292  1.0000
  H   H1126     1.0  0.48992  0.19761  0.76861  1.0000
  H   H1127     1.0  0.64501  0.28069  0.92520  1.0000
  H   H1128     1.0  0.54513  0.23382  0.62014  1.0000
  H   H1129     1.0  0.62666  0.25722  0.11679  1.0000
  H   H1130     1.0  0.96967  0.16206  0.31221  1.0000
  Fe  Fe79      1.0  0.79573  0.19924  0.24817  1.0000
  C   C623      1.0  0.81808  0.09258  0.27954  1.0000
  H   H1131     1.0  0.60861  0.13928  0.43379  1.0000
  C   C624      1.0  0.70138  0.13089  0.49680  1.0000
  H   H1132     1.0  0.82139  0.05869  0.53127  1.0000
  Fe  Fe80      1.0  0.75356  0.23609  0.32432  1.0000
  H   H1133     1.0  0.88341  0.10922  0.22681  1.0000
  H   H1134     1.0  0.66262  0.11339  0.36126  1.0000
  H   H1135     1.0  0.83029  0.22768  0.15573  1.0000
  H   H1136     1.0  0.66606  0.15981  0.56991  1.0000
  H   H1137     1.0  0.94532  0.10196  0.18181  1.0000
  C   C625      1.0  0.67442  0.11429  0.31994  1.0000
  H   H1138     1.0  0.58869  0.26834  0.57360  1.0000
  H   H1139     1.0  0.62471  0.05982  0.35315  1.0000
  H   H1140     1.0  0.84194  0.21681  0.33990  1.0000
  H   H1141     1.0  0.93350  0.06338  0.44704  1.0000
  H   H1142     1.0  0.67890  0.22828  0.47500  1.0000
  H   H1143     1.0  0.94081  0.12894  0.39092  1.0000
  H   H1144     1.0  0.53539  0.16607  0.30897  1.0000
  C   C626      1.0  0.69474  0.03765  0.55718  1.0000
  H   H1145     1.0  0.52167  0.22786  0.41943  1.0000
  C   C627      1.0  0.71727  0.04445  0.44681  1.0000
  H   H1146     1.0  0.85382  0.07479  0.19349  1.0000
  H   H1147     1.0  0.92968  0.26732  0.60456  1.0000
  C   C628      1.0  0.97685  0.22149  0.46825  1.0000
  H   H1148     1.0  0.97957  0.13426  0.27552  1.0000
  H   H1149     1.0  0.89809  0.21175  0.55282  1.0000
  S   S149      1.0  0.89097  0.15993  0.52215  1.0000
  C   C629      1.0  0.68650  0.08976  0.30141  1.0000
  H   H1150     1.0  0.63310  0.17162  0.52780  1.0000
  H   H1151     1.0  0.88285  0.03610  0.54979  1.0000
  H   H1152     1.0  0.95732  0.15866  0.45126  1.0000
  S   S150      1.0  0.70556  0.24296  0.28098  1.0000
  C   C630      1.0  0.87971  0.26013  0.30427  1.0000
  C   C631      1.0  0.96238  0.11671  0.58240  1.0000
  C   C632      1.0  0.49887  0.15483  0.26026  1.0000
  H   H1153     1.0  0.64514  0.19973  0.40117  1.0000
  C   C633      1.0  0.51744  0.17022  0.60833  1.0000
  C   C634      1.0  0.56000  0.27450  0.57917  1.0000
  C   C635      1.0  0.78271  0.09368  0.31955  1.0000
  C   C636      1.0  0.97701  0.13943  0.31578  1.0000
  H   H1154     1.0  0.52851  0.12958  0.47723  1.0000
  H   H1155     1.0  0.82650  0.08420  0.57010  1.0000
  H   H1156     1.0  0.71929  0.13158  0.52659  1.0000
  H   H1157     1.0  0.87577  0.07301  0.46875  1.0000
  C   C637      1.0  0.75738  0.18359  0.47613  1.0000
  H   H1158     1.0  0.76439  0.13475  0.27808  1.0000
  Fe  Fe81      1.0  0.74542  0.24901  0.20622  1.0000
  H   H1159     1.0  0.86922  0.07004  0.33785  1.0000
  H   H1160     1.0  0.49123  0.06475  0.30918  1.0000
  H   H1161     1.0  0.82935  0.22628  0.42340  1.0000
  C   C638      1.0  0.52235  0.08941  0.17299  1.0000
  H   H1162     1.0  0.54725  0.14026  0.40969  1.0000
  C   C639      1.0  0.88438  0.24043  0.39859  1.0000
  H   H1163     1.0  0.85736  0.14273  0.40704  1.0000
  C   C640      1.0  0.85263  0.05430  0.33055  1.0000
  H   H1164     1.0  0.70375  0.10841  0.43217  1.0000
  H   H1165     1.0  0.87957  0.20514  0.29781  1.0000
  C   C641      1.0  0.94549  0.12419  0.35003  1.0000
  H   H1166     1.0  0.65381  0.25152  0.37678  1.0000
  C   C642      1.0  0.54375  0.17298  0.45601  1.0000
  C   C643      1.0  0.52874  0.14740  0.29600  1.0000
  C   C644      1.0  0.81010  0.04509  0.27256  1.0000
  S   S151      1.0  0.71639  0.05958  0.22596  1.0000
  H   H1167     1.0  0.96958  0.12967  0.54225  1.0000
  C   C645      1.0  0.49717  0.08615  0.55606  1.0000
  H   H1168     1.0  0.95100  0.10141  0.35300  1.0000
  C   C646      1.0  0.92094  0.20763  0.52359  1.0000
  H   H1169     1.0  0.81521  0.18232  0.47769  1.0000
  C   C647      1.0  0.65746  0.17804  0.54007  1.0000
  H   H1170     1.0  0.78769  0.13432  0.33480  1.0000
  C   C648      1.0  0.69101  0.15996  0.46349  1.0000
  H   H1171     1.0  0.67649  0.12147  0.51918  1.0000
  H   H1172     1.0  0.93788  0.21928  0.29179  1.0000
  H   H1173     1.0  0.85409  0.26953  0.47767  1.0000
  H   H1174     1.0  0.88861  0.27914  0.31348  1.0000
  H   H1175     1.0  0.53383  0.14043  0.55677  1.0000
  H   H1176     1.0  0.61908  0.07047  0.28350  1.0000
  C   C649      1.0  0.55896  0.13778  0.15346  1.0000
  H   H1177     1.0  0.66941  0.20972  0.58252  1.0000
  C   C650      1.0  0.50948  0.26067  0.46329  1.0000
  S   S152      1.0  0.49695  0.06041  0.19179  1.0000
  H   H1178     1.0  0.93694  0.07961  0.61866  1.0000
  H   H1179     1.0  0.49409  0.13559  0.24763  1.0000
  H   H1180     1.0  0.92055  0.13080  0.33103  1.0000
  C   C651      1.0  0.83195  0.07903  0.52960  1.0000
  C   C652      1.0  0.83917  0.25141  0.47729  1.0000
  C   C653      1.0  0.67859  0.21031  0.45542  1.0000
  H   H1181     1.0  0.53799  0.26397  0.46530  1.0000
  Fe  Fe82      1.0  0.71450  0.19778  0.27915  1.0000
  C   C654      1.0  0.52633  0.13832  0.13341  1.0000
  S   S153      1.0  0.79343  0.24427  0.24968  1.0000
  C   C655      1.0  0.64575  0.20226  0.57047  1.0000
  H   H1182     1.0  0.74190  0.12453  0.34514  1.0000
  H   H1183     1.0  0.91327  0.03600  0.38310  1.0000
  C   C656      1.0  0.87623  0.20005  0.17786  1.0000
  N   N36       1.0  0.93448  0.05373  0.53257  1.0000
  H   H1184     1.0  0.55368  0.08294  0.30993  1.0000
  C   C657      1.0  0.72162  0.18586  0.51464  1.0000
  H   H1185     1.0  0.61239  0.26285  0.21905  1.0000
  C   C658      1.0  0.93755  0.09463  0.58019  1.0000
  H   H1186     1.0  0.82491  0.14478  0.15934  1.0000
  N   N37       1.0  0.83739  0.06420  0.27850  1.0000
  H   H1187     1.0  0.78996  0.05679  0.24694  1.0000
  H   H1188     1.0  0.70029  0.21351  0.42047  1.0000
  H   H1189     1.0  0.60750  0.24289  0.38580  1.0000
  C   C659      1.0  0.49823  0.26294  0.61232  1.0000
  C   C660      1.0  0.94298  0.04607  0.47806  1.0000
  C   C661      1.0  0.58710  0.12847  0.46273  1.0000
  H   H1190     1.0  0.59911  0.11242  0.19724  1.0000
  H   H1191     1.0  0.66526  0.15809  0.44878  1.0000
  H   H1192     1.0  0.81000  0.25639  0.49040  1.0000
  H   H1193     1.0  0.90916  0.08166  0.26633  1.0000
  H   H1194     1.0  0.63189  0.21993  0.54498  1.0000
  N   N38       1.0  0.89182  0.23450  0.34272  1.0000
  H   H1195     1.0  0.94943  0.26871  0.30020  1.0000
  H   H1196     1.0  0.52025  0.13139  0.33168  1.0000
  C   C662      1.0  0.63140  0.24249  0.40650  1.0000
  H   H1197     1.0  0.82384  0.16938  0.38322  1.0000
  C   C663      1.0  0.67963  0.13994  0.28591  1.0000
  H   H1198     1.0  0.52684  0.18990  0.61327  1.0000
  C   C664      1.0  0.86659  0.06733  0.23067  1.0000
  H   H1199     1.0  0.83123  0.26223  0.39499  1.0000
  H   H1200     1.0  0.55948  0.07169  0.37994  1.0000
  C   C665      1.0  0.54966  0.14189  0.45133  1.0000
  C   C666      1.0  0.50599  0.23083  0.45824  1.0000
  H   H1201     1.0  0.78690  0.08409  0.36122  1.0000
  H   H1202     1.0  0.88700  0.06091  0.58805  1.0000
  C   C667      1.0  0.84404  0.24475  0.42124  1.0000
  H   H1203     1.0  0.54754  0.21463  0.50893  1.0000
  H   H1204     1.0  0.93907  0.06617  0.18291  1.0000
  H   H1205     1.0  0.50910  0.17000  0.22441  1.0000
  S   S154      1.0  0.57973  0.16845  0.14840  1.0000
  C   C668      1.0  0.76831  0.12370  0.31925  1.0000
  C   C669      1.0  0.53529  0.16311  0.55369  1.0000
  C   C670      1.0  0.94635  0.22736  0.50409  1.0000
  C   C671      1.0  0.57320  0.08005  0.33923  1.0000
  H   H1206     1.0  0.71050  0.16445  0.42609  1.0000
  C   C672      1.0  0.67042  0.04989  0.52139  1.0000
  H   H1207     1.0  0.52062  0.08645  0.52574  1.0000
  C   C673      1.0  0.67632  0.27067  0.13058  1.0000
  H   H1208     1.0  0.89691  0.25948  0.40027  1.0000
  H   H1209     1.0  0.64277  0.04012  0.23614  1.0000
  H   H1210     1.0  0.81716  0.09514  0.50211  1.0000
  H   H1211     1.0  0.72837  0.09118  0.48654  1.0000
  H   H1212     1.0  0.62393  0.25540  0.43761  1.0000
  C   C674      1.0  0.89401  0.05621  0.54747  1.0000
  H   H1213     1.0  0.72071  0.20587  0.52831  1.0000
  H   H1214     1.0  0.50224  0.21521  0.54208  1.0000
  C   C675      1.0  0.57382  0.11284  0.18175  1.0000
  N   N39       1.0  0.68710  0.18352  0.49325  1.0000
  C   C676      1.0  0.92461  0.18310  0.50371  1.0000
  H   H1215     1.0  0.55362  0.13905  0.27322  1.0000
  H   H1216     1.0  0.53329  0.18417  0.41882  1.0000
  H   H1217     1.0  0.76156  0.16344  0.46281  1.0000
  H   H1218     1.0  0.72458  0.16976  0.55093  1.0000
  H   H1219     1.0  0.56713  0.06949  0.21330  1.0000
  C   C677      1.0  0.55577  0.08859  0.19090  1.0000
  H   H1220     1.0  0.72602  0.04753  0.40410  1.0000
  C   C678      1.0  0.89211  0.26021  0.24399  1.0000
  H   H1221     1.0  0.75763  0.20052  0.44042  1.0000
  H   H1222     1.0  0.90554  0.17459  0.37368  1.0000
  H   H1223     1.0  0.92724  0.17651  0.18924  1.0000
  Fe  Fe83      1.0  0.74713  0.06580  0.14300  1.0000
  H   H1224     1.0  0.58241  0.10060  0.33947  1.0000
  H   H1225     1.0  0.78998  0.16887  0.54101  1.0000
  H   H1226     1.0  0.74671  0.11986  0.43923  1.0000
  H   H1227     1.0  0.88142  0.09921  0.50531  1.0000
  C   C679      1.0  0.85939  0.22424  0.15032  1.0000
  H   H1228     1.0  0.66307  0.06267  0.43832  1.0000
  H   H1229     1.0  0.91314  0.09372  0.14373  1.0000
  H   H1230     1.0  0.62881  0.25150  0.28295  1.0000
  H   H1231     1.0  0.98008  0.07755  0.52627  1.0000
  C   C680      1.0  0.51966  0.20987  0.50594  1.0000
  H   H1232     1.0  0.94858  0.13054  0.60936  1.0000
  H   H1233     1.0  0.84964  0.26334  0.30921  1.0000
  C   C681      1.0  0.89563  0.08754  0.22989  1.0000
  H   H1234     1.0  0.78835  0.20591  0.51587  1.0000
  H   H1235     1.0  0.97796  0.04655  0.37331  1.0000
  H   H1236     1.0  0.56462  0.16611  0.54978  1.0000
  H   H1237     1.0  0.95849  0.21439  0.61509  1.0000
  H   H1238     1.0  0.59156  0.12863  0.50415  1.0000
  C   C682      1.0  0.93483  0.21577  0.13494  1.0000
  C   C683      1.0  0.53538  0.25499  0.60539  1.0000
  C   C684      1.0  0.72117  0.11147  0.46114  1.0000
  H   H1239     1.0  0.58189  0.25019  0.27799  1.0000
  Fe  Fe84      1.0  0.86065  0.16254  0.60315  1.0000
  S   S155      1.0  0.62665  0.06298  0.54437  1.0000
  H   H1240     1.0  0.90972  0.10464  0.57839  1.0000
  C   C685      1.0  0.93175  0.22675  0.33038  1.0000
  S   S156      1.0  0.66936  0.17034  0.31180  1.0000
  H   H1241     1.0  0.83050  0.05226  0.36477  1.0000
  H   H1242     1.0  0.76153  0.08293  0.30843  1.0000
  C   C686      1.0  0.50784  0.11417  0.14373  1.0000
  C   C687      1.0  0.85266  0.16156  0.37600  1.0000
  C   C688      1.0  0.95009  0.08078  0.53067  1.0000
  H   H1243     1.0  0.94399  0.09636  0.49456  1.0000
  C   C689      1.0  0.87149  0.21066  0.33789  1.0000
  H   H1244     1.0  0.71841  0.11727  0.17238  1.0000
  C   C690      1.0  0.60582  0.26233  0.26271  1.0000
  H   H1245     1.0  0.57057  0.18120  0.45304  1.0000
  H   H1246     1.0  0.84890  0.23319  0.50612  1.0000
  S   S157      1.0  0.75209  0.25901  0.39112  1.0000
  H   H1247     1.0  0.92197  0.25863  0.23410  1.0000
  C   C691      1.0  0.98116  0.19644  0.45010  1.0000
  C   C692      1.0  0.87249  0.07816  0.50917  1.0000
  C   C693      1.0  0.70202  0.09070  0.24811  1.0000
  H   H1248     1.0  0.96388  0.21203  0.12797  1.0000
  H   H1249     1.0  0.94055  0.20894  0.36097  1.0000
  H   H1250     1.0  0.81087  0.10240  0.23902  1.0000
  H   H1251     1.0  0.88135  0.04713  0.22589  1.0000
  C   C694      1.0  0.69572  0.14099  0.23279  1.0000
  C   C695      1.0  0.70655  0.11635  0.21367  1.0000
  C   C696      1.0  0.64237  0.21262  0.43225  1.0000
  H   H1252     1.0  0.83613  0.10665  0.28935  1.0000
  C   C697      1.0  0.92504  0.08725  0.18165  1.0000
  S   S158      1.0  0.85025  0.17712  0.22702  1.0000
  C   C698      1.0  0.68165  0.05298  0.46618  1.0000
  H   H1253     1.0  0.68542  0.25043  0.15181  1.0000
  N   N40       1.0  0.51928  0.17941  0.50508  1.0000
  H   H1254     1.0  0.85849  0.15568  0.33617  1.0000
  C   C699      1.0  0.78963  0.18536  0.50445  1.0000
  H   H1255     1.0  0.95503  0.25530  0.36889  1.0000
  H   H1256     1.0  0.67685  0.27707  0.44646  1.0000
  C   C700      1.0  0.95449  0.17764  0.46656  1.0000
  C   C701      1.0  0.87720  0.18352  0.37969  1.0000
  H   H1257     1.0  0.87112  0.18731  0.42093  1.0000
  H   H1258     1.0  0.88185  0.24256  0.23248  1.0000
  H   H1259     1.0  0.58951  0.10649  0.45797  1.0000
  H   H1260     1.0  0.69939  0.16079  0.20618  1.0000
  H   H1261     1.0  0.68467  0.07012  0.32888  1.0000
  H   H1262     1.0  0.89746  0.22381  0.42697  1.0000
  C   C702      1.0  0.91400  0.19542  0.16892  1.0000
  S   S159      1.0  0.75010  0.20412  0.19930  1.0000
  S   S160      1.0  0.76042  0.19048  0.32771  1.0000
  H   H1263     1.0  0.94314  0.24670  0.51836  1.0000
  C   C703      1.0  0.95670  0.24989  0.32892  1.0000
  H   H1264     1.0  0.61975  0.20565  0.46339  1.0000
  C   C704      1.0  0.60594  0.06072  0.32360  1.0000
  H   H1265     1.0  0.49217  0.26550  0.49978  1.0000
  C   C705      1.0  0.50186  0.08179  0.60975  1.0000
  H   H1266     1.0  0.79415  0.03738  0.31224  1.0000
  H   H1267     1.0  0.50039  0.27533  0.42808  1.0000
  C   C706      1.0  0.98344  0.03955  0.45828  1.0000
  H   H1268     1.0  0.59507  0.18598  0.61190  1.0000
  H   H1269     1.0  0.48760  0.17293  0.61097  1.0000
  H   H1270     1.0  0.94163  0.03657  0.61525  1.0000
  H   H1271     1.0  0.68656  0.03574  0.59969  1.0000
  H   H1272     1.0  0.57307  0.03452  0.29787  1.0000
  H   H1273     1.0  0.72307  0.48786  0.72524  1.0000
  S   S161      1.0  0.97689  0.31097  0.90321  1.0000
  H   H1274     1.0  0.54007  0.44088  0.75546  1.0000
  C   C707      1.0  0.75353  0.30149  0.78926  1.0000
  S   S162      1.0  0.77908  0.44794  0.76090  1.0000
  C   C708      1.0  0.89501  0.35366  0.69381  1.0000
  H   H1275     1.0  0.91801  0.34356  0.71504  1.0000
  H   H1276     1.0  0.73692  0.32218  0.00447  1.0000
  H   H1277     1.0  0.83470  0.47541  0.94804  1.0000
  C   C709      1.0  0.68562  0.31915  0.09577  1.0000
  S   S163      1.0  0.74628  0.37394  0.81546  1.0000
  S   S164      1.0  0.86746  0.46166  0.67648  1.0000
  C   C710      1.0  0.50825  0.29928  0.73373  1.0000
  C   C711      1.0  0.93201  0.34103  0.96855  1.0000
  H   H1278     1.0  0.71065  0.34864  0.92545  1.0000
  C   C712      1.0  0.96492  0.46911  0.10471  1.0000
  H   H1279     1.0  0.91114  0.40242  0.85378  1.0000
  C   C713      1.0  0.49372  0.46910  0.77409  1.0000
  H   H1280     1.0  0.52288  0.29642  0.69399  1.0000
  C   C714      1.0  0.80897  0.48454  0.96724  1.0000
  C   C715      1.0  0.78337  0.33443  0.94265  1.0000
  C   C716      1.0  0.68276  0.30111  0.85908  1.0000
  H   H1281     1.0  0.90736  0.30940  0.85907  1.0000
  C   C717      1.0  0.49582  0.30748  0.84574  1.0000
  H   H1282     1.0  0.94957  0.38611  0.67709  1.0000
  H   H1283     1.0  0.76926  0.46690  0.10362  1.0000
  N   N41       1.0  0.92903  0.45308  0.03837  1.0000
  H   H1284     1.0  0.50106  0.50314  0.81035  1.0000
  S   S165      1.0  0.77418  0.42800  0.88976  1.0000
  H   H1285     1.0  0.66953  0.29447  0.82877  1.0000
  H   H1286     1.0  0.95544  0.43122  0.70311  1.0000
  H   H1287     1.0  0.95610  0.50362  0.74775  1.0000
  Fe  Fe85      1.0  0.54762  0.38064  0.67910  1.0000
  C   C718      1.0  0.97857  0.43201  0.67025  1.0000
  H   H1288     1.0  0.51710  0.31903  0.73925  1.0000
  C   C719      1.0  0.92941  0.39601  0.65043  1.0000
  C   C720      1.0  0.90535  0.44148  0.08931  1.0000
  S   S166      1.0  0.96963  0.30113  0.64849  1.0000
  H   H1289     1.0  0.64352  0.34301  0.05373  1.0000
  H   H1290     1.0  0.93429  0.41828  0.99777  1.0000
  C   C721      1.0  0.72046  0.35947  0.95347  1.0000
  C   C722      1.0  0.77817  0.52562  0.73273  1.0000
  C   C723      1.0  0.83179  0.32411  0.00197  1.0000
  H   H1291     1.0  0.79322  0.50556  0.73764  1.0000
  S   S167      1.0  0.55868  0.51598  0.09085  1.0000
  H   H1292     1.0  0.74529  0.41253  0.62505  1.0000
  H   H1293     1.0  0.69258  0.53112  0.69430  1.0000
  H   H1294     1.0  0.67426  0.36887  0.79464  1.0000
  H   H1295     1.0  0.66684  0.30827  0.94076  1.0000
  H   H1296     1.0  0.66758  0.33485  0.67278  1.0000
  C   C724      1.0  0.74518  0.42352  0.05727  1.0000
  H   H1297     1.0  0.76538  0.43876  0.05199  1.0000
  H   H1298     1.0  0.86647  0.32465  0.09028  1.0000
  H   H1299     1.0  0.85448  0.52466  0.90001  1.0000
  C   C725      1.0  0.81628  0.31929  0.06239  1.0000
  C   C726      1.0  0.74578  0.39585  0.70908  1.0000
  H   H1300     1.0  0.72116  0.51995  0.95806  1.0000
  H   H1301     1.0  0.77642  0.28935  0.02945  1.0000
  H   H1302     1.0  0.81545  0.32556  0.67700  1.0000
  C   C727      1.0  0.53422  0.46321  0.75735  1.0000
  H   H1303     1.0  0.86030  0.31480  0.00059  1.0000
  C   C728      1.0  0.76410  0.39481  0.07503  1.0000
  H   H1304     1.0  0.97001  0.43971  0.97828  1.0000
  H   H1305     1.0  0.93497  0.47817  0.86020  1.0000
  H   H1306     1.0  0.90853  0.50372  0.93259  1.0000
  H   H1307     1.0  0.74952  0.49819  0.06454  1.0000
  H   H1308     1.0  0.69322  0.46703  0.81673  1.0000
  H   H1309     1.0  0.93497  0.44590  0.90713  1.0000
  H   H1310     1.0  0.56431  0.29698  0.78565  1.0000
  H   H1311     1.0  0.78772  0.32738  0.06915  1.0000
  H   H1312     1.0  0.64149  0.44705  0.08767  1.0000
  H   H1313     1.0  0.72682  0.47435  0.01589  1.0000
  C   C729      1.0  0.92128  0.46709  0.89881  1.0000
  C   C730      1.0  0.94907  0.34068  0.91633  1.0000
  S   S168      1.0  0.59764  0.35827  0.64386  1.0000
  H   H1314     1.0  0.89187  0.53100  0.08929  1.0000
  H   H1315     1.0  0.83415  0.34680  0.98770  1.0000
  H   H1316     1.0  0.64058  0.47917  0.10850  1.0000
  C   C731      1.0  0.63168  0.30041  0.08179  1.0000
  N   N42       1.0  0.81188  0.31299  0.96510  1.0000
  C   C732      1.0  0.85493  0.33158  0.87889  1.0000
  H   H1317     1.0  0.68657  0.46050  0.01018  1.0000
  H   H1318     1.0  0.93884  0.49520  0.04211  1.0000
  H   H1319     1.0  0.73103  0.37925  0.93089  1.0000
  H   H1320     1.0  0.65465  0.52609  0.66492  1.0000
  C   C733      1.0  0.78218  0.29929  0.73969  1.0000
  H   H1321     1.0  0.64942  0.50229  0.02542  1.0000
  H   H1322     1.0  0.55007  0.46786  0.78690  1.0000
  S   S169      1.0  0.56843  0.42237  0.65016  1.0000
  C   C734      1.0  0.67333  0.38656  0.71092  1.0000
  Fe  Fe86      1.0  0.77696  0.46834  0.83069  1.0000
  H   H1323     1.0  0.80612  0.33765  0.73934  1.0000
  C   C735      1.0  0.69161  0.51777  0.96417  1.0000
  C   C736      1.0  0.67405  0.45821  0.79736  1.0000
  C   C737      1.0  0.67922  0.50297  0.02137  1.0000
  H   H1324     1.0  0.63138  0.31638  0.89897  1.0000
  C   C738      1.0  0.65492  0.30159  0.90913  1.0000
  H   H1325     1.0  0.54289  0.47576  0.71712  1.0000
  C   C739      1.0  0.97579  0.41006  0.05041  1.0000
  C   C740      1.0  0.66778  0.47689  0.74374  1.0000
  H   H1326     1.0  0.89757  0.34076  0.81230  1.0000
  H   H1327     1.0  0.65032  0.48355  0.64273  1.0000
  H   H1328     1.0  0.85428  0.43246  0.06741  1.0000
  H   H1329     1.0  0.78662  0.39061  0.04348  1.0000
  H   H1330     1.0  0.95559  0.36380  0.83541  1.0000
  H   H1331     1.0  0.97184  0.37282  0.01976  1.0000
  H   H1332     1.0  0.76392  0.31450  0.81320  1.0000
  C   C741      1.0  0.70379  0.47967  0.70475  1.0000
  S   S170      1.0  0.86326  0.41016  0.95029  1.0000
  C   C742      1.0  0.90741  0.36334  0.97938  1.0000
  H   H1333     1.0  0.77037  0.29086  0.71016  1.0000
  Fe  Fe87      1.0  0.83893  0.44576  0.75787  1.0000
  Fe  Fe88      1.0  0.78111  0.40756  0.81853  1.0000
  H   H1334     1.0  0.68689  0.29954  0.68731  1.0000
  S   S171      1.0  0.59109  0.30513  0.05445  1.0000
  H   H1335     1.0  0.95117  0.48671  0.94400  1.0000
  S   S172      1.0  0.84164  0.40319  0.80938  1.0000
  C   C743      1.0  0.87816  0.42090  0.08475  1.0000
  H   H1336     1.0  0.87633  0.36589  0.71975  1.0000
  H   H1337     1.0  0.71437  0.45811  0.70145  1.0000
  C   C744      1.0  0.65261  0.32288  0.07533  1.0000
  H   H1338     1.0  0.48602  0.45465  0.81237  1.0000
  C   C745      1.0  0.89872  0.38498  0.93775  1.0000
  H   H1339     1.0  0.73673  0.42422  0.01752  1.0000
  H   H1340     1.0  0.75634  0.50840  0.64468  1.0000
  C   C746      1.0  0.72596  0.38323  0.75682  1.0000
  H   H1341     1.0  0.97777  0.47532  0.01840  1.0000
  N   N43       1.0  0.70161  0.49759  0.64994  1.0000
  C   C747      1.0  0.69107  0.32037  0.66242  1.0000
  H   H1342     1.0  0.71575  0.32761  0.67203  1.0000
  C   C748      1.0  0.94228  0.36341  0.87548  1.0000
  H   H1343     1.0  0.80439  0.47374  0.00964  1.0000
  C   C749      1.0  0.72960  0.40340  0.66220  1.0000
  C   C750      1.0  0.69325  0.39923  0.66327  1.0000
  H   H1344     1.0  0.79503  0.35466  0.92527  1.0000
  H   H1345     1.0  0.87539  0.31012  0.81294  1.0000
  C   C751      1.0  0.75064  0.53191  0.77280  1.0000
  H   H1346     1.0  0.76418  0.45691  0.64683  1.0000
  H   H1347     1.0  0.88598  0.48423  0.01700  1.0000
  C   C752      1.0  0.81055  0.51557  0.96446  1.0000
  H   H1348     1.0  0.64804  0.45638  0.82458  1.0000
  C   C753      1.0  0.92281  0.48287  0.94356  1.0000
  H   H1349     1.0  0.80679  0.28609  0.75048  1.0000
  H   H1350     1.0  0.81782  0.29685  0.08042  1.0000
  H   H1351     1.0  0.96042  0.40062  0.08899  1.0000
  H   H1352     1.0  0.48722  0.50240  0.08458  1.0000
  H   H1353     1.0  0.68512  0.43708  0.79158  1.0000
  C   C754      1.0  0.74967  0.34111  0.98229  1.0000
  H   H1354     1.0  0.83389  0.34363  0.85567  1.0000
  H   H1355     1.0  0.65581  0.49739  0.75184  1.0000
  H   H1356     1.0  0.70196  0.33646  0.09037  1.0000
  C   C755      1.0  0.89421  0.48821  0.67778  1.0000
  H   H1357     1.0  0.93810  0.28408  0.75882  1.0000
  C   C756      1.0  0.93856  0.50637  0.71742  1.0000
  H   H1358     1.0  0.69039  0.32267  0.84355  1.0000
  H   H1359     1.0  0.89408  0.36316  0.01967  1.0000
  Fe  Fe89      1.0  0.83489  0.42584  0.87779  1.0000
  C   C757      1.0  0.90892  0.37221  0.64093  1.0000
  S   S173      1.0  0.52686  0.36841  0.76571  1.0000
  C   C758      1.0  0.91689  0.38537  0.88597  1.0000
  H   H1360     1.0  0.75729  0.35266  0.01062  1.0000
  H   H1361     1.0  0.82674  0.29471  0.89457  1.0000
  H   H1362     1.0  0.93741  0.32374  0.00055  1.0000
  H   H1363     1.0  0.78305  0.52429  0.97833  1.0000
  N   N44       1.0  0.69458  0.45906  0.09195  1.0000
  H   H1364     1.0  0.72969  0.31389  0.77318  1.0000
  H   H1365     1.0  0.49249  0.29532  0.93229  1.0000
  H   H1366     1.0  0.68831  0.46182  0.62364  1.0000
  C   C759      1.0  0.94105  0.52909  0.67461  1.0000
  H   H1367     1.0  0.68523  0.50611  0.93480  1.0000
  C   C760      1.0  0.95283  0.47390  0.04827  1.0000
  H   H1368     1.0  0.69165  0.41507  0.09435  1.0000
  H   H1369     1.0  0.77387  0.39928  0.70801  1.0000
  H   H1370     1.0  0.88557  0.45396  0.99159  1.0000
  H   H1371     1.0  0.73090  0.29141  0.89768  1.0000
  C   C761      1.0  0.65464  0.45797  0.11240  1.0000
  S   S174      1.0  0.83698  0.46822  0.82518  1.0000
  C   C762      1.0  0.73985  0.49947  0.62114  1.0000
  H   H1372     1.0  0.77130  0.34154  0.69648  1.0000
  H   H1373     1.0  0.77362  0.32781  0.90891  1.0000
  H   H1374     1.0  0.97724  0.51139  0.10248  1.0000
  C   C763      1.0  0.90419  0.46819  0.99908  1.0000
  H   H1375     1.0  0.68509  0.51578  0.04890  1.0000
  H   H1376     1.0  0.91336  0.46838  0.75214  1.0000
  C   C764      1.0  0.68473  0.52599  0.65768  1.0000
  H   H1377     1.0  0.88033  0.33701  0.68578  1.0000
  H   H1378     1.0  0.69713  0.36436  0.98317  1.0000
  C   C765      1.0  0.83897  0.30643  0.91851  1.0000
  H   H1379     1.0  0.88924  0.45875  0.10632  1.0000
  H   H1380     1.0  0.64775  0.46728  0.72750  1.0000
  H   H1381     1.0  0.89026  0.40577  0.05960  1.0000
  H   H1382     1.0  0.78656  0.48104  0.94654  1.0000
  C   C766      1.0  0.88562  0.32225  0.83840  1.0000
  C   C767      1.0  0.48724  0.38752  0.78734  1.0000
  C   C768      1.0  0.71158  0.42946  0.09799  1.0000
  S   S175      1.0  0.74078  0.50757  0.83249  1.0000
  H   H1383     1.0  0.83648  0.35600  0.07843  1.0000
  H   H1384     1.0  0.64515  0.38340  0.71198  1.0000
  C   C769      1.0  0.83775  0.33325  0.09362  1.0000
  C   C770      1.0  0.74877  0.48471  0.10477  1.0000
  S   S176      1.0  0.95974  0.53366  0.82577  1.0000
  H   H1385     1.0  0.89286  0.46547  0.89406  1.0000
  H   H1386     1.0  0.52324  0.31426  0.84377  1.0000
  H   H1387     1.0  0.90980  0.40870  0.67458  1.0000
  C   C771      1.0  0.68985  0.37825  0.75761  1.0000
  C   C772      1.0  0.91466  0.48617  0.71951  1.0000
  H   H1388     1.0  0.49510  0.51346  0.74239  1.0000
  H   H1389     1.0  0.86549  0.34531  0.90069  1.0000
  H   H1390     1.0  0.86242  0.29267  0.93318  1.0000
  C   C773      1.0  0.79441  0.32780  0.71157  1.0000
  C   C774      1.0  0.79427  0.28669  0.99196  1.0000
  C   C775      1.0  0.69802  0.47317  0.03363  1.0000
  H   H1391     1.0  0.74489  0.37851  0.08171  1.0000
  C   C776      1.0  0.95155  0.43048  0.01401  1.0000
  H   H1392     1.0  0.82894  0.51800  0.99273  1.0000
  C   C777      1.0  0.82485  0.53045  0.90699  1.0000
  C   C778      1.0  0.67849  0.48400  0.62170  1.0000
  H   H1393     1.0  0.49671  0.37657  0.86956  1.0000
  C   C779      1.0  0.89677  0.51082  0.63496  1.0000
  C   C780      1.0  0.91958  0.53152  0.63398  1.0000
  H   H1394     1.0  0.81279  0.52095  0.87888  1.0000
  H   H1395     1.0  0.97852  0.44812  0.11574  1.0000
  H   H1396     1.0  0.63049  0.28787  0.75079  1.0000
  H   H1397     1.0  0.88503  0.38060  0.62045  1.0000
  H   H1398     1.0  0.55825  0.36158  0.10692  1.0000
  H   H1399     1.0  0.58206  0.28603  0.69563  1.0000
  H   H1400     1.0  0.55243  0.53364  0.97489  1.0000
  H   H1401     1.0  0.77561  0.39382  0.11261  1.0000
  H   H1402     1.0  0.76921  0.33633  0.59280  1.0000
  H   H1403     1.0  0.50217  0.43898  0.45426  1.0000
  H   H1404     1.0  0.56509  0.34591  0.25396  1.0000
  H   H1405     1.0  0.84375  0.52519  0.53296  1.0000
  C   C781      1.0  0.96937  0.37545  0.29274  1.0000
  H   H1406     1.0  0.83292  0.32232  0.50971  1.0000
  C   C782      1.0  0.67091  0.51249  0.26924  1.0000
  H   H1407     1.0  0.68629  0.39062  0.43476  1.0000
  C   C783      1.0  0.93720  0.39641  0.27609  1.0000
  C   C784      1.0  0.61839  0.49713  0.33116  1.0000
  H   H1408     1.0  0.74585  0.46240  0.58446  1.0000
  N   N45       1.0  0.94691  0.41461  0.60093  1.0000
  H   H1409     1.0  0.91337  0.38592  0.27254  1.0000
  C   C785      1.0  0.70123  0.34750  0.56663  1.0000
  C   C786      1.0  0.70643  0.42687  0.44763  1.0000
  H   H1410     1.0  0.90296  0.36084  0.36697  1.0000
  C   C787      1.0  0.55722  0.48972  0.57354  1.0000
  C   C788      1.0  0.70070  0.33776  0.47562  1.0000
  C   C789      1.0  0.54758  0.30218  0.56154  1.0000
  C   C790      1.0  0.75967  0.50181  0.14187  1.0000
  C   C791      1.0  0.92875  0.45003  0.51732  1.0000
  H   H1411     1.0  0.87735  0.31305  0.39157  1.0000
  S   S177      1.0  0.68189  0.42889  0.30161  1.0000
  H   H1412     1.0  0.71210  0.46208  0.16668  1.0000
  H   H1413     1.0  0.58805  0.37613  0.22906  1.0000
  H   H1414     1.0  0.63689  0.32886  0.33708  1.0000
  C   C792      1.0  0.72930  0.37775  0.48699  1.0000
  H   H1415     1.0  0.89028  0.28802  0.16699  1.0000
  N   N46       1.0  0.62306  0.33983  0.25633  1.0000
  Fe  Fe90      1.0  0.56999  0.36340  0.57119  1.0000
  H   H1416     1.0  0.71089  0.48038  0.24905  1.0000
  C   C793      1.0  0.67483  0.49752  0.56289  1.0000
  H   H1417     1.0  0.84805  0.28751  0.21094  1.0000
  H   H1418     1.0  0.85058  0.37285  0.51394  1.0000
  S   S178      1.0  0.84110  0.48902  0.19059  1.0000
  C   C794      1.0  0.90687  0.37630  0.48336  1.0000
  H   H1419     1.0  0.92340  0.43164  0.21511  1.0000
  H   H1420     1.0  0.64695  0.30717  0.45682  1.0000
  H   H1421     1.0  0.59195  0.32783  0.16868  1.0000
  H   H1422     1.0  0.70104  0.32555  0.25409  1.0000
  H   H1423     1.0  0.51986  0.48902  0.36816  1.0000
  H   H1424     1.0  0.57313  0.30062  0.25478  1.0000
  C   C795      1.0  0.52306  0.50930  0.19385  1.0000
  H   H1425     1.0  0.51304  0.42900  0.35808  1.0000
  H   H1426     1.0  0.58808  0.38360  0.31193  1.0000
  C   C796      1.0  0.76773  0.29035  0.35461  1.0000
  H   H1427     1.0  0.81406  0.48640  0.60232  1.0000
  H   H1428     1.0  0.68382  0.30963  0.40164  1.0000
  S   S179      1.0  0.73979  0.28831  0.14531  1.0000
  H   H1429     1.0  0.65656  0.51682  0.56144  1.0000
  Fe  Fe91      1.0  0.54212  0.42331  0.57749  1.0000
  C   C797      1.0  0.69627  0.39713  0.46821  1.0000
  C   C798      1.0  0.51058  0.31012  0.56905  1.0000
  C   C799      1.0  0.65853  0.47794  0.53604  1.0000
  H   H1430     1.0  0.59051  0.28992  0.31776  1.0000
  C   C800      1.0  0.63221  0.46942  0.33276  1.0000
  C   C801      1.0  0.61233  0.37144  0.32691  1.0000
  C   C802      1.0  0.68521  0.48494  0.27220  1.0000
  C   C803      1.0  0.72012  0.36618  0.22534  1.0000
  H   H1431     1.0  0.65253  0.45769  0.19799  1.0000
  C   C804      1.0  0.97427  0.39850  0.56745  1.0000
  H   H1432     1.0  0.73398  0.53119  0.46789  1.0000
  H   H1433     1.0  0.94927  0.52367  0.39502  1.0000
  H   H1434     1.0  0.81274  0.45683  0.57228  1.0000
  H   H1435     1.0  0.94276  0.34441  0.39384  1.0000
  H   H1436     1.0  0.66319  0.35045  0.18686  1.0000
  H   H1437     1.0  0.63631  0.38283  0.30806  1.0000
  C   C805      1.0  0.85792  0.40669  0.44666  1.0000
  H   H1438     1.0  0.74971  0.50805  0.36366  1.0000
  H   H1439     1.0  0.82605  0.33756  0.35867  1.0000
  H   H1440     1.0  0.68618  0.35015  0.29708  1.0000
  C   C806      1.0  0.89894  0.31888  0.41092  1.0000
  H   H1441     1.0  0.65974  0.42366  0.18201  1.0000
  C   C807      1.0  0.52295  0.49097  0.55830  1.0000
  H   H1442     1.0  0.71150  0.49801  0.41260  1.0000
  H   H1443     1.0  0.63961  0.30754  0.20992  1.0000
  H   H1444     1.0  0.75056  0.37874  0.45155  1.0000
  H   H1445     1.0  0.71916  0.42201  0.13893  1.0000
  H   H1446     1.0  0.71014  0.38834  0.22257  1.0000
  H   H1447     1.0  0.79648  0.49076  0.53930  1.0000
  H   H1448     1.0  0.70120  0.50244  0.53908  1.0000
  H   H1449     1.0  0.61471  0.35919  0.14511  1.0000
  C   C808      1.0  0.50066  0.44888  0.36871  1.0000
  S   S180      1.0  0.67350  0.41038  0.60445  1.0000
  C   C809      1.0  0.87781  0.28690  0.20922  1.0000
  S   S181      1.0  0.97803  0.38069  0.44479  1.0000
  H   H1450     1.0  0.69174  0.29527  0.52140  1.0000
  H   H1451     1.0  0.72798  0.29701  0.46677  1.0000
  H   H1452     1.0  0.97190  0.51659  0.46991  1.0000
  H   H1453     1.0  0.58421  0.36016  0.40838  1.0000
  H   H1454     1.0  0.94113  0.47161  0.13544  1.0000
  C   C810      1.0  0.86470  0.40424  0.13969  1.0000
  H   H1455     1.0  0.88644  0.32687  0.44724  1.0000
  H   H1456     1.0  0.84202  0.39230  0.13659  1.0000
  H   H1457     1.0  0.91601  0.35841  0.51163  1.0000
  C   C811      1.0  0.78832  0.30586  0.37646  1.0000
  N   N47       1.0  0.72221  0.34789  0.51159  1.0000
  H   H1458     1.0  0.63291  0.35958  0.40375  1.0000
  H   H1459     1.0  0.89772  0.52653  0.46196  1.0000
  S   S182      1.0  0.57827  0.32680  0.53008  1.0000
  H   H1460     1.0  0.55537  0.38716  0.14837  1.0000
  H   H1461     1.0  0.94499  0.44012  0.48550  1.0000
  C   C812      1.0  0.81818  0.32046  0.55095  1.0000
  H   H1462     1.0  0.89458  0.43677  0.59268  1.0000
  C   C813      1.0  0.96567  0.34777  0.22677  1.0000
  H   H1463     1.0  0.60592  0.39216  0.39458  1.0000
  C   C814      1.0  0.91750  0.42755  0.56751  1.0000
  C   C815      1.0  0.80954  0.32573  0.34235  1.0000
  H   H1464     1.0  0.75154  0.48046  0.48214  1.0000
  H   H1465     1.0  0.88675  0.38937  0.15532  1.0000
  H   H1466     1.0  0.63572  0.46788  0.56298  1.0000
  S   S183      1.0  0.78119  0.42564  0.21498  1.0000
  H   H1467     1.0  0.95642  0.40629  0.19025  1.0000
  H   H1468     1.0  0.67189  0.34623  0.48189  1.0000
  H   H1469     1.0  0.59003  0.33254  0.33388  1.0000
  H   H1470     1.0  0.74365  0.36261  0.24770  1.0000
  H   H1471     1.0  0.76502  0.46477  0.42481  1.0000
  H   H1472     1.0  0.54520  0.47048  0.31923  1.0000
  H   H1473     1.0  0.93954  0.42691  0.38201  1.0000
  S   S184      1.0  0.59178  0.40445  0.53319  1.0000
  C   C816      1.0  0.53099  0.46815  0.36092  1.0000
  H   H1474     1.0  0.77410  0.33426  0.47239  1.0000
  Fe  Fe92      1.0  0.74234  0.42732  0.28994  1.0000
  H   H1475     1.0  0.93653  0.52510  0.52091  1.0000
  H   H1476     1.0  0.96089  0.38331  0.55258  1.0000
  N   N48       1.0  0.96721  0.34618  0.28561  1.0000
  S   S185      1.0  0.51797  0.38249  0.60940  1.0000
  H   H1477     1.0  0.79030  0.30093  0.41876  1.0000
  H   H1478     1.0  0.92808  0.40868  0.30771  1.0000
  H   H1479     1.0  0.91720  0.30018  0.42359  1.0000
  H   H1480     1.0  0.69270  0.49329  0.13241  1.0000
  C   C817      1.0  0.59104  0.34999  0.17139  1.0000
  H   H1481     1.0  0.73832  0.51844  0.14970  1.0000
  S   S186      1.0  0.77088  0.39128  0.33864  1.0000
  H   H1482     1.0  0.58906  0.46183  0.17900  1.0000
  H   H1483     1.0  0.94512  0.46549  0.52578  1.0000
  H   H1484     1.0  0.64937  0.37757  0.22242  1.0000
  H   H1485     1.0  0.74042  0.38763  0.51541  1.0000
  C   C818      1.0  0.83904  0.50320  0.28754  1.0000
  C   C819      1.0  0.92020  0.41470  0.40992  1.0000
  H   H1486     1.0  0.59242  0.50185  0.35357  1.0000
  H   H1487     1.0  0.67388  0.35843  0.56373  1.0000
  H   H1488     1.0  0.67369  0.39718  0.50134  1.0000
  H   H1489     1.0  0.97144  0.37621  0.33471  1.0000
  H   H1490     1.0  0.68196  0.44073  0.43816  1.0000
  H   H1491     1.0  0.91080  0.33701  0.29533  1.0000
  C   C820      1.0  0.63000  0.30965  0.25214  1.0000
  C   C821      1.0  0.50085  0.51584  0.55489  1.0000
  H   H1492     1.0  0.59861  0.43228  0.23047  1.0000
  C   C822      1.0  0.92060  0.34116  0.37295  1.0000
  C   C823      1.0  0.78740  0.31574  0.26579  1.0000
  C   C824      1.0  0.93204  0.39148  0.44599  1.0000
  C   C825      1.0  0.78285  0.33911  0.55088  1.0000
  H   H1493     1.0  0.96938  0.42935  0.22836  1.0000
  H   H1494     1.0  0.96080  0.30425  0.13785  1.0000
  H   H1495     1.0  0.55097  0.45950  0.38886  1.0000
  S   S187      1.0  0.50775  0.46131  0.54429  1.0000
  C   C826      1.0  0.69067  0.34737  0.25495  1.0000
  C   C827      1.0  0.59742  0.29169  0.27380  1.0000
  C   C828      1.0  0.76509  0.29700  0.30003  1.0000
  H   H1496     1.0  0.97843  0.33777  0.12281  1.0000
  C   C829      1.0  0.69774  0.29294  0.12254  1.0000
  C   C830      1.0  0.94735  0.41707  0.22416  1.0000
  H   H1497     1.0  0.72922  0.36176  0.18463  1.0000
  H   H1498     1.0  0.75603  0.30898  0.52579  1.0000
  Fe  Fe93      1.0  0.61620  0.40040  0.60880  1.0000
  H   H1499     1.0  0.76442  0.48841  0.18079  1.0000
  H   H1500     1.0  0.54791  0.51396  0.20522  1.0000
  H   H1501     1.0  0.67939  0.46149  0.52621  1.0000
  C   C831      1.0  0.70062  0.30606  0.48018  1.0000
  S   S188      1.0  0.81158  0.41513  0.44541  1.0000
  C   C832      1.0  0.96705  0.31984  0.20800  1.0000
  C   C833      1.0  0.89537  0.46598  0.49514  1.0000
  S   S189      1.0  0.84616  0.42041  0.29154  1.0000
  S   S190      1.0  0.83751  0.35330  0.24390  1.0000
  C   C834      1.0  0.79820  0.47692  0.57887  1.0000
  Fe  Fe94      1.0  0.80191  0.42239  0.35987  1.0000
  S   S191      1.0  0.77101  0.45876  0.31501  1.0000
  H   H1502     1.0  0.93088  0.33437  0.14735  1.0000
  C   C835      1.0  0.83519  0.52203  0.32200  1.0000
  H   H1503     1.0  0.94692  0.30646  0.23371  1.0000
  C   C836      1.0  0.59065  0.35341  0.22997  1.0000
  H   H1504     1.0  0.74082  0.51397  0.58200  1.0000
  H   H1505     1.0  0.82617  0.32937  0.13659  1.0000
  H   H1506     1.0  0.79065  0.49135  0.43459  1.0000
  C   C837      1.0  0.81040  0.32949  0.28682  1.0000
  C   C838      1.0  0.52119  0.50867  0.14034  1.0000
  C   C839      1.0  0.96406  0.43781  0.61559  1.0000
  C   C840      1.0  0.65575  0.35474  0.22806  1.0000
  C   C841      1.0  0.76297  0.48451  0.43915  1.0000
  H   H1507     1.0  0.83482  0.51453  0.36456  1.0000
  H   H1508     1.0  0.64840  0.48907  0.49859  1.0000
  C   C842      1.0  0.66546  0.46336  0.30278  1.0000
  H   H1509     1.0  0.84173  0.48119  0.30372  1.0000
  H   H1510     1.0  0.93992  0.30989  0.32529  1.0000
  Fe  Fe95      1.0  0.81260  0.39246  0.26667  1.0000
  C   C843      1.0  0.55714  0.36454  0.14874  1.0000
  H   H1511     1.0  0.71868  0.43412  0.47820  1.0000
  H   H1512     1.0  0.88465  0.30538  0.22246  1.0000
  H   H1513     1.0  0.90589  0.41157  0.55226  1.0000
  H   H1514     1.0  0.81275  0.29844  0.56715  1.0000
  C   C844      1.0  0.83957  0.51283  0.23241  1.0000
  H   H1515     1.0  0.87568  0.45157  0.49149  1.0000
  H   H1516     1.0  0.71442  0.35988  0.58851  1.0000
  C   C845      1.0  0.86987  0.38434  0.48452  1.0000
  H   H1517     1.0  0.88184  0.47988  0.52231  1.0000
  H   H1518     1.0  0.53247  0.35557  0.17271  1.0000
  C   C846      1.0  0.71069  0.47473  0.12579  1.0000
  C   C847      1.0  0.95874  0.32452  0.15048  1.0000
  H   H1519     1.0  0.87394  0.43963  0.38074  1.0000
  C   C848      1.0  0.67535  0.29976  0.44400  1.0000
  H   H1520     1.0  0.85517  0.41824  0.16834  1.0000
  H   H1521     1.0  0.78972  0.36095  0.53760  1.0000
  H   H1522     1.0  0.71127  0.34579  0.43279  1.0000
  H   H1523     1.0  0.94026  0.35961  0.21508  1.0000
  H   H1524     1.0  0.65266  0.29963  0.27440  1.0000
  Fe  Fe96      1.0  0.81282  0.45397  0.24426  1.0000
  H   H1525     1.0  0.72616  0.42807  0.41061  1.0000
  C   C849      1.0  0.69530  0.31871  0.60318  1.0000
  C   C850      1.0  0.76044  0.47195  0.60935  1.0000
  C   C851      1.0  0.93441  0.33275  0.31809  1.0000
  H   H1526     1.0  0.74716  0.28666  0.28340  1.0000
  C   C852      1.0  0.60856  0.37064  0.38711  1.0000
  C   C853      1.0  0.75859  0.33157  0.51343  1.0000
  H   H1527     1.0  0.83577  0.32680  0.57641  1.0000
  C   C854      1.0  0.88308  0.42191  0.40930  1.0000
  H   H1528     1.0  0.95480  0.51191  0.30184  1.0000
  H   H1529     1.0  0.78659  0.31961  0.22307  1.0000
  C   C855      1.0  0.64516  0.44439  0.17226  1.0000
  H   H1530     1.0  0.90349  0.47856  0.45482  1.0000
  H   H1531     1.0  0.50097  0.33149  0.55568  1.0000
  H   H1532     1.0  0.61713  0.45271  0.35689  1.0000
  C   C856      1.0  0.63727  0.51865  0.29815  1.0000
  C   C857      1.0  0.60461  0.44124  0.18708  1.0000
  H   H1533     1.0  0.57458  0.47086  0.57459  1.0000
  C   C858      1.0  0.61578  0.34170  0.31480  1.0000
  C   C859      1.0  0.73853  0.50611  0.40666  1.0000
  H   H1534     1.0  0.59569  0.42732  0.16382  1.0000
  C   C860      1.0  0.56925  0.51293  0.58659  1.0000
  H   H1535     1.0  0.88080  0.51244  0.60294  1.0000
  H   H1536     1.0  0.68561  0.52888  0.24329  1.0000
  H   H1537     1.0  0.94415  0.45617  0.61740  1.0000
  C   C861      1.0  0.48587  0.29045  0.59352  1.0000
  H   H1538     1.0  0.67005  0.31123  0.59583  1.0000
  C   C862      1.0  0.48890  0.50262  0.12600  1.0000
  H   H1539     1.0  0.50066  0.39459  0.43672  1.0000
  C   C863      1.0  0.49296  0.50330  0.23293  1.0000
  H   H1540     1.0  0.60572  0.53205  0.47739  1.0000
  H   H1541     1.0  0.59554  0.51161  0.59925  1.0000
  H   H1542     1.0  0.49472  0.50341  0.27428  1.0000
  S   S192      1.0  0.63928  0.53268  0.15178  1.0000
  H   H1543     1.0  0.67270  0.52848  0.45380  1.0000
  H   H1544     1.0  0.71780  0.30288  0.59666  1.0000
  H   H1545     1.0  0.50526  0.34232  0.44688  1.0000
  H   H1546     1.0  0.92190  0.43079  0.12051  1.0000
  H   H1547     1.0  0.78487  0.51174  0.12294  1.0000
  C   C864      1.0  0.96111  0.53246  0.49422  1.0000
  H   H1548     1.0  0.92678  0.35871  0.61674  1.0000
  H   H1549     1.0  0.92668  0.53264  0.25529  1.0000
  C   C865      1.0  0.94410  0.53342  0.28594  1.0000
  C   C866      1.0  0.91191  0.64382  0.06996  1.0000
  H   H1550     1.0  0.49186  0.59014  0.05503  1.0000
  H   H1551     1.0  0.61686  0.60840  0.78151  1.0000
  C   C867      1.0  0.64016  0.67977  0.75205  1.0000
  C   C868      1.0  0.59373  0.59514  0.79228  1.0000
  H   H1552     1.0  0.80682  0.55733  0.79145  1.0000
  C   C869      1.0  0.88667  0.66758  0.83678  1.0000
  S   S193      1.0  0.81745  0.67359  0.62006  1.0000
  Fe  Fe97      1.0  0.51484  0.65550  0.65329  1.0000
  C   C870      1.0  0.84319  0.61429  0.97391  1.0000
  Fe  Fe98      1.0  0.60473  0.60811  0.09948  1.0000
  C   C871      1.0  0.74216  0.57873  0.72097  1.0000
  H   H1553     1.0  0.73623  0.61579  0.99927  1.0000
  H   H1554     1.0  0.50996  0.55397  0.96789  1.0000
  H   H1555     1.0  0.82558  0.70974  0.02067  1.0000
  H   H1556     1.0  0.76761  0.65334  0.01738  1.0000
  Fe  Fe99      1.0  0.68539  0.77308  0.05891  1.0000
  H   H1557     1.0  0.64886  0.62665  0.93028  1.0000
  H   H1558     1.0  0.55531  0.56180  0.88493  1.0000
  H   H1559     1.0  0.72837  0.59932  0.71682  1.0000
  S   S194      1.0  0.72652  0.56041  0.05634  1.0000
  C   C872      1.0  0.81287  0.77475  0.94135  1.0000
  H   H1560     1.0  0.85299  0.56161  0.70943  1.0000
  C   C873      1.0  0.83507  0.74616  0.04761  1.0000
  H   H1561     1.0  0.75334  0.77847  0.94890  1.0000
  H   H1562     1.0  0.54112  0.77874  0.64987  1.0000
  S   S195      1.0  0.62302  0.57800  0.04481  1.0000
  C   C874      1.0  0.53753  0.60191  0.90723  1.0000
  C   C875      1.0  0.66287  0.76754  0.84481  1.0000
  H   H1563     1.0  0.88706  0.55099  0.02294  1.0000
  H   H1564     1.0  0.52322  0.65501  0.89773  1.0000
  C   C876      1.0  0.87144  0.74485  0.87064  1.0000
  S   S196      1.0  0.76508  0.70849  0.70072  1.0000
  H   H1565     1.0  0.76803  0.59241  0.81706  1.0000
  H   H1566     1.0  0.83262  0.69289  0.91385  1.0000
  Fe  Fe100     1.0  0.77912  0.63986  0.65054  1.0000
  H   H1567     1.0  0.86489  0.74352  0.03722  1.0000
  H   H1568     1.0  0.84128  0.59437  0.73031  1.0000
  H   H1569     1.0  0.71424  0.62121  0.84508  1.0000
  C   C877      1.0  0.83922  0.57240  0.84142  1.0000
  H   H1570     1.0  0.61596  0.71057  0.79694  1.0000
  C   C878      1.0  0.80455  0.69868  0.93037  1.0000
  H   H1571     1.0  0.84842  0.53645  0.80160  1.0000
  N   N49       1.0  0.82169  0.74374  0.95307  1.0000
  H   H1572     1.0  0.67748  0.53889  0.95667  1.0000
  H   H1573     1.0  0.72965  0.73907  0.85147  1.0000
  H   H1574     1.0  0.61072  0.60975  0.87491  1.0000
  H   H1575     1.0  0.66516  0.64317  0.05491  1.0000
  H   H1576     1.0  0.57998  0.75380  0.97199  1.0000
  S   S197      1.0  0.67990  0.67560  0.78156  1.0000
  Fe  Fe101     1.0  0.97803  0.56869  0.85420  1.0000
  C   C879      1.0  0.69730  0.74819  0.63136  1.0000
  H   H1577     1.0  0.67498  0.58277  0.65963  1.0000
  H   H1578     1.0  0.86854  0.56995  0.84578  1.0000
  H   H1579     1.0  0.60061  0.57775  0.82464  1.0000
  C   C880      1.0  0.49353  0.75805  0.04428  1.0000
  H   H1580     1.0  0.88099  0.59445  0.06317  1.0000
  H   H1581     1.0  0.79797  0.74047  0.88323  1.0000
  H   H1582     1.0  0.80004  0.68793  0.97269  1.0000
  H   H1583     1.0  0.78651  0.73235  0.02813  1.0000
  C   C881      1.0  0.74845  0.58699  0.07039  1.0000
  S   S198      1.0  0.58665  0.65251  0.06775  1.0000
  H   H1584     1.0  0.58253  0.62659  0.95877  1.0000
  H   H1585     1.0  0.56838  0.56933  0.75169  1.0000
  H   H1586     1.0  0.53477  0.60104  0.80842  1.0000
  H   H1587     1.0  0.81599  0.56498  0.97764  1.0000
  C   C882      1.0  0.59166  0.62862  0.87134  1.0000
  C   C883      1.0  0.72340  0.60283  0.87420  1.0000
  C   C884      1.0  0.89671  0.66928  0.03289  1.0000
  H   H1588     1.0  0.96513  0.64166  0.02635  1.0000
  H   H1589     1.0  0.98005  0.63650  0.11868  1.0000
  C   C885      1.0  0.90507  0.64686  0.87088  1.0000
  H   H1590     1.0  0.54205  0.56401  0.00443  1.0000
  C   C886      1.0  0.77942  0.68754  0.89998  1.0000
  N   N50       1.0  0.95673  0.59936  0.06774  1.0000
  C   C887      1.0  0.76464  0.58310  0.11711  1.0000
  H   H1591     1.0  0.77839  0.61328  0.86057  1.0000
  H   H1592     1.0  0.59675  0.65250  0.67044  1.0000
  C   C888      1.0  0.73206  0.55831  0.76617  1.0000
  H   H1593     1.0  0.79658  0.61208  0.93789  1.0000
  H   H1594     1.0  0.77027  0.77808  0.01050  1.0000
  C   C889      1.0  0.57925  0.70137  0.74827  1.0000
  H   H1595     1.0  0.50995  0.59890  0.90043  1.0000
  H   H1596     1.0  0.85975  0.56649  0.93876  1.0000
  C   C890      1.0  0.90913  0.61656  0.80734  1.0000
  H   H1597     1.0  0.76357  0.56847  0.93734  1.0000
  H   H1598     1.0  0.53318  0.61010  0.94501  1.0000
  H   H1599     1.0  0.57878  0.70226  0.96341  1.0000
  C   C891      1.0  0.89661  0.57539  0.08049  1.0000
  H   H1600     1.0  0.48942  0.54778  0.82022  1.0000
  H   H1601     1.0  0.87892  0.68747  0.84743  1.0000
  C   C892      1.0  0.94285  0.62751  0.03882  1.0000
  H   H1602     1.0  0.58639  0.59999  0.70841  1.0000
  C   C893      1.0  0.55709  0.57256  0.91801  1.0000
  C   C894      1.0  0.57422  0.74736  0.93553  1.0000
  H   H1603     1.0  0.93527  0.70433  0.08540  1.0000
  C   C895      1.0  0.77022  0.57256  0.68150  1.0000
  H   H1604     1.0  0.55773  0.71593  0.76132  1.0000
  H   H1605     1.0  0.70298  0.72665  0.64889  1.0000
  H   H1606     1.0  0.88316  0.63322  0.73680  1.0000
  C   C896      1.0  0.60505  0.77731  0.80910  1.0000
  C   C897      1.0  0.76377  0.59532  0.85907  1.0000
  H   H1607     1.0  0.86543  0.76727  0.85505  1.0000
  C   C898      1.0  0.81587  0.73209  0.01243  1.0000
  C   C899      1.0  0.63922  0.72223  0.03839  1.0000
  C   C900      1.0  0.55838  0.61274  0.80895  1.0000
  Fe  Fe102     1.0  0.59203  0.54734  0.10787  1.0000
  S   S199      1.0  0.50512  0.61147  0.69083  1.0000
  C   C901      1.0  0.67564  0.71224  0.03563  1.0000
  C   C902      1.0  0.82604  0.73313  0.10663  1.0000
  S   S200      1.0  0.77784  0.64177  0.73707  1.0000
  H   H1608     1.0  0.87843  0.74924  0.94941  1.0000
  H   H1609     1.0  0.57611  0.66113  0.91970  1.0000
  H   H1610     1.0  0.63139  0.65577  0.96081  1.0000
  H   H1611     1.0  0.57755  0.75454  0.67305  1.0000
  H   H1612     1.0  0.85093  0.55261  0.07701  1.0000
  C   C903      1.0  0.74921  0.61251  0.03492  1.0000
  H   H1613     1.0  0.54549  0.71485  0.91883  1.0000
  H   H1614     1.0  0.82657  0.76861  0.04317  1.0000
  C   C904      1.0  0.63491  0.66343  0.71595  1.0000
  H   H1615     1.0  0.78420  0.69677  0.85656  1.0000
  S   S201      1.0  0.72938  0.66880  0.63947  1.0000
  H   H1616     1.0  0.81408  0.78255  0.89746  1.0000
  C   C905      1.0  0.93701  0.57655  0.05694  1.0000
  H   H1617     1.0  0.71060  0.56324  0.79675  1.0000
  H   H1618     1.0  0.76825  0.77692  0.66003  1.0000
  C   C906      1.0  0.76676  0.63391  0.04541  1.0000
  C   C907      1.0  0.53895  0.77787  0.10129  1.0000
  C   C908      1.0  0.49614  0.74541  0.09760  1.0000
  C   C909      1.0  0.63126  0.64635  0.92558  1.0000
  H   H1619     1.0  0.67665  0.76715  0.88036  1.0000
  C   C910      1.0  0.88083  0.55097  0.06650  1.0000
  C   C911      1.0  0.83561  0.55802  0.79483  1.0000
  C   C912      1.0  0.77682  0.56815  0.89558  1.0000
  H   H1620     1.0  0.83155  0.60401  0.01454  1.0000
  C   C913      1.0  0.59258  0.64100  0.92155  1.0000
  H   H1621     1.0  0.53924  0.74247  0.65263  1.0000
  H   H1622     1.0  0.91997  0.71592  0.87066  1.0000
  H   H1623     1.0  0.76433  0.55139  0.88356  1.0000
  C   C914      1.0  0.65770  0.66515  0.05138  1.0000
  C   C915      1.0  0.91193  0.73807  0.85486  1.0000
  N   N51       1.0  0.81725  0.56161  0.89469  1.0000
  H   H1624     1.0  0.91105  0.65080  0.90817  1.0000
  H   H1625     1.0  0.93787  0.57815  0.01318  1.0000
  H   H1626     1.0  0.50750  0.56580  0.11015  1.0000
  H   H1627     1.0  0.70737  0.58533  0.87380  1.0000
  S   S202      1.0  0.80484  0.65751  0.10384  1.0000
  H   H1628     1.0  0.85658  0.73303  0.85010  1.0000
  H   H1629     1.0  0.83305  0.59498  0.82774  1.0000
  H   H1630     1.0  0.82939  0.76484  0.63819  1.0000
  H   H1631     1.0  0.61648  0.57069  0.73244  1.0000
  C   C916      1.0  0.85451  0.57316  0.74148  1.0000
  C   C917      1.0  0.87802  0.66264  0.78902  1.0000
  C   C918      1.0  0.51371  0.78061  0.01953  1.0000
  Fe  Fe103     1.0  0.66871  0.56576  0.09354  1.0000
  C   C919      1.0  0.88907  0.63699  0.77430  1.0000
  C   C920      1.0  0.83050  0.57320  0.93727  1.0000
  H   H1632     1.0  0.91843  0.74194  0.81052  1.0000
  H   H1633     1.0  0.75064  0.69213  0.91610  1.0000
  H   H1634     1.0  0.87707  0.68176  0.05709  1.0000
  C   C921      1.0  0.57341  0.68457  0.71357  1.0000
  C   C922      1.0  0.61219  0.69850  0.76830  1.0000
  C   C923      1.0  0.82572  0.60512  0.93158  1.0000
  H   H1635     1.0  0.93384  0.62562  0.00061  1.0000
  H   H1636     1.0  0.91858  0.59705  0.79527  1.0000
  H   H1637     1.0  0.54587  0.66679  0.83228  1.0000
  H   H1638     1.0  0.86982  0.71535  0.94627  1.0000
  S   S203      1.0  0.93892  0.59549  0.90020  1.0000
  C   C924      1.0  0.60125  0.66561  0.69712  1.0000
  H   H1639     1.0  0.95091  0.55597  0.07194  1.0000
  S   S204      1.0  0.97199  0.55389  0.66977  1.0000
  H   H1640     1.0  0.64252  0.66103  0.88959  1.0000
  S   S205      1.0  0.78456  0.59831  0.62623  1.0000
  H   H1641     1.0  0.78486  0.66469  0.90468  1.0000
  C   C925      1.0  0.68480  0.68373  0.04121  1.0000
  H   H1642     1.0  0.88246  0.66285  0.00338  1.0000
  C   C926      1.0  0.62121  0.67514  0.05632  1.0000
  C   C927      1.0  0.71875  0.73800  0.81438  1.0000
  H   H1643     1.0  0.87280  0.60895  0.96845  1.0000
  H   H1644     1.0  0.58582  0.57315  0.92265  1.0000
  H   H1645     1.0  0.83812  0.63709  0.97055  1.0000
  H   H1646     1.0  0.92219  0.65125  0.10207  1.0000
  H   H1647     1.0  0.60403  0.64335  0.83609  1.0000
  S   S206      1.0  0.85492  0.68957  0.74786  1.0000
  H   H1648     1.0  0.66883  0.72178  0.85164  1.0000
  C   C928      1.0  0.78755  0.54577  0.68685  1.0000
  C   C929      1.0  0.78275  0.63028  0.09210  1.0000
  H   H1649     1.0  0.55323  0.76255  0.91866  1.0000
  C   C930      1.0  0.59090  0.58310  0.74323  1.0000
  H   H1650     1.0  0.71819  0.60799  0.91475  1.0000
  H   H1651     1.0  0.55741  0.63082  0.77512  1.0000
  Fe  Fe104     1.0  0.81268  0.67721  0.70637  1.0000
  H   H1652     1.0  0.88920  0.63119  0.08932  1.0000
  H   H1653     1.0  0.60775  0.72957  0.87273  1.0000
  H   H1654     1.0  0.91865  0.68243  0.01142  1.0000
  S   S207      1.0  0.53032  0.68726  0.69410  1.0000
  C   C931      1.0  0.61208  0.70372  0.05019  1.0000
  H   H1655     1.0  0.49971  0.64663  0.79266  1.0000
  Fe  Fe105     1.0  0.73050  0.67280  0.72373  1.0000
  H   H1656     1.0  0.65629  0.64848  0.70410  1.0000
  H   H1657     1.0  0.88356  0.57443  0.74370  1.0000
  H   H1658     1.0  0.71282  0.67600  0.03917  1.0000
  H   H1659     1.0  0.61062  0.75927  0.78879  1.0000
  H   H1660     1.0  0.63076  0.73607  0.92325  1.0000
  C   C932      1.0  0.53914  0.55506  0.96939  1.0000
  H   H1661     1.0  0.83807  0.61598  0.89194  1.0000
  C   C933      1.0  0.79722  0.73048  0.92623  1.0000
  N   N52       1.0  0.55501  0.62260  0.86146  1.0000
  C   C934      1.0  0.91644  0.62132  0.85622  1.0000
  H   H1662     1.0  0.80948  0.54091  0.65676  1.0000
  H   H1663     1.0  0.83541  0.71074  0.11364  1.0000
  H   H1664     1.0  0.76859  0.73397  0.94407  1.0000
  H   H1665     1.0  0.58392  0.71158  0.05427  1.0000
  N   N53       1.0  0.62229  0.77175  0.85974  1.0000
  C   C935      1.0  0.53093  0.64943  0.85752  1.0000
  S   S208      1.0  0.70959  0.73515  0.02804  1.0000
  C   C936      1.0  0.55790  0.71931  0.95219  1.0000
  H   H1666     1.0  0.63184  0.74425  0.03083  1.0000
  H   H1667     1.0  0.72936  0.75449  0.78111  1.0000
  C   C937      1.0  0.86099  0.73759  0.93231  1.0000
  C   C938      1.0  0.66734  0.76325  0.65443  1.0000
  S   S209      1.0  0.63250  0.77063  0.11291  1.0000
  C   C939      1.0  0.56344  0.78373  0.81629  1.0000
  H   H1668     1.0  0.53673  0.71959  0.98733  1.0000
  H   H1669     1.0  0.65041  0.75324  0.68956  1.0000
  C   C940      1.0  0.60998  0.74543  0.89667  1.0000
  H   H1670     1.0  0.72833  0.71750  0.80403  1.0000
  C   C941      1.0  0.55754  0.75928  0.64428  1.0000
  H   H1671     1.0  0.92802  0.75129  0.87061  1.0000
  H   H1672     1.0  0.66800  0.74111  0.78432  1.0000
  C   C942      1.0  0.67742  0.74078  0.82315  1.0000
  H   H1673     1.0  0.55015  0.76403  0.83117  1.0000
  H   H1674     1.0  0.64259  0.57486  0.62061  1.0000
  C   C943      1.0  0.49488  0.64998  0.83445  1.0000
  H   H1675     1.0  0.48880  0.69505  0.80979  1.0000
  C   C944      1.0  0.67157  0.57744  0.62099  1.0000
  H   H1676     1.0  0.86865  0.72148  0.62580  1.0000
  S   S210      1.0  0.82863  0.57388  0.34421  1.0000
  C   C945      1.0  0.64433  0.66723  0.20366  1.0000
  H   H1677     1.0  0.57245  0.68214  0.34811  1.0000
  H   H1678     1.0  0.64525  0.64854  0.23570  1.0000
  H   H1679     1.0  0.56145  0.72267  0.21444  1.0000
  H   H1680     1.0  0.56838  0.71460  0.40969  1.0000
  H   H1681     1.0  0.48934  0.77787  0.53122  1.0000
  H   H1682     1.0  0.76842  0.57897  0.43477  1.0000
  C   C946      1.0  0.57692  0.76247  0.58714  1.0000
  H   H1683     1.0  0.81824  0.54963  0.48717  1.0000
  C   C947      1.0  0.67032  0.76508  0.45745  1.0000
  H   H1684     1.0  0.58223  0.73750  0.31506  1.0000
  H   H1685     1.0  0.57450  0.75097  0.48592  1.0000
  H   H1686     1.0  0.90784  0.60425  0.42691  1.0000
  H   H1687     1.0  0.52345  0.65349  0.15469  1.0000
  H   H1688     1.0  0.64137  0.57266  0.46776  1.0000
  H   H1689     1.0  0.88410  0.70853  0.40455  1.0000
  H   H1690     1.0  0.54634  0.66230  0.28733  1.0000
  H   H1691     1.0  0.75665  0.67022  0.46623  1.0000
  H   H1692     1.0  0.84748  0.75890  0.32293  1.0000
  C   C948      1.0  0.63897  0.56479  0.43123  1.0000
  H   H1693     1.0  0.63008  0.66233  0.17256  1.0000
  C   C949      1.0  0.66630  0.76302  0.27187  1.0000
  C   C950      1.0  0.89215  0.54910  0.44701  1.0000
  H   H1694     1.0  0.76393  0.56345  0.14497  1.0000
  H   H1695     1.0  0.63616  0.66682  0.40696  1.0000
  C   C951      1.0  0.87740  0.76365  0.58234  1.0000
  C   C952      1.0  0.84902  0.74660  0.40722  1.0000
  C   C953      1.0  0.95267  0.56115  0.45841  1.0000
  H   H1696     1.0  0.70004  0.67273  0.21042  1.0000
  C   C954      1.0  0.79885  0.76885  0.25611  1.0000
  C   C955      1.0  0.55166  0.67369  0.20130  1.0000
  C   C956      1.0  0.70661  0.72204  0.26205  1.0000
  H   H1697     1.0  0.90780  0.72422  0.57541  1.0000
  H   H1698     1.0  0.66013  0.70821  0.48448  1.0000
  C   C957      1.0  0.69504  0.55108  0.61241  1.0000
  H   H1699     1.0  0.76522  0.54127  0.40932  1.0000
  C   C958      1.0  0.93494  0.63708  0.33433  1.0000
  H   H1700     1.0  0.53903  0.71261  0.28105  1.0000
  C   C959      1.0  0.62078  0.65448  0.33754  1.0000
  C   C960      1.0  0.74401  0.61754  0.45053  1.0000
  H   H1701     1.0  0.89329  0.59396  0.37280  1.0000
  H   H1702     1.0  0.50856  0.74222  0.54681  1.0000
  S   S211      1.0  0.53702  0.64645  0.57239  1.0000
  H   H1703     1.0  0.91213  0.56772  0.31248  1.0000
  H   H1704     1.0  0.77034  0.75135  0.20501  1.0000
  H   H1705     1.0  0.58551  0.64674  0.25472  1.0000
  H   H1706     1.0  0.95826  0.59707  0.32323  1.0000
  C   C961      1.0  0.83365  0.56019  0.24609  1.0000
  H   H1707     1.0  0.94297  0.57613  0.48540  1.0000
  H   H1708     1.0  0.66654  0.53439  0.38558  1.0000
  H   H1709     1.0  0.87295  0.55033  0.41802  1.0000
  H   H1710     1.0  0.71590  0.54536  0.32409  1.0000
  H   H1711     1.0  0.74812  0.56754  0.33071  1.0000
  H   H1712     1.0  0.82518  0.75716  0.24574  1.0000
  H   H1713     1.0  0.96361  0.59934  0.23006  1.0000
  H   H1714     1.0  0.58079  0.56435  0.45407  1.0000
  H   H1715     1.0  0.57108  0.68271  0.16659  1.0000
  H   H1716     1.0  0.56394  0.70165  0.53240  1.0000
  H   H1717     1.0  0.51900  0.74678  0.16802  1.0000
  H   H1718     1.0  0.96693  0.54605  0.26636  1.0000
  H   H1719     1.0  0.86212  0.58437  0.47915  1.0000
  H   H1720     1.0  0.97908  0.56810  0.43653  1.0000
  C   C962      1.0  0.57979  0.70680  0.49212  1.0000
  C   C963      1.0  0.62460  0.69319  0.22391  1.0000
  H   H1721     1.0  0.97067  0.69896  0.26480  1.0000
  H   H1722     1.0  0.89921  0.73202  0.43984  1.0000
  H   H1723     1.0  0.82085  0.76781  0.57136  1.0000
  C   C964      1.0  0.62334  0.64958  0.39750  1.0000
  C   C965      1.0  0.51307  0.53925  0.56742  1.0000
  S   S212      1.0  0.80070  0.69248  0.22725  1.0000
  H   H1724     1.0  0.97104  0.55317  0.35955  1.0000
  C   C966      1.0  0.67051  0.72485  0.34730  1.0000
  H   H1725     1.0  0.78105  0.73096  0.30524  1.0000
  C   C967      1.0  0.87927  0.73235  0.58493  1.0000
  H   H1726     1.0  0.77058  0.62645  0.44375  1.0000
  H   H1727     1.0  0.64881  0.65538  0.31618  1.0000
  H   H1728     1.0  0.83273  0.73703  0.44492  1.0000
  H   H1729     1.0  0.70181  0.57521  0.47157  1.0000
  H   H1730     1.0  0.58546  0.71818  0.59322  1.0000
  H   H1731     1.0  0.64023  0.63013  0.40940  1.0000
  C   C968      1.0  0.68334  0.67224  0.17878  1.0000
  N   N54       1.0  0.59022  0.68904  0.26305  1.0000
  H   H1732     1.0  0.73529  0.58734  0.23839  1.0000
  C   C969      1.0  0.71900  0.56352  0.34182  1.0000
  H   H1733     1.0  0.97080  0.60813  0.37953  1.0000
  C   C970      1.0  0.56613  0.71581  0.25683  1.0000
  C   C971      1.0  0.94395  0.54595  0.37703  1.0000
  H   H1734     1.0  0.60864  0.63645  0.33013  1.0000
  C   C972      1.0  0.92190  0.54641  0.33074  1.0000
  H   H1735     1.0  0.72557  0.71059  0.23701  1.0000
  H   H1736     1.0  0.54366  0.68788  0.45479  1.0000
  H   H1737     1.0  0.92568  0.60215  0.14527  1.0000
  C   C973      1.0  0.97964  0.70198  0.13020  1.0000
  C   C974      1.0  0.74674  0.59416  0.41942  1.0000
  C   C975      1.0  0.66886  0.66098  0.54953  1.0000
  C   C976      1.0  0.69632  0.71047  0.31578  1.0000
  S   S213      1.0  0.77253  0.63034  0.25720  1.0000
  H   H1738     1.0  0.69776  0.66516  0.54387  1.0000
  H   H1739     1.0  0.66642  0.75209  0.42942  1.0000
  H   H1740     1.0  0.66217  0.65656  0.51182  1.0000
  H   H1741     1.0  0.95763  0.64768  0.30793  1.0000
  C   C977      1.0  0.60421  0.54983  0.44323  1.0000
  H   H1742     1.0  0.86331  0.72759  0.55559  1.0000
  Fe  Fe106     1.0  0.80907  0.65437  0.19087  1.0000
  H   H1743     1.0  0.49610  0.55833  0.56417  1.0000
  H   H1744     1.0  0.83541  0.72481  0.34847  1.0000
  H   H1745     1.0  0.69515  0.65518  0.15776  1.0000
  C   C978      1.0  0.60218  0.73612  0.57947  1.0000
  H   H1746     1.0  0.62198  0.73357  0.60851  1.0000
  H   H1747     1.0  0.77321  0.69996  0.37654  1.0000
  H   H1748     1.0  0.98147  0.55128  0.55218  1.0000
  H   H1749     1.0  0.69621  0.75732  0.47323  1.0000
  H   H1750     1.0  0.61771  0.78041  0.49292  1.0000
  H   H1751     1.0  0.69023  0.59825  0.41268  1.0000
  C   C979      1.0  0.59829  0.68213  0.32007  1.0000
  H   H1752     1.0  0.72362  0.55519  0.61202  1.0000
  C   C980      1.0  0.83690  0.54132  0.21168  1.0000
  H   H1753     1.0  0.96102  0.57549  0.14735  1.0000
  H   H1754     1.0  0.69232  0.57475  0.23861  1.0000
  H   H1755     1.0  0.83168  0.58219  0.23003  1.0000
  S   S214      1.0  0.89305  0.69926  0.27640  1.0000
  C   C981      1.0  0.51805  0.75587  0.12645  1.0000
  H   H1756     1.0  0.53074  0.72378  0.45729  1.0000
  C   C982      1.0  0.91650  0.70102  0.16976  1.0000
  H   H1757     1.0  0.55625  0.76676  0.55969  1.0000
  C   C983      1.0  0.96606  0.61977  0.20262  1.0000
  H   H1758     1.0  0.59252  0.78095  0.58001  1.0000
  H   H1759     1.0  0.52474  0.77200  0.38429  1.0000
  C   C984      1.0  0.70579  0.59063  0.25121  1.0000
  S   S215      1.0  0.56393  0.56663  0.59878  1.0000
  C   C985      1.0  0.54731  0.53779  0.58342  1.0000
  C   C986      1.0  0.59695  0.73451  0.48490  1.0000
  C   C987      1.0  0.71010  0.58121  0.42753  1.0000
  H   H1760     1.0  0.69220  0.54748  0.57245  1.0000
  C   C988      1.0  0.74922  0.69283  0.45864  1.0000
  H   H1761     1.0  0.63548  0.58278  0.39841  1.0000
  H   H1762     1.0  0.93962  0.63224  0.20494  1.0000
  S   S216      1.0  0.71508  0.67794  0.34398  1.0000
  H   H1763     1.0  0.66767  0.58642  0.32207  1.0000
  Fe  Fe107     1.0  0.76800  0.66677  0.29658  1.0000
  H   H1764     1.0  0.92491  0.64888  0.36668  1.0000
  H   H1765     1.0  0.89410  0.76698  0.61200  1.0000
  H   H1766     1.0  0.79321  0.78161  0.17177  1.0000
  C   C989      1.0  0.94303  0.70272  0.12461  1.0000
  H   H1767     1.0  0.91292  0.63730  0.31005  1.0000
  H   H1768     1.0  0.88766  0.56101  0.52587  1.0000
  C   C990      1.0  0.96293  0.69976  0.22579  1.0000
  Fe  Fe108     1.0  0.76712  0.70272  0.61686  1.0000
  C   C991      1.0  0.69697  0.58855  0.31184  1.0000
  H   H1769     1.0  0.88834  0.70109  0.16538  1.0000
  H   H1770     1.0  0.52773  0.68889  0.20502  1.0000
  H   H1771     1.0  0.73718  0.60956  0.49421  1.0000
  H   H1772     1.0  0.63575  0.76261  0.34973  1.0000
  C   C992      1.0  0.65591  0.75139  0.32561  1.0000
  C   C993      1.0  0.53858  0.64780  0.18970  1.0000
  H   H1773     1.0  0.82246  0.55692  0.55153  1.0000
  H   H1774     1.0  0.59941  0.54213  0.40766  1.0000
  C   C994      1.0  0.64452  0.68556  0.56565  1.0000
  H   H1775     1.0  0.67696  0.71956  0.53633  1.0000
  Fe  Fe109     1.0  0.52324  0.60275  0.60828  1.0000
  S   S217      1.0  0.61728  0.55280  0.28845  1.0000
  H   H1776     1.0  0.80358  0.70027  0.42350  1.0000
  H   H1777     1.0  0.79416  0.60176  0.16391  1.0000
  H   H1778     1.0  0.74910  0.75961  0.31069  1.0000
  C   C995      1.0  0.67256  0.54486  0.41720  1.0000
  S   S218      1.0  0.75726  0.74218  0.55743  1.0000
  C   C996      1.0  0.55583  0.76731  0.25852  1.0000
  Fe  Fe110     1.0  0.82208  0.61676  0.29652  1.0000
  C   C997      1.0  0.83117  0.74615  0.35726  1.0000
  C   C998      1.0  0.83256  0.55050  0.30120  1.0000
  C   C999      1.0  0.77709  0.77191  0.20960  1.0000
  H   H1779     1.0  0.60098  0.68983  0.48600  1.0000
  Fe  Fe111     1.0  0.84886  0.67434  0.26759  1.0000
  H   H1780     1.0  0.66463  0.64244  0.58178  1.0000
  C   C1000     1.0  0.83678  0.54751  0.51767  1.0000
  H   H1781     1.0  0.89841  0.53400  0.34628  1.0000
  N   N55       1.0  0.62231  0.73627  0.52386  1.0000
  H   H1782     1.0  0.70319  0.60817  0.32166  1.0000
  S   S219      1.0  0.56973  0.57845  0.15885  1.0000
  S   S220      1.0  0.81566  0.65178  0.34011  1.0000
  H   H1783     1.0  0.61093  0.73887  0.44313  1.0000
  H   H1784     1.0  0.72316  0.63413  0.43702  1.0000
  S   S221      1.0  0.85957  0.63775  0.22702  1.0000
  C   C1001     1.0  0.94796  0.60732  0.35750  1.0000
  H   H1785     1.0  0.74975  0.70018  0.49630  1.0000
  N   N56       1.0  0.92636  0.56202  0.41936  1.0000
  H   H1786     1.0  0.69585  0.61134  0.23018  1.0000
  C   C1002     1.0  0.56890  0.66678  0.25388  1.0000
  C   C1003     1.0  0.92638  0.70005  0.22025  1.0000
  H   H1787     1.0  0.69813  0.75641  0.19785  1.0000
  H   H1788     1.0  0.55658  0.77393  0.21466  1.0000
  H   H1789     1.0  0.88942  0.77321  0.54149  1.0000
  H   H1790     1.0  0.52075  0.63744  0.22474  1.0000
  H   H1791     1.0  0.83614  0.54882  0.16946  1.0000
  H   H1792     1.0  0.92075  0.54940  0.60171  1.0000
  N   N57       1.0  0.70932  0.55659  0.40184  1.0000
  H   H1793     1.0  0.61401  0.69820  0.32791  1.0000
  C   C1004     1.0  0.73744  0.53457  0.42338  1.0000
  C   C1005     1.0  0.91691  0.59197  0.39498  1.0000
  H   H1794     1.0  0.75505  0.60270  0.37640  1.0000
  H   H1795     1.0  0.68451  0.69214  0.14932  1.0000
  H   H1796     1.0  0.64997  0.68775  0.60562  1.0000
  C   C1006     1.0  0.87097  0.56227  0.49351  1.0000
  Fe  Fe112     1.0  0.61922  0.56551  0.19940  1.0000
  C   C1007     1.0  0.65215  0.71301  0.52518  1.0000
  S   S222      1.0  0.65227  0.59764  0.14474  1.0000
  H   H1797     1.0  0.72146  0.69665  0.44762  1.0000
  H   H1798     1.0  0.61625  0.68021  0.57023  1.0000
  H   H1799     1.0  0.61938  0.70852  0.18695  1.0000
  H   H1800     1.0  0.64420  0.70271  0.24137  1.0000
  H   H1801     1.0  0.59608  0.64772  0.42137  1.0000
  H   H1802     1.0  0.66179  0.71532  0.38831  1.0000
  C   C1008     1.0  0.77598  0.70724  0.41320  1.0000
  H   H1803     1.0  0.60769  0.74458  0.24863  1.0000
  C   C1009     1.0  0.97873  0.61576  0.14535  1.0000
  C   C1010     1.0  0.58064  0.74091  0.27159  1.0000
  C   C1011     1.0  0.88640  0.73076  0.40450  1.0000
  N   N58       1.0  0.79168  0.75625  0.35997  1.0000
  C   C1012     1.0  0.76898  0.73917  0.40624  1.0000
  C   C1013     1.0  0.55412  0.70845  0.45087  1.0000
  H   H1804     1.0  0.65008  0.76949  0.53779  1.0000
  H   H1805     1.0  0.56217  0.63318  0.18053  1.0000
  C   C1014     1.0  0.69105  0.74807  0.23985  1.0000
  H   H1806     1.0  0.77325  0.74349  0.44508  1.0000
  H   H1807     1.0  0.73976  0.74482  0.40306  1.0000
  C   C1015     1.0  0.63899  0.76366  0.50469  1.0000
  H   H1808     1.0  0.52762  0.76392  0.27734  1.0000
  H   H1809     1.0  0.85264  0.76834  0.40902  1.0000
  C   C1016     1.0  0.71914  0.76082  0.58549  1.0000
  C   C1017     1.0  0.77861  0.75302  0.30918  1.0000
  C   C1018     1.0  0.83793  0.77538  0.59620  1.0000
  H   H1810     1.0  0.83978  0.74342  0.13145  1.0000
  C   C1019     1.0  0.95394  0.59730  0.12745  1.0000
  H   H1811     1.0  0.90414  0.73969  0.36756  1.0000
  H   H1812     1.0  0.68009  0.59480  0.58811  1.0000
  C   C1020     1.0  0.78161  0.60483  0.12806  1.0000
  H   H1813     1.0  0.89256  0.57285  0.12472  1.0000
  H   H1814     1.0  0.79636  0.73538  0.11934  1.0000
  H   H1815     1.0  0.89660  0.98296  0.76883  1.0000
  H   H1816     1.0  0.49717  0.85073  0.81712  1.0000
  H   H1817     1.0  0.65891  0.94460  0.73044  1.0000
  H   H1818     1.0  0.66678  0.85304  0.67279  1.0000
  H   H1819     1.0  0.54095  0.90593  0.07484  1.0000
  H   H1820     1.0  0.81956  0.91142  0.73176  1.0000
  S   S223      1.0  0.86315  0.96712  0.68959  1.0000
  H   H1821     1.0  0.76109  0.95765  0.05358  1.0000
  H   H1822     1.0  0.78655  0.99635  0.82602  1.0000
  H   H1823     1.0  0.50349  0.85894  0.97560  1.0000
  H   H1824     1.0  0.66320  0.90497  0.79911  1.0000
  H   H1825     1.0  0.89188  0.85173  0.66382  1.0000
  C   C1021     1.0  0.51063  0.91938  0.65194  1.0000
  C   C1022     1.0  0.51784  0.85915  0.83445  1.0000
  H   H1826     1.0  0.53585  0.95188  0.93986  1.0000
  H   H1827     1.0  0.57688  0.89816  0.73123  1.0000
  H   H1828     1.0  0.71861  0.88644  0.89383  1.0000
  H   H1829     1.0  0.71101  0.98852  0.87280  1.0000
  H   H1830     1.0  0.77376  0.82586  0.91238  1.0000
  C   C1023     1.0  0.70287  0.92112  0.83184  1.0000
  H   H1831     1.0  0.74577  0.83418  0.68929  1.0000
  C   C1024     1.0  0.85156  0.81741  0.62681  1.0000
  H   H1832     1.0  0.63142  0.79257  0.92179  1.0000
  S   S224      1.0  0.55334  0.96551  0.07657  1.0000
  C   C1025     1.0  0.50516  0.94717  0.65712  1.0000
  C   C1026     1.0  0.68603  0.99162  0.99291  1.0000
  H   H1833     1.0  0.76133  0.88097  0.10189  1.0000
  H   H1834     1.0  0.55767  0.78422  0.73381  1.0000
  H   H1835     1.0  0.98317  0.95137  0.73673  1.0000
  C   C1027     1.0  0.52692  0.95757  0.68675  1.0000
  H   H1836     1.0  0.62002  0.86831  0.85678  1.0000
  Fe  Fe113     1.0  0.68550  0.83517  0.05272  1.0000
  Fe  Fe114     1.0  0.55705  0.01076  0.04558  1.0000
  H   H1837     1.0  0.69964  0.97122  0.00223  1.0000
  H   H1838     1.0  0.49524  0.84812  0.07420  1.0000
  H   H1839     1.0  0.76050  0.87098  0.74628  1.0000
  H   H1840     1.0  0.89939  0.02818  0.79388  1.0000
  S   S225      1.0  0.58654  0.02502  0.96426  1.0000
  H   H1841     1.0  0.60915  0.93235  0.97289  1.0000
  H   H1842     1.0  0.81386  0.88855  0.68764  1.0000
  H   H1843     1.0  0.54007  0.86576  0.80196  1.0000
  C   C1028     1.0  0.74680  0.91637  0.72350  1.0000
  C   C1029     1.0  0.61525  0.79613  0.88795  1.0000
  C   C1030     1.0  0.80945  0.89140  0.72980  1.0000
  H   H1844     1.0  0.55422  0.79782  0.84465  1.0000
  H   H1845     1.0  0.51561  0.94411  0.80571  1.0000
  H   H1846     1.0  0.79358  0.79609  0.69167  1.0000
  H   H1847     1.0  0.85404  0.80158  0.66406  1.0000
  S   S226      1.0  0.61969  0.80897  0.65742  1.0000
  H   H1848     1.0  0.75661  0.91903  0.67995  1.0000
  Fe  Fe115     1.0  0.61520  0.80887  0.05575  1.0000
  C   C1031     1.0  0.89953  0.02669  0.01573  1.0000
  S   S227      1.0  0.70951  0.79831  0.10594  1.0000
  H   H1849     1.0  0.82879  0.89541  0.07970  1.0000
  H   H1850     1.0  0.79361  0.90453  0.01190  1.0000
  H   H1851     1.0  0.73691  0.92887  0.97728  1.0000
  H   H1852     1.0  0.58697  0.79828  0.90769  1.0000
  H   H1853     1.0  0.53363  0.96604  0.84186  1.0000
  C   C1032     1.0  0.53553  0.90151  0.68057  1.0000
  H   H1854     1.0  0.64953  0.82485  0.82733  1.0000
  H   H1855     1.0  0.95755  0.98728  0.65851  1.0000
  S   S228      1.0  0.70756  0.87664  0.02843  1.0000
  H   H1856     1.0  0.63803  0.90864  0.70614  1.0000
  C   C1033     1.0  0.60755  0.94244  0.93045  1.0000
  H   H1857     1.0  0.59506  0.84710  0.91319  1.0000
  C   C1034     1.0  0.62247  0.82492  0.85158  1.0000
  H   H1858     1.0  0.62044  0.86727  0.67886  1.0000
  S   S229      1.0  0.56198  0.02773  0.77959  1.0000
  C   C1035     1.0  0.53707  0.79002  0.04780  1.0000
  C   C1036     1.0  0.78840  0.92740  0.00697  1.0000
  H   H1859     1.0  0.83591  0.83576  0.64057  1.0000
  S   S230      1.0  0.58455  0.95354  0.74366  1.0000
  H   H1860     1.0  0.82526  0.87427  0.75362  1.0000
  H   H1861     1.0  0.81418  0.93698  0.99138  1.0000
  C   C1037     1.0  0.96083  0.00911  0.98715  1.0000
  H   H1862     1.0  0.59776  0.96465  0.92845  1.0000
  H   H1863     1.0  0.58622  0.91237  0.08255  1.0000
  H   H1864     1.0  0.49663  0.99356  0.77519  1.0000
  C   C1038     1.0  0.50541  0.87585  0.99715  1.0000
  H   H1865     1.0  0.61775  0.79446  0.77923  1.0000
  C   C1039     1.0  0.77093  0.81720  0.95605  1.0000
  C   C1040     1.0  0.66716  0.92223  0.05697  1.0000
  H   H1866     1.0  0.71220  0.87550  0.70868  1.0000
  H   H1867     1.0  0.89302  0.96736  0.07371  1.0000
  H   H1868     1.0  0.48645  0.88446  0.07691  1.0000
  H   H1869     1.0  0.76653  0.89027  0.79536  1.0000
  H   H1870     1.0  0.83874  0.02313  0.63891  1.0000
  C   C1041     1.0  0.68845  0.94395  0.71707  1.0000
  H   H1871     1.0  0.70300  0.88224  0.80379  1.0000
  H   H1872     1.0  0.75994  0.00364  0.88581  1.0000
  S   S231      1.0  0.56503  0.81624  0.01605  1.0000
  H   H1873     1.0  0.63519  0.97683  0.98749  1.0000
  H   H1874     1.0  0.76030  0.95995  0.95374  1.0000
  H   H1875     1.0  0.54663  0.92005  0.97950  1.0000
  H   H1876     1.0  0.52008  0.80129  0.77008  1.0000
  C   C1042     1.0  0.73977  0.81387  0.68230  1.0000
  C   C1043     1.0  0.54361  0.92969  0.93733  1.0000
  H   H1877     1.0  0.78872  0.02809  0.74379  1.0000
  H   H1878     1.0  0.84335  0.98431  0.86676  1.0000
  S   S232      1.0  0.63183  0.83660  0.10351  1.0000
  H   H1879     1.0  0.74383  0.82448  0.97453  1.0000
  H   H1880     1.0  0.67316  0.78502  0.81349  1.0000
  H   H1881     1.0  0.58269  0.93796  0.86355  1.0000
  H   H1882     1.0  0.81397  0.84726  0.08630  1.0000
  H   H1883     1.0  0.63506  0.94133  0.90779  1.0000
  C   C1044     1.0  0.58226  0.92794  0.90629  1.0000
  H   H1884     1.0  0.56144  0.81804  0.74796  1.0000
  S   S233      1.0  0.49903  0.02204  0.07510  1.0000
  C   C1045     1.0  0.76929  0.89072  0.75172  1.0000
  C   C1046     1.0  0.80945  0.89945  0.11517  1.0000
  S   S234      1.0  0.66725  0.81015  0.00041  1.0000
  Fe  Fe116     1.0  0.58604  0.00023  0.72190  1.0000
  S   S235      1.0  0.57860  0.01828  0.11707  1.0000
  C   C1047     1.0  0.64590  0.93688  0.09354  1.0000
  H   H1885     1.0  0.79152  0.82528  0.97413  1.0000
  C   C1048     1.0  0.48997  0.90384  0.96590  1.0000
  C   C1049     1.0  0.69792  0.90434  0.88908  1.0000
  H   H1886     1.0  0.68444  0.94027  0.83077  1.0000
  C   C1050     1.0  0.68293  0.89564  0.07477  1.0000
  H   H1887     1.0  0.91216  0.81645  0.67949  1.0000
  C   C1051     1.0  0.54994  0.79768  0.76367  1.0000
  C   C1052     1.0  0.64897  0.87262  0.67016  1.0000
  N   N59       1.0  0.70620  0.91515  0.73358  1.0000
  C   C1053     1.0  0.94579  0.02313  0.07307  1.0000
  H   H1888     1.0  0.70095  0.91771  0.91746  1.0000
  C   C1054     1.0  0.69327  0.90447  0.79195  1.0000
  H   H1889     1.0  0.77595  0.92932  0.92675  1.0000
  C   C1055     1.0  0.91039  0.03125  0.06251  1.0000
  H   H1890     1.0  0.53428  0.87624  0.00118  1.0000
  C   C1056     1.0  0.69627  0.89579  0.70104  1.0000
  H   H1891     1.0  0.81610  0.98641  0.93074  1.0000
  C   C1057     1.0  0.50061  0.88362  0.85979  1.0000
  C   C1058     1.0  0.90832  0.83469  0.64687  1.0000
  H   H1892     1.0  0.75484  0.93509  0.73497  1.0000
  H   H1893     1.0  0.64380  0.84523  0.90597  1.0000
  H   H1894     1.0  0.73093  0.92736  0.82246  1.0000
  S   S236      1.0  0.55827  0.02501  0.65457  1.0000
  C   C1059     1.0  0.55717  0.91196  0.71029  1.0000
  H   H1895     1.0  0.71897  0.94738  0.63428  1.0000
  S   S237      1.0  0.63684  0.02280  0.69604  1.0000
  H   H1896     1.0  0.95417  0.02637  0.10944  1.0000
  H   H1897     1.0  0.70350  0.90390  0.65770  1.0000
  H   H1898     1.0  0.60193  0.83101  0.82370  1.0000
  H   H1899     1.0  0.67058  0.89655  0.89989  1.0000
  H   H1900     1.0  0.52241  0.97894  0.69057  1.0000
  C   C1060     1.0  0.65616  0.88931  0.71037  1.0000
  C   C1061     1.0  0.82480  0.94771  0.08860  1.0000
  H   H1901     1.0  0.74539  0.92458  0.07235  1.0000
  H   H1902     1.0  0.67084  0.98674  0.80326  1.0000
  N   N60       1.0  0.79383  0.92922  0.10557  1.0000
  C   C1062     1.0  0.62014  0.84770  0.88406  1.0000
  H   H1903     1.0  0.84255  0.94253  0.05278  1.0000
  H   H1904     1.0  0.64746  0.98754  0.86994  1.0000
  H   H1905     1.0  0.63364  0.95741  0.07987  1.0000
  C   C1063     1.0  0.50891  0.95747  0.83577  1.0000
  C   C1064     1.0  0.83228  0.99821  0.89516  1.0000
  H   H1906     1.0  0.81404  0.96978  0.07646  1.0000
  H   H1907     1.0  0.67042  0.93109  0.01468  1.0000
  H   H1908     1.0  0.59317  0.90597  0.90902  1.0000
  H   H1909     1.0  0.69786  0.95832  0.73899  1.0000
  C   C1065     1.0  0.77061  0.93532  0.06099  1.0000
  C   C1066     1.0  0.76381  0.93699  0.96363  1.0000
  H   H1910     1.0  0.64907  0.87659  0.75087  1.0000
  C   C1067     1.0  0.64974  0.99481  0.98452  1.0000
  H   H1911     1.0  0.72041  0.81756  0.65278  1.0000
  C   C1068     1.0  0.69731  0.00776  0.85157  1.0000
  C   C1069     1.0  0.66359  0.99938  0.83462  1.0000
  H   H1912     1.0  0.63891  0.97000  0.64692  1.0000
  H   H1913     1.0  0.57937  0.88265  0.05752  1.0000
  C   C1070     1.0  0.85258  0.02435  0.67201  1.0000
  C   C1071     1.0  0.55425  0.94032  0.71116  1.0000
  H   H1914     1.0  0.83371  0.78550  0.95377  1.0000
  C   C1072     1.0  0.56741  0.89621  0.08613  1.0000
  C   C1073     1.0  0.88500  0.00167  0.74537  1.0000
  H   H1915     1.0  0.64618  0.01781  0.81891  1.0000
  C   C1074     1.0  0.86751  0.00005  0.70222  1.0000
  H   H1916     1.0  0.53891  0.87974  0.67848  1.0000
  C   C1075     1.0  0.87663  0.96928  0.11278  1.0000
  H   H1917     1.0  0.54623  0.87982  0.90416  1.0000
  H   H1918     1.0  0.54763  0.90646  0.84669  1.0000
  C   C1076     1.0  0.80914  0.02289  0.86791  1.0000
  H   H1919     1.0  0.70262  0.97935  0.65314  1.0000
  C   C1077     1.0  0.77469  0.79810  0.66183  1.0000
  C   C1078     1.0  0.65850  0.79077  0.63075  1.0000
  C   C1079     1.0  0.92480  0.01550  0.97802  1.0000
  H   H1920     1.0  0.85528  0.00587  0.90869  1.0000
  H   H1921     1.0  0.52871  0.84243  0.86529  1.0000
  C   C1080     1.0  0.88677  0.02729  0.75936  1.0000
  H   H1922     1.0  0.72691  0.80170  0.72047  1.0000
  H   H1923     1.0  0.73319  0.00619  0.77779  1.0000
  H   H1924     1.0  0.65374  0.88492  0.62877  1.0000
  C   C1081     1.0  0.77649  0.01330  0.84841  1.0000
  C   C1082     1.0  0.49085  0.94051  0.88839  1.0000
  C   C1083     1.0  0.70452  0.01486  0.99063  1.0000
  C   C1084     1.0  0.63231  0.02130  0.97209  1.0000
  H   H1925     1.0  0.86122  0.98994  0.10891  1.0000
  H   H1926     1.0  0.87207  0.03246  0.00780  1.0000
  S   S238      1.0  0.74997  0.01039  0.99993  1.0000
  H   H1927     1.0  0.97811  0.90233  0.63149  1.0000
  C   C1085     1.0  0.97099  0.01210  0.03538  1.0000
  H   H1928     1.0  0.68829  0.02199  0.87976  1.0000
  C   C1086     1.0  0.69569  0.95769  0.65646  1.0000
  H   H1929     1.0  0.91695  0.01328  0.94060  1.0000
  C   C1087     1.0  0.52919  0.89675  0.88210  1.0000
  C   C1088     1.0  0.66305  0.95933  0.62674  1.0000
  H   H1930     1.0  0.48833  0.89922  0.82855  1.0000
  N   N61       1.0  0.51428  0.91734  0.91726  1.0000
  C   C1089     1.0  0.72282  0.02202  0.80275  1.0000
  H   H1931     1.0  0.51191  0.79023  0.97821  1.0000
  Fe  Fe117     1.0  0.49721  0.97698  0.11293  1.0000
  H   H1932     1.0  0.65669  0.93843  0.62366  1.0000
  C   C1090     1.0  0.77499  0.78547  0.96653  1.0000
  H   H1933     1.0  0.93527  0.84208  0.62895  1.0000
  H   H1934     1.0  0.95529  0.96032  0.62214  1.0000
  H   H1935     1.0  0.55751  0.83783  0.32732  1.0000
  C   C1091     1.0  0.56338  0.85977  0.32245  1.0000
  H   H1936     1.0  0.48857  0.01482  0.34851  1.0000
  H   H1937     1.0  0.53041  0.96721  0.48644  1.0000
  C   C1092     1.0  0.66611  0.00077  0.22132  1.0000
  H   H1938     1.0  0.72704  0.79846  0.52681  1.0000
  C   C1093     1.0  0.85079  0.86505  0.46468  1.0000
  H   H1939     1.0  0.82792  0.80929  0.50608  1.0000
  H   H1940     1.0  0.72967  0.91598  0.25436  1.0000
  C   C1094     1.0  0.85056  0.94651  0.13089  1.0000
  H   H1941     1.0  0.48832  0.86161  0.17121  1.0000
  S   S239      1.0  0.53597  0.83386  0.58414  1.0000
  Fe  Fe118     1.0  0.80017  0.92752  0.56969  1.0000
  C   C1095     1.0  0.77566  0.82597  0.41518  1.0000
  S   S240      1.0  0.54572  0.88292  0.47599  1.0000
  H   H1942     1.0  0.52346  0.01117  0.52619  1.0000
  C   C1096     1.0  0.80042  0.84819  0.12748  1.0000
  S   S241      1.0  0.64602  0.79512  0.24383  1.0000
  H   H1943     1.0  0.84850  0.85437  0.43169  1.0000
  C   C1097     1.0  0.49029  0.02936  0.37516  1.0000
  Fe  Fe119     1.0  0.87446  0.94108  0.51076  1.0000
  H   H1944     1.0  0.55356  0.85920  0.14102  1.0000
  H   H1945     1.0  0.54785  0.91426  0.18304  1.0000
  H   H1946     1.0  0.80199  0.83416  0.39649  1.0000
  C   C1098     1.0  0.56201  0.94972  0.32349  1.0000
  C   C1099     1.0  0.53699  0.89423  0.18275  1.0000
  H   H1947     1.0  0.78498  0.83551  0.60326  1.0000
  N   N62       1.0  0.52987  0.87768  0.23924  1.0000
  C   C1100     1.0  0.68003  0.80336  0.58472  1.0000
  H   H1948     1.0  0.92796  0.02812  0.47669  1.0000
  H   H1949     1.0  0.84008  0.88704  0.45380  1.0000
  H   H1950     1.0  0.72135  0.85584  0.56201  1.0000
  H   H1951     1.0  0.75416  0.83655  0.39120  1.0000
  H   H1952     1.0  0.75081  0.78775  0.43894  1.0000
  H   H1953     1.0  0.80017  0.85430  0.51215  1.0000
  H   H1954     1.0  0.87295  0.02214  0.42330  1.0000
  C   C1101     1.0  0.63987  0.92484  0.14786  1.0000
  C   C1102     1.0  0.72350  0.92570  0.52138  1.0000
  H   H1955     1.0  0.69594  0.79459  0.39142  1.0000
  H   H1956     1.0  0.74922  0.02045  0.56562  1.0000
  H   H1957     1.0  0.64663  0.01588  0.37683  1.0000
  H   H1958     1.0  0.78565  0.92538  0.19180  1.0000
  H   H1959     1.0  0.58134  0.98275  0.52109  1.0000
  C   C1103     1.0  0.51915  0.84902  0.24048  1.0000
  C   C1104     1.0  0.84085  0.81971  0.53183  1.0000
  H   H1960     1.0  0.87977  0.86478  0.46932  1.0000
  H   H1961     1.0  0.72225  0.95331  0.23566  1.0000
  H   H1962     1.0  0.73026  0.00549  0.33955  1.0000
  Fe  Fe120     1.0  0.57141  0.97328  0.15033  1.0000
  C   C1105     1.0  0.65595  0.89831  0.16594  1.0000
  H   H1963     1.0  0.80650  0.98194  0.23299  1.0000
  H   H1964     1.0  0.51178  0.90037  0.16447  1.0000
  H   H1965     1.0  0.65009  0.00394  0.14247  1.0000
  H   H1966     1.0  0.66070  0.97863  0.23057  1.0000
  C   C1106     1.0  0.79123  0.81290  0.60528  1.0000
  H   H1967     1.0  0.51022  0.93472  0.45392  1.0000
  H   H1968     1.0  0.62149  0.84855  0.31818  1.0000
  Fe  Fe121     1.0  0.60282  0.88341  0.49042  1.0000
  H   H1969     1.0  0.53640  0.94811  0.30837  1.0000
  S   S242      1.0  0.64123  0.91454  0.44525  1.0000
  C   C1107     1.0  0.73028  0.02884  0.53780  1.0000
  H   H1970     1.0  0.69795  0.99920  0.14382  1.0000
  C   C1108     1.0  0.67405  0.79465  0.42575  1.0000
  H   H1971     1.0  0.68827  0.95169  0.46940  1.0000
  C   C1109     1.0  0.73234  0.89868  0.54831  1.0000
  C   C1110     1.0  0.94218  0.00171  0.57861  1.0000
  H   H1972     1.0  0.54283  0.83587  0.22500  1.0000
  Fe  Fe122     1.0  0.65464  0.79880  0.15498  1.0000
  H   H1973     1.0  0.51909  0.03129  0.37663  1.0000
  C   C1111     1.0  0.79664  0.99847  0.25621  1.0000
  H   H1974     1.0  0.55638  0.78568  0.12324  1.0000
  H   H1975     1.0  0.59048  0.87553  0.15556  1.0000
  H   H1976     1.0  0.68944  0.86309  0.14358  1.0000
  S   S243      1.0  0.51476  0.98158  0.18951  1.0000
  H   H1977     1.0  0.91317  0.99960  0.59364  1.0000
  H   H1978     1.0  0.77353  0.95920  0.15626  1.0000
  Fe  Fe123     1.0  0.59398  0.83735  0.59087  1.0000
  H   H1979     1.0  0.76801  0.87652  0.17115  1.0000
  C   C1112     1.0  0.71044  0.78848  0.56219  1.0000
  H   H1980     1.0  0.79809  0.78475  0.44515  1.0000
  H   H1981     1.0  0.77046  0.00830  0.24372  1.0000
  N   N63       1.0  0.83134  0.80651  0.59004  1.0000
  C   C1113     1.0  0.98332  0.90693  0.58823  1.0000
  C   C1114     1.0  0.56326  0.87926  0.14307  1.0000
  Fe  Fe124     1.0  0.84539  0.96320  0.61249  1.0000
  H   H1982     1.0  0.59402  0.99997  0.45264  1.0000
  C   C1115     1.0  0.50155  0.89310  0.27344  1.0000
  H   H1983     1.0  0.57518  0.89525  0.25892  1.0000
  C   C1116     1.0  0.68137  0.98391  0.34794  1.0000
  C   C1117     1.0  0.82932  0.85124  0.51706  1.0000
  H   H1984     1.0  0.66709  0.96828  0.37929  1.0000
  H   H1985     1.0  0.53513  0.03065  0.45985  1.0000
  H   H1986     1.0  0.65133  0.88883  0.20798  1.0000
  H   H1987     1.0  0.48865  0.84789  0.43948  1.0000
  H   H1988     1.0  0.97547  0.01072  0.40845  1.0000
  C   C1118     1.0  0.71700  0.93328  0.22652  1.0000
  Fe  Fe125     1.0  0.81157  0.98610  0.51082  1.0000
  C   C1119     1.0  0.56489  0.87453  0.26285  1.0000
  H   H1989     1.0  0.81022  0.79774  0.34127  1.0000
  C   C1120     1.0  0.60990  0.98209  0.32320  1.0000
  H   H1990     1.0  0.68075  0.80819  0.45162  1.0000
  S   S244      1.0  0.92466  0.92448  0.46424  1.0000
  C   C1121     1.0  0.78613  0.78685  0.36272  1.0000
  S   S245      1.0  0.61325  0.83726  0.50446  1.0000
  H   H1991     1.0  0.87028  0.81653  0.51849  1.0000
  H   H1992     1.0  0.67336  0.82468  0.56698  1.0000
  C   C1122     1.0  0.67775  0.90870  0.48223  1.0000
  H   H1993     1.0  0.55179  0.99342  0.31708  1.0000
  H   H1994     1.0  0.80437  0.78998  0.25904  1.0000
  C   C1123     1.0  0.71534  0.98932  0.36870  1.0000
  S   S246      1.0  0.85506  0.92045  0.59434  1.0000
  H   H1995     1.0  0.77576  0.80760  0.57577  1.0000
  H   H1996     1.0  0.57757  0.98310  0.25846  1.0000
  C   C1124     1.0  0.77759  0.79459  0.41901  1.0000
  C   C1125     1.0  0.68732  0.88175  0.50831  1.0000
  H   H1997     1.0  0.58848  0.01911  0.50602  1.0000
  H   H1998     1.0  0.67393  0.86475  0.50243  1.0000
  C   C1126     1.0  0.53779  0.00978  0.48572  1.0000
  H   H1999     1.0  0.51036  0.81226  0.17529  1.0000
  C   C1127     1.0  0.50571  0.79010  0.38472  1.0000
  H   H2000     1.0  0.64854  0.80327  0.40945  1.0000
  Fe  Fe126     1.0  0.55501  0.83657  0.49639  1.0000
  C   C1128     1.0  0.65620  0.01100  0.33639  1.0000
  H   H2001     1.0  0.53734  0.98755  0.42123  1.0000
  S   S247      1.0  0.58821  0.88360  0.57754  1.0000
  S   S248      1.0  0.78663  0.02290  0.45760  1.0000
  H   H2002     1.0  0.75164  0.78526  0.21636  1.0000
  S   S249      1.0  0.81985  0.94522  0.48425  1.0000
  H   H2003     1.0  0.76897  0.83085  0.45591  1.0000
  S   S250      1.0  0.76550  0.89206  0.59102  1.0000
  H   H2004     1.0  0.76312  0.79718  0.34130  1.0000
  S   S251      1.0  0.54705  0.80439  0.45065  1.0000
  H   H2005     1.0  0.79235  0.98881  0.29942  1.0000
  H   H2006     1.0  0.92752  0.90812  0.57856  1.0000
  C   C1129     1.0  0.71436  0.87672  0.54158  1.0000
  H   H2007     1.0  0.73713  0.94285  0.52683  1.0000
  C   C1130     1.0  0.96079  0.91752  0.50218  1.0000
  H   H2008     1.0  0.68736  0.93140  0.23323  1.0000
  C   C1131     1.0  0.95451  0.91056  0.55817  1.0000
  C   C1132     1.0  0.69605  0.93073  0.48847  1.0000
  C   C1133     1.0  0.52247  0.98776  0.46200  1.0000
  H   H2009     1.0  0.58640  0.86235  0.24060  1.0000
  H   H2010     1.0  0.62997  0.96588  0.30972  1.0000
  H   H2011     1.0  0.90739  0.99941  0.39345  1.0000
  H   H2012     1.0  0.59809  0.84862  0.38467  1.0000
  C   C1134     1.0  0.74165  0.03230  0.48259  1.0000
  S   S252      1.0  0.78815  0.96849  0.59527  1.0000
  H   H2013     1.0  0.58281  0.93413  0.30927  1.0000
  S   S253      1.0  0.61121  0.94243  0.19285  1.0000
  H   H2014     1.0  0.66927  0.97142  0.58537  1.0000
  H   H2015     1.0  0.60525  0.97605  0.36777  1.0000
  H   H2016     1.0  0.54250  0.87018  0.34878  1.0000
  C   C1135     1.0  0.51009  0.80960  0.41502  1.0000
  H   H2017     1.0  0.69160  0.00338  0.23565  1.0000
  H   H2018     1.0  0.60675  0.88111  0.33981  1.0000
  H   H2019     1.0  0.73343  0.96992  0.37518  1.0000
  H   H2020     1.0  0.68991  0.97441  0.31240  1.0000
  C   C1136     1.0  0.59471  0.03135  0.32410  1.0000
  H   H2021     1.0  0.85620  0.00907  0.34280  1.0000
  C   C1137     1.0  0.57412  0.97901  0.30282  1.0000
  H   H2022     1.0  0.83571  0.94943  0.17023  1.0000
  H   H2023     1.0  0.83308  0.86230  0.54881  1.0000
  C   C1138     1.0  0.59972  0.85960  0.34227  1.0000
  H   H2024     1.0  0.55736  0.94495  0.36796  1.0000
  Fe  Fe127     1.0  0.53142  0.88034  0.56502  1.0000
  S   S254      1.0  0.86828  0.98363  0.52974  1.0000
  H   H2025     1.0  0.51161  0.83811  0.28237  1.0000
  N   N64       1.0  0.62442  0.01039  0.30714  1.0000
  C   C1139     1.0  0.57783  0.00239  0.49147  1.0000
  H   H2026     1.0  0.70799  0.99627  0.40753  1.0000
  H   H2027     1.0  0.94884  0.99490  0.53967  1.0000
  C   C1140     1.0  0.78183  0.87710  0.12964  1.0000
  H   H2028     1.0  0.84979  0.00915  0.25960  1.0000
  S   S255      1.0  0.48895  0.90755  0.60619  1.0000
  H   H2029     1.0  0.61074  0.01897  0.22618  1.0000
  H   H2030     1.0  0.88858  0.84562  0.57153  1.0000
  H   H2031     1.0  0.51424  0.90832  0.28954  1.0000
  H   H2032     1.0  0.71653  0.94804  0.14185  1.0000
  C   C1141     1.0  0.73196  0.93185  0.16843  1.0000
  C   C1142     1.0  0.77274  0.93666  0.15648  1.0000
  C   C1143     1.0  0.67236  0.00980  0.16034  1.0000
  H   H2033     1.0  0.58184  0.02341  0.36558  1.0000
  C   C1144     1.0  0.63454  0.01854  0.24718  1.0000
  H   H2034     1.0  0.72674  0.91147  0.16178  1.0000
  C   C1145     1.0  0.89322  0.02056  0.38749  1.0000
  Fe  Fe128     1.0  0.52033  0.02599  0.14953  1.0000
  C   C1146     1.0  0.82459  0.01989  0.24585  1.0000
  H   H2035     1.0  0.67313  0.02794  0.31445  1.0000
  C   C1147     1.0  0.88999  0.82690  0.60375  1.0000
  C   C1148     1.0  0.87466  0.02580  0.33737  1.0000
  H   H2036     1.0  0.82589  0.89536  0.14870  1.0000
  H   H2037     1.0  0.48965  0.87847  0.30924  1.0000
  H   H2038     1.0  0.90777  0.81064  0.58669  1.0000
  H   H2039     1.0  0.89595  0.02429  0.30289  1.0000
  H   H2040     1.0  0.98091  0.03249  0.56918  1.0000
  H   H2041     1.0  0.56517  0.78427  0.27400  1.0000
  H   H2042     1.0  0.67451  0.03255  0.14836  1.0000
  H   H2043     1.0  0.83059  0.02720  0.20193  1.0000
  C   C1149     1.0  0.95093  0.03200  0.57466  1.0000
  H   H2044     1.0  0.86701  0.92629  0.13660  1.0000
  C   C1150     1.0  0.48691  0.84752  0.21068  1.0000
  C   C1151     1.0  0.67742  0.88372  0.12942  1.0000
  H   H2045     1.0  0.82062  0.84259  0.15595  1.0000
  H   H2046     1.0  0.77977  0.83279  0.13860  1.0000
  H   H2047     1.0  0.89530  0.96787  0.14282  1.0000
  C   C1152     1.0  0.96345  0.98162  0.61837  1.0000
  H   H2048     1.0  0.48704  0.97292  0.39033  1.0000
  S   S256      1.0  0.78183  0.02922  0.11998  1.0000
