data_image0
_chemical_formula_structural       FeCSCHCFeS2FeS2Fe2S3C2H3CH4C6H5CH5C2HCHCFeHCH4NHC2H6NH5CH8CH2CSHCHCHC3H4CH3CHCH2CSH2NH2C2HC2HC2H2CH8C3HCHCH7C2H3CHCH2CSCH2CH4CHFeS2Fe2SHCHC4H2CHCHCHCHFeS5C5H3C2H2CNC12H28C2H4CH2CHNHCHCH2CHC3H10CH2CH3CH6CHSHSH2SNHFeSFeS2FeSCFeSFeS3C3H3C2H2C6H5CH2CFeCH3CSC2HSC3H3CHCH4CH3CH3NCHC2HC2H4CH2CH8CH7C2H4CH3CHCH3S2FeS2FeSHFeSFeS3C3H3CH4C6H4CH3NC2H2CH3CH2CH3C3H2CH6CH4CH4CH3CHCNC8H4NH6CH5C3H2CHCH2C2HC2H3CH4CH3CFeCH2C2H7CNHCHC2H6FeS3FeSFeS2C3H5CH2C2H2FeS2C6HCH2C2H2CH4NSHCH3CH4CHC2HCH3CHC2H2C2H5CH14C2HCH5C2SH4C3HCH2CH2C2HSHSFeSH3FeS2FeS2FeSFeCS2CH3SHC2H2C6H6CH2CNC2HC3HCHC3H2C3HCSH2CHNCH7NH7C3H2CHCH4CH9CH3C3H2FeCH2CH3C4HCHCH2CFeH7SCHCH2SFeHSHCHSHFeS2FeS2FeSFeS2C4HC3HC7H6CHFeH3CNH4CH2C3H5CSHC3H4CH3CH10CH2CHCH3C2HCSHCNH2CH2CH3C2H2CHCHNCH2CH4CH6CH3C2H2C2HS2C4HC2H5FeSFeS2FeSFeS2C4H3CH2CHC2H2CH2CHCHCHCHCH2CH5C2H3CH2C2H11C2HNH2CH2CH3CNC6HCHCH14C2H2CH3CH3CH8CHCH2CS2FeSCFeS2FeSFeS3C3H2C2H2C7H6CHCHCH2FeH4CH2SCH2CH2NCH8CH2C2H4SNH6C2HC2HCHNCSCH5CH3CH2CH7CH3CHCHCHC2H3C3HCFeH3CH3CHCH2CHCH2C3H5S2CFeS2H2FeS2FeS2FeCFeS3C3H2CHCH2C6H4CHC2H3CSH2CH2CH2NC12H25CH8CHC3HCHNC2H7CH3CH4FeCH7CH2C3H2CHCH4CHCH2CH2FeS2C3H2CH4CHFeS3FeSFeS2C4HCH4C3HC3HCH5CH6NHCH2C3HC3H8NHCH2CH7NH7CHC3HCNCH2CHC2H7C3HC3H2C3HCH4C2HC2H2CH4SH12C2H2CFeS2FeSCFeS2FeSFeS3C2H3CH3C7H9CNC2HC4H2C2H3CH2CH7CNH11C2HCHSH3CH5CHCHCHCH2C2H2CHCH2C3HC2H2SCH4CHCHCH2CHC2H2CH4NH6CH2FeH3CH3CH
_chemical_formula_sum              "Fe64 C576 S128 H1024 N32"
_cell_length_a       37.0496
_cell_length_b       37.3064
_cell_length_c       41.6916
_cell_angle_alpha    87.9391
_cell_angle_beta     82.6791
_cell_angle_gamma    89.469

_space_group_name_H-M_alt    "P 1"
_space_group_IT_number       1

loop_
  _space_group_symop_operation_xyz
  'x, y, z'

loop_
  _atom_site_type_symbol
  _atom_site_label
  _atom_site_symmetry_multiplicity
  _atom_site_fract_x
  _atom_site_fract_y
  _atom_site_fract_z
  _atom_site_occupancy
  Fe  Fe1       1.0  0.31505  0.33835  0.05439  1.0000
  C   C1        1.0  0.12249  0.04963  0.32438  1.0000
  S   S1        1.0  0.31787  0.30458  0.10073  1.0000
  C   C2        1.0  0.45250  0.48816  0.03408  1.0000
  H   H1        1.0  0.44259  0.20646  0.10307  1.0000
  C   C3        1.0  0.23170  0.30130  0.27580  1.0000
  Fe  Fe2       1.0  0.18984  0.14351  0.27593  1.0000
  S   S2        1.0  0.14940  0.15714  0.31866  1.0000
  S   S3        1.0  0.22469  0.09371  0.28138  1.0000
  Fe  Fe3       1.0  0.17290  0.21133  0.23767  1.0000
  S   S4        1.0  0.13058  0.22908  0.27772  1.0000
  S   S5        1.0  0.17789  0.24935  0.19321  1.0000
  Fe  Fe4       1.0  0.17143  0.21313  0.31132  1.0000
  Fe  Fe5       1.0  0.11204  0.17196  0.28171  1.0000
  S   S6        1.0  0.05331  0.15284  0.29277  1.0000
  S   S7        1.0  0.21487  0.19890  0.27109  1.0000
  S   S8        1.0  0.15120  0.15472  0.23919  1.0000
  C   C4        1.0  0.18744  0.04755  0.24694  1.0000
  C   C5        1.0  0.21147  0.05102  0.26988  1.0000
  H   H2        1.0  0.31111  0.27028  0.22346  1.0000
  H   H3        1.0  0.17672  0.07129  0.23577  1.0000
  H   H4        1.0  0.10211  0.07102  0.33065  1.0000
  C   C6        1.0  0.52204  0.37018  0.02689  1.0000
  H   H5        1.0  0.05713  0.05734  0.30133  1.0000
  H   H6        1.0  0.42973  0.38187  0.03669  1.0000
  H   H7        1.0  0.31929  0.34362  0.18374  1.0000
  H   H8        1.0  0.05421  0.20328  0.23770  1.0000
  C   C7        1.0  0.27880  0.28922  0.12617  1.0000
  C   C8        1.0  0.28223  0.26112  0.14901  1.0000
  C   C9        1.0  0.25162  0.24838  0.16972  1.0000
  C   C10       1.0  0.21750  0.26424  0.16818  1.0000
  C   C11       1.0  0.21424  0.29250  0.14549  1.0000
  C   C12       1.0  0.24467  0.30483  0.12447  1.0000
  H   H9        1.0  0.30857  0.24887  0.15046  1.0000
  H   H10       1.0  0.25432  0.22618  0.18668  1.0000
  H   H11       1.0  0.18796  0.30500  0.14423  1.0000
  H   H12       1.0  0.24181  0.32680  0.10730  1.0000
  H   H13       1.0  0.27410  0.27182  0.04708  1.0000
  C   C13       1.0  0.31308  0.33485  0.31626  1.0000
  H   H14       1.0  0.12648  0.19020  0.12069  1.0000
  H   H15       1.0  0.34582  0.47852  0.04413  1.0000
  H   H16       1.0  0.20338  0.29202  0.07262  1.0000
  H   H17       1.0  0.39944  0.25461  0.12704  1.0000
  H   H18       1.0  0.18528  0.50910  0.13603  1.0000
  C   C14       1.0  0.30318  0.22362  0.05727  1.0000
  C   C15       1.0  0.40698  0.25396  0.10037  1.0000
  H   H19       1.0  0.44680  0.48102  0.08636  1.0000
  C   C16       1.0  0.40484  0.32877  0.12871  1.0000
  H   H20       1.0  0.25070  0.22069  0.34063  1.0000
  C   C17       1.0  0.16789  0.22508  0.06815  1.0000
  Fe  Fe6       1.0  0.30073  0.40971  0.01928  1.0000
  H   H21       1.0  0.04141  0.07677  0.24609  1.0000
  C   C18       1.0  0.38899  0.36677  0.12955  1.0000
  H   H22       1.0  0.21352  0.35750  0.26930  1.0000
  H   H23       1.0  0.16585  0.08128  0.33946  1.0000
  H   H24       1.0  0.17471  0.03388  0.33983  1.0000
  H   H25       1.0  0.24107  0.34537  0.21871  1.0000
  N   N1        1.0  0.43544  0.28193  0.08923  1.0000
  H   H26       1.0  0.23388  0.23944  0.08756  1.0000
  C   C19       1.0  0.48693  0.37782  0.04196  1.0000
  C   C20       1.0  0.41806  0.31843  0.09342  1.0000
  H   H27       1.0  0.45626  0.27482  0.13541  1.0000
  H   H28       1.0  0.39530  0.16095  0.10040  1.0000
  H   H29       1.0  0.18231  0.22724  0.11776  1.0000
  H   H30       1.0  0.38317  0.31032  0.14004  1.0000
  H   H31       1.0  0.42747  0.32805  0.14373  1.0000
  H   H32       1.0  0.28060  0.36528  0.25621  1.0000
  N   N2        1.0  0.27115  0.31099  0.27615  1.0000
  H   H33       1.0  0.38209  0.19041  0.13324  1.0000
  H   H34       1.0  0.20349  0.50942  0.09384  1.0000
  H   H35       1.0  0.17145  0.35013  0.06206  1.0000
  H   H36       1.0  0.33081  0.34641  0.29503  1.0000
  H   H37       1.0  0.15744  0.26599  0.10553  1.0000
  C   C21       1.0  0.12487  0.21994  0.12070  1.0000
  H   H38       1.0  0.30350  0.38770  0.33672  1.0000
  H   H39       1.0  0.03495  0.11366  0.21815  1.0000
  H   H40       1.0  0.40969  0.38651  0.11861  1.0000
  H   H41       1.0  0.36492  0.36851  0.11615  1.0000
  H   H42       1.0  0.38020  0.37388  0.15499  1.0000
  H   H43       1.0  0.26767  0.30652  0.20866  1.0000
  H   H44       1.0  0.12039  0.22822  0.14626  1.0000
  H   H45       1.0  0.26792  0.24961  0.23783  1.0000
  C   C22       1.0  0.43478  0.47019  0.06566  1.0000
  H   H46       1.0  0.27832  0.35506  0.16670  1.0000
  H   H47       1.0  0.17076  0.19537  0.06913  1.0000
  C   C23       1.0  0.16353  0.29964  0.03896  1.0000
  S   S9        1.0  0.26595  0.36126  0.03466  1.0000
  H   H48       1.0  0.13974  0.35241  0.03259  1.0000
  C   C24       1.0  0.41762  0.21464  0.09256  1.0000
  H   H49       1.0  0.48319  0.38507  0.06705  1.0000
  C   C25       1.0  0.23437  0.22954  0.06266  1.0000
  H   H50       1.0  0.50982  0.30762  0.07883  1.0000
  C   C26       1.0  0.16589  0.34054  0.03825  1.0000
  C   C27       1.0  0.29175  0.35569  0.18903  1.0000
  C   C28       1.0  0.31462  0.21930  0.24798  1.0000
  H   H51       1.0  0.48480  0.33348  0.10990  1.0000
  H   H52       1.0  0.32252  0.28279  0.27752  1.0000
  H   H53       1.0  0.43954  0.44078  0.06551  1.0000
  H   H54       1.0  0.30286  0.19449  0.05270  1.0000
  C   C29       1.0  0.04634  0.03224  0.31430  1.0000
  H   H55       1.0  0.29421  0.38412  0.19546  1.0000
  H   H56       1.0  0.40503  0.47552  0.06923  1.0000
  H   H57       1.0  0.39397  0.32080  0.08003  1.0000
  C   C30       1.0  0.27403  0.32808  0.30811  1.0000
  H   H58       1.0  0.30204  0.22740  0.08367  1.0000
  C   C31       1.0  0.33663  0.50327  0.03348  1.0000
  H   H59       1.0  0.25986  0.31140  0.32853  1.0000
  H   H60       1.0  0.22708  0.28971  0.25255  1.0000
  C   C32       1.0  0.19898  0.28222  0.04857  1.0000
  S   S10       1.0  0.34831  0.38872  0.04309  1.0000
  H   H61       1.0  0.42240  0.21108  0.06604  1.0000
  H   H62       1.0  0.41052  0.30768  0.02830  1.0000
  N   N3        1.0  0.20077  0.24182  0.04835  1.0000
  H   H63       1.0  0.39859  0.26142  0.03710  1.0000
  H   H64       1.0  0.38120  0.26014  0.09017  1.0000
  C   C33       1.0  0.16662  0.32312  0.27407  1.0000
  C   C34       1.0  0.42156  0.28002  0.02990  1.0000
  H   H65       1.0  0.29980  0.20275  0.26807  1.0000
  C   C35       1.0  0.02618  0.19820  0.24754  1.0000
  C   C36       1.0  0.16017  0.23649  0.10384  1.0000
  H   H66       1.0  0.22361  0.27953  0.29428  1.0000
  C   C37       1.0  0.29536  0.25531  0.24403  1.0000
  C   C38       1.0  0.26917  0.33438  0.21638  1.0000
  H   H67       1.0  0.15506  0.30030  0.28976  1.0000
  H   H68       1.0  0.05496  0.07224  0.20333  1.0000
  C   C39       1.0  0.29365  0.27698  0.27513  1.0000
  H   H69       1.0  0.23494  0.19979  0.06569  1.0000
  H   H70       1.0  0.34299  0.22340  0.25304  1.0000
  H   H71       1.0  0.31541  0.20433  0.22534  1.0000
  H   H72       1.0  0.46626  0.25302  0.05050  1.0000
  H   H73       1.0  0.28373  0.25888  0.29617  1.0000
  H   H74       1.0  0.25973  0.35447  0.30915  1.0000
  H   H75       1.0  0.14299  0.23044  0.05632  1.0000
  H   H76       1.0  0.14798  0.34645  0.27812  1.0000
  C   C40       1.0  0.28539  0.33703  0.24888  1.0000
  C   C41       1.0  0.46655  0.27711  0.10915  1.0000
  C   C42       1.0  0.38726  0.18890  0.10648  1.0000
  H   H77       1.0  0.16827  0.31596  0.24826  1.0000
  C   C43       1.0  0.15322  0.05456  0.34504  1.0000
  H   H78       1.0  0.31553  0.33447  0.24365  1.0000
  C   C44       1.0  0.20409  0.33248  0.28282  1.0000
  H   H79       1.0  0.13381  0.05404  0.29869  1.0000
  H   H80       1.0  0.32533  0.30922  0.32419  1.0000
  H   H81       1.0  0.48091  0.25132  0.10364  1.0000
  H   H82       1.0  0.20061  0.33794  0.30909  1.0000
  H   H83       1.0  0.10130  0.22929  0.10858  1.0000
  H   H84       1.0  0.43686  0.33951  0.08231  1.0000
  H   H85       1.0  0.36174  0.19548  0.09611  1.0000
  C   C45       1.0  0.49629  0.30659  0.10414  1.0000
  C   C46       1.0  0.45014  0.27821  0.05404  1.0000
  H   H86       1.0  0.46976  0.30004  0.04580  1.0000
  H   H87       1.0  0.32912  0.23509  0.04505  1.0000
  H   H88       1.0  0.19109  0.17260  0.02169  1.0000
  C   C47       1.0  0.27113  0.24258  0.04409  1.0000
  H   H89       1.0  0.48218  0.48295  0.03248  1.0000
  C   C48       1.0  0.03418  0.08396  0.22162  1.0000
  H   H90       1.0  0.13965  0.29170  0.05650  1.0000
  H   H91       1.0  0.22170  0.29390  0.03147  1.0000
  C   C49       1.0  0.31275  0.36057  0.34404  1.0000
  S   S11       1.0  0.27566  0.46560  0.02307  1.0000
  C   C50       1.0  0.45668  0.37604  0.02484  1.0000
  H   H92       1.0  0.24444  0.02237  0.30142  1.0000
  H   H93       1.0  0.44795  0.51747  0.03585  1.0000
  C   C51       1.0  0.30330  0.50420  0.02115  1.0000
  H   H94       1.0  0.18779  0.34999  0.01917  1.0000
  H   H95       1.0  0.51427  0.29911  0.15180  1.0000
  H   H96       1.0  0.10104  0.02604  0.26632  1.0000
  H   H97       1.0  0.27338  0.23767  0.01785  1.0000
  C   C52       1.0  0.03006  0.04144  0.34923  1.0000
  H   H98       1.0  0.02285  0.02459  0.30192  1.0000
  Fe  Fe7       1.0  0.33357  0.38325  0.49470  1.0000
  S   S12       1.0  0.36637  0.37314  0.44669  1.0000
  S   S13       1.0  0.30795  0.43537  0.51292  1.0000
  Fe  Fe8       1.0  0.40638  0.34664  0.47653  1.0000
  Fe  Fe9       1.0  0.33794  0.31956  0.44986  1.0000
  S   S14       1.0  0.32517  0.28793  0.40672  1.0000
  H   H99       1.0  0.51600  0.45422  0.50473  1.0000
  C   C53       1.0  0.41808  0.44078  0.56255  1.0000
  H   H100      1.0  0.42848  0.51860  0.51637  1.0000
  C   C54       1.0  0.25030  0.29297  0.40571  1.0000
  C   C55       1.0  0.28302  0.27605  0.39423  1.0000
  C   C56       1.0  0.28285  0.24990  0.37077  1.0000
  C   C57       1.0  0.31381  0.50867  0.51373  1.0000
  H   H101      1.0  0.42614  0.35519  0.59821  1.0000
  H   H102      1.0  0.25011  0.31330  0.42360  1.0000
  C   C58       1.0  0.52068  0.33559  0.53790  1.0000
  H   H103      1.0  0.26768  0.20992  0.65899  1.0000
  C   C59       1.0  0.25046  0.24096  0.35857  1.0000
  H   H104      1.0  0.19290  0.29808  0.40165  1.0000
  C   C60       1.0  0.32535  0.47737  0.49751  1.0000
  H   H105      1.0  0.47548  0.47532  0.57044  1.0000
  C   C61       1.0  0.35045  0.48016  0.46953  1.0000
  H   H106      1.0  0.38544  0.37831  0.58954  1.0000
  Fe  Fe10      1.0  0.34557  0.30797  0.52172  1.0000
  S   S15       1.0  0.38075  0.29264  0.47622  1.0000
  S   S16       1.0  0.33773  0.26561  0.56255  1.0000
  S   S17       1.0  0.46618  0.35875  0.46082  1.0000
  S   S18       1.0  0.37514  0.35988  0.52425  1.0000
  S   S19       1.0  0.30140  0.33192  0.49549  1.0000
  C   C62       1.0  0.29989  0.26304  0.59303  1.0000
  C   C63       1.0  0.29840  0.23502  0.61660  1.0000
  C   C64       1.0  0.26855  0.23168  0.64104  1.0000
  C   C65       1.0  0.24112  0.28413  0.61822  1.0000
  C   C66       1.0  0.27126  0.28782  0.59410  1.0000
  H   H107      1.0  0.32047  0.21575  0.61596  1.0000
  H   H108      1.0  0.21889  0.30319  0.61866  1.0000
  H   H109      1.0  0.27236  0.30979  0.57637  1.0000
  C   C67       1.0  0.49989  0.35515  0.48714  1.0000
  C   C68       1.0  0.49285  0.33871  0.51792  1.0000
  H   H110      1.0  0.46610  0.32795  0.52616  1.0000
  H   H111      1.0  0.35931  0.45632  0.45668  1.0000
  C   C69       1.0  0.23971  0.25618  0.64189  1.0000
  N   N4        1.0  0.23045  0.22530  0.50742  1.0000
  C   C70       1.0  0.21556  0.19767  0.48705  1.0000
  C   C71       1.0  0.22283  0.21350  0.54270  1.0000
  C   C72       1.0  0.20954  0.25978  0.50293  1.0000
  C   C73       1.0  0.27063  0.23231  0.49769  1.0000
  C   C74       1.0  0.29442  0.20000  0.48487  1.0000
  C   C75       1.0  0.21524  0.20903  0.45083  1.0000
  C   C76       1.0  0.21506  0.28985  0.52655  1.0000
  C   C77       1.0  0.24132  0.17842  0.55323  1.0000
  C   C78       1.0  0.22580  0.16643  0.58766  1.0000
  C   C79       1.0  0.33469  0.20966  0.47931  1.0000
  C   C80       1.0  0.20960  0.17690  0.43034  1.0000
  C   C81       1.0  0.20189  0.32622  0.51440  1.0000
  H   H112      1.0  0.18698  0.19091  0.49702  1.0000
  H   H113      1.0  0.23055  0.17190  0.48811  1.0000
  H   H114      1.0  0.23225  0.23402  0.55845  1.0000
  H   H115      1.0  0.19288  0.21104  0.54988  1.0000
  H   H116      1.0  0.17972  0.25449  0.50541  1.0000
  H   H117      1.0  0.21686  0.27131  0.47792  1.0000
  H   H118      1.0  0.27493  0.25369  0.47820  1.0000
  H   H119      1.0  0.28290  0.24324  0.51835  1.0000
  H   H120      1.0  0.28704  0.19175  0.46126  1.0000
  H   H121      1.0  0.29130  0.17636  0.50167  1.0000
  H   H122      1.0  0.19259  0.22825  0.44828  1.0000
  H   H123      1.0  0.24098  0.22238  0.44059  1.0000
  H   H124      1.0  0.24406  0.29211  0.52988  1.0000
  H   H125      1.0  0.19928  0.28379  0.55062  1.0000
  H   H126      1.0  0.23749  0.15600  0.53734  1.0000
  H   H127      1.0  0.27087  0.18315  0.55335  1.0000
  H   H128      1.0  0.22834  0.18808  0.60481  1.0000
  H   H129      1.0  0.19664  0.15918  0.58876  1.0000
  H   H130      1.0  0.24101  0.14258  0.59553  1.0000
  H   H131      1.0  0.33950  0.23112  0.46014  1.0000
  H   H132      1.0  0.34397  0.21872  0.50199  1.0000
  H   H133      1.0  0.35107  0.18582  0.47118  1.0000
  H   H134      1.0  0.20793  0.18626  0.40496  1.0000
  H   H135      1.0  0.23280  0.15782  0.43032  1.0000
  H   H136      1.0  0.18386  0.16290  0.43968  1.0000
  H   H137      1.0  0.21746  0.33419  0.49069  1.0000
  H   H138      1.0  0.17245  0.32522  0.51183  1.0000
  H   H139      1.0  0.20614  0.34697  0.53200  1.0000
  C   C82       1.0  0.47558  0.47367  0.54379  1.0000
  C   C83       1.0  0.36371  0.51399  0.45782  1.0000
  H   H140      1.0  0.45288  0.42275  0.50284  1.0000
  H   H141      1.0  0.28056  0.35309  0.66109  1.0000
  H   H142      1.0  0.38989  0.43554  0.55708  1.0000
  H   H143      1.0  0.44047  0.38837  0.54695  1.0000
  C   C84       1.0  0.41345  0.38207  0.59558  1.0000
  H   H144      1.0  0.51906  0.29450  0.42060  1.0000
  H   H145      1.0  0.43135  0.49241  0.46886  1.0000
  C   C85       1.0  0.50682  0.44770  0.53065  1.0000
  H   H146      1.0  0.46307  0.40834  0.57782  1.0000
  N   N5        1.0  0.43768  0.46528  0.53647  1.0000
  H   H147      1.0  0.48415  0.50081  0.53381  1.0000
  C   C86       1.0  0.43645  0.40427  0.56903  1.0000
  H   H148      1.0  0.30801  0.23657  0.36185  1.0000
  C   C87       1.0  0.21796  0.28436  0.39316  1.0000
  H   H149      1.0  0.41187  0.39542  0.61910  1.0000
  H   H150      1.0  0.43879  0.43431  0.43944  1.0000
  C   C88       1.0  0.21796  0.25860  0.36930  1.0000
  H   H151      1.0  0.18601  0.33394  0.66806  1.0000
  C   C89       1.0  0.31552  0.39850  0.65928  1.0000
  C   C90       1.0  0.46219  0.45103  0.44395  1.0000
  C   C91       1.0  0.43760  0.44843  0.50407  1.0000
  H   H152      1.0  0.50358  0.27876  0.46122  1.0000
  H   H153      1.0  0.49871  0.41922  0.53221  1.0000
  H   H154      1.0  0.29449  0.35049  0.36563  1.0000
  H   H155      1.0  0.41507  0.45368  0.58629  1.0000
  H   H156      1.0  0.51778  0.24675  0.43070  1.0000
  H   H157      1.0  0.46931  0.46949  0.42265  1.0000
  H   H158      1.0  0.40935  0.44067  0.50064  1.0000
  H   H159      1.0  0.05143  0.04926  0.36394  1.0000
  H   H160      1.0  0.14259  0.05285  0.37118  1.0000
  H   H161      1.0  0.48605  0.43348  0.44669  1.0000
  C   C92       1.0  0.45242  0.47264  0.47424  1.0000
  H   H162      1.0  0.32581  0.39491  0.63336  1.0000
  H   H163      1.0  0.38807  0.49410  0.52933  1.0000
  C   C93       1.0  0.41576  0.49970  0.53568  1.0000
  H   H164      1.0  0.32562  0.34376  0.67187  1.0000
  H   H165      1.0  0.33802  0.40897  0.67148  1.0000
  H   H166      1.0  0.47672  0.48795  0.47853  1.0000
  C   C94       1.0  0.30212  0.36252  0.67486  1.0000
  H   H167      1.0  0.29291  0.41839  0.66061  1.0000
  H   H168      1.0  0.29420  0.50674  0.53528  1.0000
  H   H169      1.0  0.38278  0.51598  0.43591  1.0000
  H   H170      1.0  0.51512  0.32258  0.56162  1.0000
  H   H171      1.0  0.09066  0.03574  0.65293  1.0000
  H   H172      1.0  0.30228  0.29055  0.67762  1.0000
  C   C95       1.0  0.08322  0.02971  0.67921  1.0000
  H   H173      1.0  0.39335  0.50683  0.58683  1.0000
  S   S20       1.0  0.20122  0.25270  0.67167  1.0000
  H   H174      1.0  0.34062  0.36272  0.35095  1.0000
  S   S21       1.0  0.17712  0.25011  0.35294  1.0000
  H   H175      1.0  0.33030  0.23091  0.68372  1.0000
  H   H176      1.0  0.31304  0.37236  0.72276  1.0000
  S   S22       1.0  0.32050  0.38853  0.97025  1.0000
  N   N6        1.0  0.45054  0.49045  0.97197  1.0000
  H   H177      1.0  0.50192  0.51061  0.98335  1.0000
  Fe  Fe11      1.0  0.28927  0.33840  0.98693  1.0000
  S   S23       1.0  0.24860  0.30688  0.96207  1.0000
  Fe  Fe12      1.0  0.21109  0.15137  0.75789  1.0000
  S   S24       1.0  0.18748  0.17375  0.80545  1.0000
  S   S25       1.0  0.23916  0.09707  0.75381  1.0000
  Fe  Fe13      1.0  0.19881  0.22075  0.71961  1.0000
  S   S26       1.0  0.17369  0.24852  0.76429  1.0000
  C   C96       1.0  0.29807  0.27656  0.70158  1.0000
  Fe  Fe14      1.0  0.21882  0.22403  0.78935  1.0000
  S   S27       1.0  0.25724  0.25684  0.81584  1.0000
  Fe  Fe15      1.0  0.14405  0.19656  0.77691  1.0000
  S   S28       1.0  0.08507  0.19433  0.79991  1.0000
  S   S29       1.0  0.24594  0.19982  0.74353  1.0000
  S   S30       1.0  0.16555  0.17043  0.73053  1.0000
  C   C97       1.0  0.15822  0.02602  0.74688  1.0000
  C   C98       1.0  0.21481  0.05800  0.74785  1.0000
  C   C99       1.0  0.17682  0.05798  0.75066  1.0000
  H   H178      1.0  0.24945  0.03911  0.86072  1.0000
  H   H179      1.0  0.16187  0.08257  0.75588  1.0000
  H   H180      1.0  0.18365  0.18851  0.96412  1.0000
  C   C100      1.0  0.04848  0.20258  0.77718  1.0000
  C   C101      1.0  0.05302  0.20209  0.74336  1.0000
  H   H181      1.0  0.38451  0.49512  0.94226  1.0000
  H   H182      1.0  0.07982  0.19783  0.73037  1.0000
  C   C102      1.0  0.25457  0.26915  0.85701  1.0000
  C   C103      1.0  0.28394  0.28766  0.86700  1.0000
  C   C104      1.0  0.28266  0.29935  0.89896  1.0000
  C   C105      1.0  0.25196  0.29249  0.92148  1.0000
  C   C106      1.0  0.22276  0.27357  0.91164  1.0000
  C   C107      1.0  0.22398  0.26199  0.87961  1.0000
  H   H183      1.0  0.30778  0.29326  0.84980  1.0000
  H   H184      1.0  0.30537  0.31376  0.90613  1.0000
  H   H185      1.0  0.19883  0.26814  0.92879  1.0000
  H   H186      1.0  0.20114  0.24790  0.87232  1.0000
  H   H187      1.0  0.45100  0.47721  0.92168  1.0000
  C   C108      1.0  0.23404  0.02597  0.74102  1.0000
  H   H188      1.0  0.38174  0.45529  0.96812  1.0000
  H   H189      1.0  0.23650  0.32327  0.77482  1.0000
  C   C109      1.0  0.46143  0.36724  0.99230  1.0000
  Fe  Fe16      1.0  0.36599  0.36428  0.99517  1.0000
  C   C110      1.0  0.43761  0.46840  0.94606  1.0000
  H   H190      1.0  0.15863  0.29178  0.01449  1.0000
  H   H191      1.0  0.28525  0.28476  0.75177  1.0000
  H   H192      1.0  0.09879  0.10223  0.78613  1.0000
  C   C111      1.0  0.29445  0.30241  0.73016  1.0000
  S   S31       1.0  0.33638  0.31233  0.00786  1.0000
  C   C112      1.0  0.39579  0.46777  0.94539  1.0000
  C   C113      1.0  0.28274  0.07160  0.82552  1.0000
  H   H193      1.0  0.10846  0.03046  0.69104  1.0000
  S   S32       1.0  0.42407  0.36516  0.97005  1.0000
  C   C114      1.0  0.38618  0.44588  0.91740  1.0000
  C   C115      1.0  0.43864  0.27045  0.99595  1.0000
  C   C116      1.0  0.49158  0.49139  0.96686  1.0000
  H   H194      1.0  0.23136  0.20001  0.95624  1.0000
  H   H195      1.0  0.50150  0.50188  0.94204  1.0000
  H   H196      1.0  0.35620  0.44590  0.91741  1.0000
  C   C117      1.0  0.21097  0.18302  0.97158  1.0000
  H   H197      1.0  0.22143  0.24704  0.99734  1.0000
  C   C118      1.0  0.07733  0.09985  0.76999  1.0000
  H   H198      1.0  0.21796  0.15444  0.96731  1.0000
  H   H199      1.0  0.08080  0.12241  0.75171  1.0000
  H   H200      1.0  0.44077  0.44401  0.00453  1.0000
  H   H201      1.0  0.12885  0.02610  0.74924  1.0000
  C   C119      1.0  0.20179  0.23052  0.01382  1.0000
  H   H202      1.0  0.26990  0.09736  0.83350  1.0000
  H   H203      1.0  0.08110  0.07400  0.75757  1.0000
  H   H204      1.0  0.46211  0.28817  0.98749  1.0000
  C   C120      1.0  0.49667  0.36038  0.97696  1.0000
  H   H205      1.0  0.39547  0.41764  0.92004  1.0000
  H   H206      1.0  0.28892  0.36455  0.83486  1.0000
  H   H207      1.0  0.32216  0.31161  0.73363  1.0000
  N   N7        1.0  0.26892  0.33415  0.72849  1.0000
  C   C121      1.0  0.23607  0.32390  0.71285  1.0000
  H   H208      1.0  0.22279  0.30001  0.72600  1.0000
  C   C122      1.0  0.25541  0.34429  0.76278  1.0000
  C   C123      1.0  0.28847  0.36609  0.71131  1.0000
  H   H209      1.0  0.02640  0.20625  0.70019  1.0000
  C   C124      1.0  0.20641  0.35334  0.71108  1.0000
  C   C125      1.0  0.28495  0.34988  0.78546  1.0000
  H   H210      1.0  0.29982  0.32451  0.78963  1.0000
  H   H211      1.0  0.41818  0.27418  0.97879  1.0000
  H   H212      1.0  0.44794  0.24207  0.99565  1.0000
  H   H213      1.0  0.06409  0.05078  0.68927  1.0000
  C   C126      1.0  0.26768  0.36241  0.81848  1.0000
  H   H214      1.0  0.39893  0.45764  0.89386  1.0000
  H   H215      1.0  0.44609  0.43989  0.94901  1.0000
  C   C127      1.0  0.17557  0.34043  0.69336  1.0000
  H   H216      1.0  0.16253  0.31620  0.70598  1.0000
  H   H217      1.0  0.29090  0.07398  0.79895  1.0000
  H   H218      1.0  0.23939  0.36964  0.76287  1.0000
  H   H219      1.0  0.27112  0.39054  0.71424  1.0000
  H   H220      1.0  0.24692  0.34289  0.82972  1.0000
  H   H221      1.0  0.50059  0.35367  0.95172  1.0000
  H   H222      1.0  0.35585  0.26450  0.70101  1.0000
  H   H223      1.0  0.19392  0.36048  0.73563  1.0000
  C   C128      1.0  0.32949  0.25009  0.70357  1.0000
  H   H224      1.0  0.30499  0.37045  0.77531  1.0000
  H   H225      1.0  0.27272  0.26076  0.70266  1.0000
  H   H226      1.0  0.23870  0.18367  0.01348  1.0000
  H   H227      1.0  0.30742  0.06710  0.83773  1.0000
  H   H228      1.0  0.26347  0.02605  0.73819  1.0000
  H   H229      1.0  0.32580  0.23458  0.72702  1.0000
  H   H230      1.0  0.25457  0.38909  0.81606  1.0000
  C   C129      1.0  0.25569  0.04097  0.83403  1.0000
  C   C130      1.0  0.51107  0.45473  0.97065  1.0000
  H   H231      1.0  0.17509  0.23587  0.00499  1.0000
  H   H232      1.0  0.50177  0.44095  0.99415  1.0000
  H   H233      1.0  0.40650  0.47680  0.00934  1.0000
  H   H234      1.0  0.23033  0.04865  0.82382  1.0000
  C   C131      1.0  0.03983  0.10169  0.78999  1.0000
  H   H235      1.0  0.50596  0.43680  0.95106  1.0000
  H   H236      1.0  0.03830  0.12767  0.80232  1.0000
  H   H237      1.0  0.03817  0.07990  0.80876  1.0000
  C   C132      1.0  0.43649  0.47351  0.00451  1.0000
  H   H238      1.0  0.15456  0.36178  0.69277  1.0000
  C   C133      1.0  0.21116  0.19063  0.00737  1.0000
  H   H239      1.0  0.24388  0.31511  0.68782  1.0000
  H   H240      1.0  0.21794  0.37780  0.69788  1.0000
  H   H241      1.0  0.40415  0.82039  0.06945  1.0000
  S   S33       1.0  0.25840  0.73633  0.06370  1.0000
  S   S34       1.0  0.36090  0.70263  0.04065  1.0000
  Fe  Fe17      1.0  0.14582  0.81424  0.26694  1.0000
  S   S35       1.0  0.17798  0.84142  0.22381  1.0000
  S   S36       1.0  0.09174  0.78734  0.26400  1.0000
  Fe  Fe18      1.0  0.20481  0.82675  0.31090  1.0000
  S   S37       1.0  0.24104  0.85621  0.27101  1.0000
  H   H242      1.0  0.35992  0.64426  0.09225  1.0000
  Fe  Fe19      1.0  0.18947  0.88340  0.25884  1.0000
  S   S38       1.0  0.17657  0.93997  0.24093  1.0000
  Fe  Fe20      1.0  0.22638  0.81211  0.23912  1.0000
  S   S39       1.0  0.27054  0.78174  0.20763  1.0000
  S   S40       1.0  0.15425  0.85745  0.30112  1.0000
  S   S41       1.0  0.19341  0.78136  0.27975  1.0000
  C   C134      1.0  0.19126  0.98214  0.25238  1.0000
  C   C135      1.0  0.34700  0.87808  0.07697  1.0000
  C   C136      1.0  0.21522  0.98552  0.27542  1.0000
  H   H243      1.0  0.35339  0.75956  0.27254  1.0000
  H   H244      1.0  0.22593  0.96175  0.28655  1.0000
  H   H245      1.0  0.33240  0.62175  0.12554  1.0000
  C   C137      1.0  0.05326  0.81491  0.26094  1.0000
  H   H246      1.0  0.25399  0.84312  0.06542  1.0000
  H   H247      1.0  0.12884  0.99240  0.32459  1.0000
  H   H248      1.0  0.07938  0.86363  0.27125  1.0000
  H   H249      1.0  0.19595  0.66879  0.34147  1.0000
  C   C138      1.0  0.26109  0.74624  0.10456  1.0000
  C   C139      1.0  0.29177  0.73732  0.11958  1.0000
  C   C140      1.0  0.29370  0.74734  0.15159  1.0000
  C   C141      1.0  0.26515  0.76657  0.16876  1.0000
  C   C142      1.0  0.23395  0.77444  0.15411  1.0000
  C   C143      1.0  0.23192  0.76418  0.12218  1.0000
  H   H250      1.0  0.31434  0.72337  0.10635  1.0000
  H   H251      1.0  0.31791  0.74111  0.16274  1.0000
  H   H252      1.0  0.21166  0.78902  0.16713  1.0000
  H   H253      1.0  0.20793  0.77095  0.11084  1.0000
  C   C144      1.0  0.31277  0.70212  0.24435  1.0000
  H   H254      1.0  0.36739  0.88370  0.09358  1.0000
  H   H255      1.0  0.22748  0.67120  0.10166  1.0000
  H   H256      1.0  0.34976  0.69989  0.28079  1.0000
  N   N8        1.0  0.23674  0.61664  0.08563  1.0000
  C   C145      1.0  0.27493  0.60469  0.08985  1.0000
  C   C146      1.0  0.35763  0.53458  0.03270  1.0000
  H   H257      1.0  0.34610  0.88354  0.02435  1.0000
  H   H258      1.0  0.28190  0.75957  0.27373  1.0000
  C   C147      1.0  0.30441  0.63419  0.08347  1.0000
  H   H259      1.0  0.25411  0.65946  0.05094  1.0000
  H   H260      1.0  0.31684  0.66566  0.28514  1.0000
  H   H261      1.0  0.22317  0.56664  0.06561  1.0000
  C   C148      1.0  0.33363  0.77420  0.28956  1.0000
  H   H262      1.0  0.03546  0.89733  0.32967  1.0000
  H   H263      1.0  0.28375  0.58260  0.07321  1.0000
  C   C149      1.0  0.33456  0.67648  0.22141  1.0000
  H   H264      1.0  0.22349  0.66350  0.19167  1.0000
  H   H265      1.0  0.25880  0.67163  0.31006  1.0000
  H   H266      1.0  0.33079  0.65534  0.33585  1.0000
  C   C150      1.0  0.23790  0.63441  0.05235  1.0000
  C   C151      1.0  0.06232  0.90161  0.33804  1.0000
  C   C152      1.0  0.22115  0.64310  0.11052  1.0000
  H   H267      1.0  0.31233  0.63796  0.05699  1.0000
  H   H268      1.0  0.29431  0.66035  0.09288  1.0000
  C   C153      1.0  0.31286  0.71175  0.33667  1.0000
  H   H269      1.0  0.15966  0.01090  0.21982  1.0000
  H   H270      1.0  0.21624  0.69366  0.15842  1.0000
  H   H271      1.0  0.31980  0.81163  0.25153  1.0000
  H   H272      1.0  0.32776  0.90126  0.07935  1.0000
  H   H273      1.0  0.31155  0.82854  0.29195  1.0000
  H   H274      1.0  0.19087  0.64182  0.11390  1.0000
  C   C154      1.0  0.22564  0.01988  0.28380  1.0000
  H   H275      1.0  0.34170  0.72069  0.33352  1.0000
  H   H276      1.0  0.38359  0.74805  0.10418  1.0000
  H   H277      1.0  0.09347  0.00930  0.20936  1.0000
  H   H278      1.0  0.28892  0.83185  0.34849  1.0000
  C   C155      1.0  0.23420  0.63990  0.14448  1.0000
  H   H279      1.0  0.37285  0.78776  0.05756  1.0000
  H   H280      1.0  0.30148  0.79898  0.06781  1.0000
  H   H281      1.0  0.27625  0.59280  0.11439  1.0000
  H   H282      1.0  0.28357  0.69872  0.24187  1.0000
  C   C156      1.0  0.33855  0.62369  0.09877  1.0000
  H   H283      1.0  0.18288  0.70496  0.31501  1.0000
  H   H284      1.0  0.38354  0.85730  0.03508  1.0000
  H   H285      1.0  0.32674  0.64823  0.22799  1.0000
  C   C157      1.0  0.21300  0.58387  0.08628  1.0000
  H   H286      1.0  0.34941  0.59756  0.08971  1.0000
  C   C158      1.0  0.39081  0.91410  0.03642  1.0000
  N   N9        1.0  0.32744  0.84337  0.08738  1.0000
  C   C159      1.0  0.31132  0.82638  0.06012  1.0000
  C   C160      1.0  0.35258  0.81686  0.10167  1.0000
  C   C161      1.0  0.29646  0.85103  0.11362  1.0000
  C   C162      1.0  0.30736  0.86283  0.14637  1.0000
  C   C163      1.0  0.38337  0.79998  0.07831  1.0000
  C   C164      1.0  0.40279  0.77011  0.09564  1.0000
  C   C165      1.0  0.27417  0.87559  0.16879  1.0000
  C   C166      1.0  0.19441  0.69838  0.33785  1.0000
  H   H287      1.0  0.36633  0.82939  0.12065  1.0000
  H   H288      1.0  0.33638  0.79442  0.11412  1.0000
  H   H289      1.0  0.27895  0.82689  0.11894  1.0000
  H   H290      1.0  0.27836  0.87248  0.10531  1.0000
  N   N10       1.0  0.29704  0.71587  0.30513  1.0000
  H   H291      1.0  0.32743  0.88496  0.14268  1.0000
  H   H292      1.0  0.31934  0.83985  0.15914  1.0000
  H   H293      1.0  0.36420  0.67973  0.22220  1.0000
  H   H294      1.0  0.24606  0.70850  0.28605  1.0000
  H   H295      1.0  0.33215  0.82206  0.03905  1.0000
  H   H296      1.0  0.41463  0.78065  0.11657  1.0000
  C   C167      1.0  0.25873  0.70147  0.30828  1.0000
  H   H297      1.0  0.08696  0.92798  0.29419  1.0000
  H   H298      1.0  0.26200  0.89994  0.15831  1.0000
  H   H299      1.0  0.25327  0.85417  0.17295  1.0000
  H   H300      1.0  0.28239  0.88221  0.19259  1.0000
  H   H301      1.0  0.04571  0.81834  0.33470  1.0000
  C   C168      1.0  0.29610  0.75522  0.29552  1.0000
  C   C169      1.0  0.32033  0.69497  0.27984  1.0000
  C   C170      1.0  0.33021  0.81220  0.27534  1.0000
  H   H302      1.0  0.32882  0.68251  0.19625  1.0000
  H   H303      1.0  0.26332  0.64724  0.14300  1.0000
  C   C171      1.0  0.05431  0.85161  0.26632  1.0000
  H   H304      1.0  0.27943  0.77039  0.31452  1.0000
  C   C172      1.0  0.21298  0.66548  0.16788  1.0000
  H   H305      1.0  0.34517  0.77643  0.31270  1.0000
  H   H306      1.0  0.35730  0.82525  0.27178  1.0000
  C   C173      1.0  0.17776  0.01329  0.23800  1.0000
  C   C174      1.0  0.27893  0.84704  0.04779  1.0000
  H   H307      1.0  0.32078  0.72979  0.23590  1.0000
  C   C175      1.0  0.20917  0.55991  0.11760  1.0000
  C   C176      1.0  0.20052  0.64517  0.04159  1.0000
  H   H308      1.0  0.41285  0.91212  0.05215  1.0000
  H   H309      1.0  0.42520  0.75886  0.07860  1.0000
  H   H310      1.0  0.18351  0.65989  0.06070  1.0000
  C   C177      1.0  0.36647  0.88102  0.04168  1.0000
  H   H311      1.0  0.06148  0.97466  0.20361  1.0000
  H   H312      1.0  0.18359  0.65865  0.17155  1.0000
  H   H313      1.0  0.18468  0.59164  0.08282  1.0000
  H   H314      1.0  0.23110  0.61239  0.15519  1.0000
  C   C178      1.0  0.08146  0.93409  0.32022  1.0000
  H   H315      1.0  0.10342  0.96279  0.21896  1.0000
  H   H316      1.0  0.25205  0.61680  0.03360  1.0000
  H   H317      1.0  0.37461  0.93888  0.04176  1.0000
  C   C179      1.0  0.05763  0.96838  0.32539  1.0000
  Fe  Fe21      1.0  0.30741  0.72247  0.02735  1.0000
  C   C180      1.0  0.23203  0.71510  0.33705  1.0000
  H   H318      1.0  0.05037  0.96133  0.26200  1.0000
  H   H319      1.0  0.03154  0.96373  0.31557  1.0000
  C   C181      1.0  0.08996  0.99984  0.27652  1.0000
  C   C182      1.0  0.08153  0.98341  0.21935  1.0000
  H   H320      1.0  0.11360  0.98107  0.27405  1.0000
  H   H321      1.0  0.16084  0.53202  0.10660  1.0000
  H   H322      1.0  0.28454  0.87621  0.04485  1.0000
  H   H323      1.0  0.38315  0.53385  0.04267  1.0000
  H   H324      1.0  0.19344  0.57434  0.13766  1.0000
  H   H325      1.0  0.23589  0.55154  0.12465  1.0000
  H   H326      1.0  0.22853  0.74450  0.33486  1.0000
  C   C183      1.0  0.06269  0.98755  0.25381  1.0000
  N   N11       1.0  0.07490  0.00304  0.31165  1.0000
  H   H327      1.0  0.18560  0.62096  0.03597  1.0000
  C   C184      1.0  0.10587  0.01155  0.33039  1.0000
  H   H328      1.0  0.50226  0.79857  0.02219  1.0000
  C   C185      1.0  0.18838  0.52558  0.11314  1.0000
  C   C186      1.0  0.34609  0.56681  0.01878  1.0000
  H   H329      1.0  0.04050  0.00745  0.25264  1.0000
  H   H330      1.0  0.07919  0.87720  0.33315  1.0000
  H   H331      1.0  0.10797  0.93704  0.32952  1.0000
  H   H332      1.0  0.02678  0.77556  0.34837  1.0000
  H   H333      1.0  0.26382  0.80438  0.01777  1.0000
  H   H334      1.0  0.02360  0.90091  0.27051  1.0000
  Fe  Fe22      1.0  0.36253  0.63996  0.48385  1.0000
  S   S42       1.0  0.40425  0.68097  0.46340  1.0000
  S   S43       1.0  0.37152  0.58673  0.45911  1.0000
  S   S44       1.0  0.36527  0.73630  0.51633  1.0000
  Fe  Fe23      1.0  0.35725  0.72006  0.46615  1.0000
  S   S45       1.0  0.35389  0.76173  0.42514  1.0000
  Fe  Fe24      1.0  0.40840  0.69326  0.51498  1.0000
  S   S46       1.0  0.45896  0.69659  0.54040  1.0000
  S   S47       1.0  0.31517  0.67829  0.48295  1.0000
  C   C187      1.0  0.31444  0.77401  0.40729  1.0000
  C   C188      1.0  0.28039  0.75911  0.41812  1.0000
  C   C189      1.0  0.24941  0.77081  0.40415  1.0000
  H   H335      1.0  0.34254  0.64914  0.63897  1.0000
  H   H336      1.0  0.09750  0.00764  0.35688  1.0000
  H   H337      1.0  0.52280  0.62141  0.47536  1.0000
  H   H338      1.0  0.27785  0.73897  0.43759  1.0000
  H   H339      1.0  0.22302  0.75974  0.41320  1.0000
  C   C190      1.0  0.31734  0.79990  0.38175  1.0000
  H   H340      1.0  0.23980  0.87560  0.59207  1.0000
  H   H341      1.0  0.30942  0.68839  0.40220  1.0000
  C   C191      1.0  0.32759  0.54248  0.50228  1.0000
  C   C192      1.0  0.35274  0.54520  0.47432  1.0000
  H   H342      1.0  0.35540  0.68434  0.38214  1.0000
  H   H343      1.0  0.31860  0.56642  0.51495  1.0000
  Fe  Fe25      1.0  0.32609  0.69221  0.53325  1.0000
  S   S48       1.0  0.27991  0.69926  0.57408  1.0000
  S   S49       1.0  0.36947  0.64991  0.53547  1.0000
  C   C193      1.0  0.27772  0.73641  0.59954  1.0000
  C   C194      1.0  0.30751  0.75903  0.60006  1.0000
  C   C195      1.0  0.30553  0.78704  0.62198  1.0000
  C   C196      1.0  0.27378  0.79277  0.64352  1.0000
  C   C197      1.0  0.24366  0.77074  0.64245  1.0000
  C   C198      1.0  0.24568  0.74268  0.62053  1.0000
  H   H344      1.0  0.33242  0.75438  0.58420  1.0000
  C   C199      1.0  0.22011  0.85350  0.59111  1.0000
  H   H345      1.0  0.36404  0.55324  0.55665  1.0000
  H   H346      1.0  0.22243  0.72541  0.62017  1.0000
  C   C200      1.0  0.50317  0.70484  0.52029  1.0000
  C   C201      1.0  0.51020  0.70853  0.48657  1.0000
  H   H347      1.0  0.48810  0.70651  0.47210  1.0000
  H   H348      1.0  0.03042  0.81031  0.37716  1.0000
  C   C202      1.0  0.23494  0.82674  0.56569  1.0000
  H   H349      1.0  0.26105  0.81637  0.57258  1.0000
  H   H350      1.0  0.31176  0.79755  0.49108  1.0000
  H   H351      1.0  0.21585  0.83973  0.61537  1.0000
  H   H352      1.0  0.19362  0.86482  0.58572  1.0000
  N   N12       1.0  0.25961  0.82297  0.50463  1.0000
  S   S50       1.0  0.21223  0.81277  0.36362  1.0000
  H   H353      1.0  0.39116  0.57328  0.58398  1.0000
  C   C203      1.0  0.47932  0.59514  0.50572  1.0000
  H   H354      1.0  0.30983  0.85841  0.54028  1.0000
  H   H355      1.0  0.29636  0.79329  0.53288  1.0000
  H   H356      1.0  0.05843  0.90532  0.36456  1.0000
  C   C204      1.0  0.31096  0.70085  0.68126  1.0000
  H   H357      1.0  0.04152  0.99287  0.67109  1.0000
  H   H358      1.0  0.38651  0.67015  0.63022  1.0000
  H   H359      1.0  0.47419  0.57099  0.52193  1.0000
  H   H360      1.0  0.46235  0.59350  0.48567  1.0000
  C   C205      1.0  0.39232  0.55742  0.56183  1.0000
  H   H361      1.0  0.21141  0.85084  0.52596  1.0000
  C   C206      1.0  0.51954  0.59732  0.49198  1.0000
  C   C207      1.0  0.26407  0.84623  0.47388  1.0000
  H   H362      1.0  0.20869  0.86957  0.47597  1.0000
  C   C208      1.0  0.23945  0.84452  0.53127  1.0000
  H   H363      1.0  0.34355  0.81171  0.37330  1.0000
  H   H364      1.0  0.21566  0.83092  0.45129  1.0000
  H   H365      1.0  0.25250  0.87114  0.53230  1.0000
  C   C209      1.0  0.23798  0.79019  0.49852  1.0000
  H   H366      1.0  0.22477  0.70054  0.52482  1.0000
  C   C210      1.0  0.32222  0.84367  0.51895  1.0000
  C   C211      1.0  0.35928  0.82986  0.52644  1.0000
  H   H367      1.0  0.24369  0.78302  0.47277  1.0000
  H   H368      1.0  0.47084  0.61946  0.51946  1.0000
  C   C212      1.0  0.23688  0.87986  0.42851  1.0000
  C   C213      1.0  0.35709  0.67516  0.63771  1.0000
  H   H369      1.0  0.20824  0.79607  0.50262  1.0000
  H   H370      1.0  0.32740  0.86272  0.49789  1.0000
  H   H371      1.0  0.34680  0.69294  0.61888  1.0000
  H   H372      1.0  0.37621  0.85272  0.53192  1.0000
  H   H373      1.0  0.27661  0.87236  0.47798  1.0000
  C   C214      1.0  0.25231  0.79673  0.37862  1.0000
  H   H374      1.0  0.21896  0.77507  0.65873  1.0000
  H   H375      1.0  0.24275  0.75877  0.54379  1.0000
  H   H376      1.0  0.32896  0.80399  0.62263  1.0000
  H   H377      1.0  0.21155  0.88475  0.41730  1.0000
  H   H378      1.0  0.24166  0.70839  0.36066  1.0000
  H   H379      1.0  0.25705  0.86707  0.41037  1.0000
  H   H380      1.0  0.21509  0.80449  0.56715  1.0000
  H   H381      1.0  0.19003  0.73381  0.52044  1.0000
  H   H382      1.0  0.24766  0.90605  0.43475  1.0000
  H   H383      1.0  0.28312  0.83309  0.45481  1.0000
  H   H384      1.0  0.35611  0.81100  0.54785  1.0000
  H   H385      1.0  0.32893  0.64476  0.39439  1.0000
  H   H386      1.0  0.37375  0.81617  0.50526  1.0000
  H   H387      1.0  0.23849  0.70173  0.67921  1.0000
  C   C215      1.0  0.21835  0.72569  0.51155  1.0000
  C   C216      1.0  0.24512  0.75492  0.51749  1.0000
  H   H388      1.0  0.40730  0.57323  0.54137  1.0000
  C   C217      1.0  0.22869  0.85543  0.45875  1.0000
  H   H389      1.0  0.08610  0.97310  0.67343  1.0000
  H   H390      1.0  0.29607  0.67558  0.67915  1.0000
  H   H391      1.0  0.27294  0.74473  0.50937  1.0000
  H   H392      1.0  0.22052  0.72017  0.48536  1.0000
  H   H393      1.0  0.29869  0.72983  0.35487  1.0000
  C   C218      1.0  0.29736  0.81240  0.51178  1.0000
  C   C219      1.0  0.28650  0.81112  0.36741  1.0000
  S   S51       1.0  0.27361  0.82682  0.67204  1.0000
  H   H394      1.0  0.30165  0.71956  0.66256  1.0000
  H   H395      1.0  0.08120  0.86627  0.64941  1.0000
  H   H396      1.0  0.05002  0.97006  0.35198  1.0000
  H   H397      1.0  0.36788  0.71789  0.66780  1.0000
  C   C220      1.0  0.02468  0.80485  0.35230  1.0000
  C   C221      1.0  0.35177  0.69280  0.67057  1.0000
  C   C222      1.0  0.32760  0.67277  0.38456  1.0000
  H   H398      1.0  0.11178  0.89191  0.66985  1.0000
  C   C223      1.0  0.31301  0.67315  0.35183  1.0000
  H   H399      1.0  0.17576  0.70933  0.35821  1.0000
  H   H400      1.0  0.43762  0.52664  0.57541  1.0000
  C   C224      1.0  0.08543  0.87747  0.67295  1.0000
  H   H401      1.0  0.05497  0.92518  0.66551  1.0000
  H   H402      1.0  0.28531  0.66153  0.35588  1.0000
  C   C225      1.0  0.41095  0.52131  0.56714  1.0000
  C   C226      1.0  0.05440  0.90316  0.68400  1.0000
  H   H403      1.0  0.18938  0.70675  0.74422  1.0000
  S   S52       1.0  0.38672  0.69491  0.96257  1.0000
  H   H404      1.0  0.06745  0.93112  0.83549  1.0000
  S   S53       1.0  0.33263  0.76156  0.98851  1.0000
  Fe  Fe26      1.0  0.33125  0.71636  0.95440  1.0000
  S   S54       1.0  0.31666  0.71890  0.90268  1.0000
  H   H405      1.0  0.23519  0.89565  0.92548  1.0000
  H   H406      1.0  0.31801  0.76024  0.76695  1.0000
  H   H407      1.0  0.19636  0.99276  0.84822  1.0000
  Fe  Fe27      1.0  0.14995  0.82311  0.74338  1.0000
  S   S55       1.0  0.17274  0.85959  0.70194  1.0000
  S   S56       1.0  0.09916  0.79308  0.73560  1.0000
  Fe  Fe28      1.0  0.20906  0.84259  0.78488  1.0000
  S   S57       1.0  0.23537  0.88130  0.74641  1.0000
  S   S58       1.0  0.22900  0.84207  0.83446  1.0000
  Fe  Fe29      1.0  0.17868  0.89933  0.74003  1.0000
  S   S59       1.0  0.15293  0.95447  0.73628  1.0000
  Fe  Fe30      1.0  0.22705  0.83793  0.71163  1.0000
  C   C227      1.0  0.27134  0.00515  0.81997  1.0000
  S   S60       1.0  0.15263  0.86399  0.78097  1.0000
  S   S61       1.0  0.20418  0.79806  0.75065  1.0000
  C   C228      1.0  0.17744  0.99392  0.74047  1.0000
  H   H408      1.0  0.30447  0.70393  0.76493  1.0000
  H   H409      1.0  0.26510  0.53775  0.99890  1.0000
  H   H410      1.0  0.23045  0.96942  0.73209  1.0000
  S   S62       1.0  0.43355  0.77385  0.00571  1.0000
  H   H411      1.0  0.26762  0.65479  0.75319  1.0000
  C   C229      1.0  0.05721  0.81367  0.74952  1.0000
  C   C230      1.0  0.05334  0.83320  0.77774  1.0000
  H   H412      1.0  0.34300  0.69011  0.73891  1.0000
  H   H413      1.0  0.07598  0.83527  0.79154  1.0000
  C   C231      1.0  0.29214  0.75344  0.88420  1.0000
  C   C232      1.0  0.28415  0.74942  0.85238  1.0000
  C   C233      1.0  0.26473  0.77615  0.83680  1.0000
  C   C234      1.0  0.25325  0.80733  0.85288  1.0000
  C   C235      1.0  0.26145  0.81146  0.88458  1.0000
  C   C236      1.0  0.28068  0.78466  0.90022  1.0000
  H   H414      1.0  0.29285  0.72535  0.83983  1.0000
  H   H415      1.0  0.25851  0.77258  0.81248  1.0000
  H   H416      1.0  0.25265  0.83542  0.89723  1.0000
  H   H417      1.0  0.28661  0.78812  0.92466  1.0000
  H   H418      1.0  0.08182  0.98209  0.73077  1.0000
  H   H419      1.0  0.43775  0.60230  0.95737  1.0000
  C   C237      1.0  0.44398  0.54892  0.93736  1.0000
  H   H420      1.0  0.36395  0.80315  0.73920  1.0000
  H   H421      1.0  0.46026  0.70458  0.98371  1.0000
  C   C238      1.0  0.33435  0.80920  0.74132  1.0000
  N   N13       1.0  0.24977  0.97164  0.83073  1.0000
  C   C239      1.0  0.26477  0.94198  0.80905  1.0000
  C   C240      1.0  0.21024  0.97887  0.82681  1.0000
  H   H422      1.0  0.44798  0.54503  0.98833  1.0000
  C   C241      1.0  0.25417  0.96352  0.86578  1.0000
  C   C242      1.0  0.23780  0.92787  0.88092  1.0000
  C   C243      1.0  0.30540  0.93214  0.80992  1.0000
  H   H423      1.0  0.13085  0.93322  0.81635  1.0000
  C   C244      1.0  0.18672  0.94638  0.82012  1.0000
  H   H424      1.0  0.40644  0.52922  0.97815  1.0000
  C   C245      1.0  0.24814  0.92090  0.91495  1.0000
  C   C246      1.0  0.31644  0.90019  0.78883  1.0000
  C   C247      1.0  0.21544  0.99393  0.73751  1.0000
  H   H425      1.0  0.26114  0.94921  0.78346  1.0000
  H   H426      1.0  0.24933  0.91676  0.81471  1.0000
  C   C248      1.0  0.43629  0.52846  0.97057  1.0000
  C   C249      1.0  0.04541  0.94075  0.82162  1.0000
  C   C250      1.0  0.51771  0.70395  0.98769  1.0000
  H   H427      1.0  0.20817  0.99777  0.80581  1.0000
  C   C251      1.0  0.48272  0.71920  0.99103  1.0000
  S   S63       1.0  0.30197  0.67874  0.99235  1.0000
  H   H428      1.0  0.24781  0.90469  0.86648  1.0000
  H   H429      1.0  0.20768  0.92909  0.88326  1.0000
  C   C252      1.0  0.29704  0.65375  0.74403  1.0000
  H   H430      1.0  0.31067  0.92455  0.83487  1.0000
  N   N14       1.0  0.03454  0.94904  0.72919  1.0000
  C   C253      1.0  0.19502  0.70867  0.71739  1.0000
  H   H431      1.0  0.19454  0.93802  0.79484  1.0000
  H   H432      1.0  0.19018  0.92275  0.83622  1.0000
  H   H433      1.0  0.30112  0.63999  0.72073  1.0000
  H   H434      1.0  0.23918  0.67090  0.71279  1.0000
  H   H435      1.0  0.14135  0.97992  0.80825  1.0000
  H   H436      1.0  0.27810  0.91781  0.91408  1.0000
  H   H437      1.0  0.23856  0.94318  0.93092  1.0000
  N   N15       1.0  0.30149  0.71640  0.71425  1.0000
  H   H438      1.0  0.31251  0.90650  0.76325  1.0000
  H   H439      1.0  0.04926  0.89296  0.73469  1.0000
  H   H440      1.0  0.30001  0.87623  0.79777  1.0000
  H   H441      1.0  0.43296  0.60074  0.91496  1.0000
  H   H442      1.0  0.02997  0.79507  0.71058  1.0000
  H   H443      1.0  0.27414  0.00883  0.79313  1.0000
  H   H444      1.0  0.29961  0.00258  0.82617  1.0000
  C   C254      1.0  0.23474  0.69932  0.70603  1.0000
  C   C255      1.0  0.14634  0.95610  0.82386  1.0000
  C   C256      1.0  0.26118  0.72496  0.72006  1.0000
  H   H445      1.0  0.13639  0.96167  0.84946  1.0000
  H   H446      1.0  0.25208  0.72711  0.74645  1.0000
  C   C257      1.0  0.31256  0.56792  0.00671  1.0000
  H   H447      1.0  0.07979  0.95970  0.77940  1.0000
  C   C258      1.0  0.31518  0.63067  0.76855  1.0000
  H   H448      1.0  0.32684  0.82512  0.76318  1.0000
  H   H449      1.0  0.43252  0.53468  0.91810  1.0000
  H   H450      1.0  0.34559  0.89361  0.78977  1.0000
  H   H451      1.0  0.08644  0.92120  0.72085  1.0000
  C   C259      1.0  0.05810  0.93941  0.78527  1.0000
  H   H452      1.0  0.32848  0.82563  0.71982  1.0000
  H   H453      1.0  0.24136  0.98494  0.88127  1.0000
  H   H454      1.0  0.36300  0.67433  0.68828  1.0000
  H   H455      1.0  0.28314  0.78247  0.74728  1.0000
  H   H456      1.0  0.47365  0.55233  0.93020  1.0000
  H   H457      1.0  0.48551  0.74639  0.90474  1.0000
  H   H458      1.0  0.08655  0.85487  0.69085  1.0000
  H   H459      1.0  0.35193  0.74600  0.71291  1.0000
  H   H460      1.0  0.07036  0.91258  0.78042  1.0000
  C   C260      1.0  0.31224  0.77461  0.74441  1.0000
  H   H461      1.0  0.31133  0.64290  0.79270  1.0000
  H   H462      1.0  0.17684  0.68973  0.70728  1.0000
  H   H463      1.0  0.30272  0.60358  0.77103  1.0000
  C   C261      1.0  0.29099  0.53681  0.00834  1.0000
  C   C262      1.0  0.31280  0.69212  0.74098  1.0000
  C   C263      1.0  0.05556  0.98324  0.72062  1.0000
  H   H464      1.0  0.34476  0.62764  0.76043  1.0000
  H   H465      1.0  0.25579  0.75179  0.70891  1.0000
  Fe  Fe31      1.0  0.35720  0.66110  0.00332  1.0000
  C   C264      1.0  0.20512  0.66922  0.01090  1.0000
  H   H466      1.0  0.28344  0.96392  0.86931  1.0000
  H   H467      1.0  0.29415  0.83766  0.99643  1.0000
  C   C265      1.0  0.32217  0.75118  0.71439  1.0000
  H   H468      1.0  0.32327  0.95488  0.80057  1.0000
  H   H469      1.0  0.39675  0.58450  0.94475  1.0000
  H   H470      1.0  0.30354  0.59253  0.99566  1.0000
  C   C266      1.0  0.42680  0.58636  0.93879  1.0000
  C   C267      1.0  0.02720  0.81036  0.73233  1.0000
  C   C268      1.0  0.05724  0.91662  0.71845  1.0000
  C   C269      1.0  0.50655  0.77206  0.01267  1.0000
  H   H471      1.0  0.21861  0.69476  0.01527  1.0000
  C   C270      1.0  0.02566  0.94652  0.76561  1.0000
  H   H472      1.0  0.04092  0.00650  0.73224  1.0000
  C   C271      1.0  0.51321  0.73435  0.90090  1.0000
  H   H473      1.0  0.18848  0.73624  0.70884  1.0000
  H   H474      1.0  0.24675  0.84814  0.00773  1.0000
  C   C272      1.0  0.47702  0.75347  0.00316  1.0000
  Fe  Fe32      1.0  0.38619  0.73771  0.99913  1.0000
  H   H475      1.0  0.22155  0.65540  0.99078  1.0000
  H   H476      1.0  0.51332  0.70972  0.91670  1.0000
  H   H477      1.0  0.51921  0.72700  0.87519  1.0000
  H   H478      1.0  0.17803  0.67579  0.00346  1.0000
  H   H479      1.0  0.40353  0.91596  0.01081  1.0000
  H   H480      1.0  0.31837  0.76814  0.69252  1.0000
  H   H481      1.0  0.03828  0.96868  0.82838  1.0000
  S   S64       1.0  0.37508  0.60445  0.01624  1.0000
  C   C273      1.0  0.27054  0.83341  0.01543  1.0000
  H   H482      1.0  0.52190  0.67766  0.97766  1.0000
  C   C274      1.0  0.06570  0.99263  0.68424  1.0000
  H   H483      1.0  0.02835  0.88848  0.68423  1.0000
  H   H484      1.0  0.86445  0.39491  0.07328  1.0000
  S   S65       1.0  0.55863  0.37024  0.05017  1.0000
  Fe  Fe33      1.0  0.69590  0.36487  0.04067  1.0000
  H   H485      1.0  0.92314  0.16913  0.15900  1.0000
  S   S66       1.0  0.73430  0.36145  0.07921  1.0000
  H   H486      1.0  0.68922  0.44023  0.14829  1.0000
  C   C275      1.0  0.79891  0.17513  0.06015  1.0000
  H   H487      1.0  0.87516  0.09208  0.26332  1.0000
  S   S67       1.0  0.65522  0.41014  0.04298  1.0000
  H   H488      1.0  0.80615  0.43606  0.11695  1.0000
  Fe  Fe34      1.0  0.79408  0.21727  0.20717  1.0000
  S   S68       1.0  0.76125  0.20287  0.25525  1.0000
  S   S69       1.0  0.76821  0.21959  0.16022  1.0000
  Fe  Fe35      1.0  0.86601  0.21632  0.23686  1.0000
  S   S70       1.0  0.83875  0.20240  0.28668  1.0000
  S   S71       1.0  0.92654  0.22674  0.22416  1.0000
  Fe  Fe36      1.0  0.80641  0.16353  0.26179  1.0000
  S   S72       1.0  0.79848  0.10829  0.28579  1.0000
  Fe  Fe37      1.0  0.79613  0.24279  0.27623  1.0000
  S   S73       1.0  0.83672  0.17467  0.21253  1.0000
  S   S74       1.0  0.82586  0.25998  0.22756  1.0000
  C   C276      1.0  0.80547  0.06918  0.26312  1.0000
  C   C277      1.0  0.80670  0.03574  0.27952  1.0000
  C   C278      1.0  0.81032  0.07076  0.22927  1.0000
  C   C279      1.0  0.95741  0.28943  0.32210  1.0000
  H   H489      1.0  0.80934  0.09638  0.21641  1.0000
  C   C280      1.0  0.96120  0.20720  0.24466  1.0000
  C   C281      1.0  0.95332  0.18501  0.27239  1.0000
  C   C282      1.0  0.92721  0.13035  0.19836  1.0000
  H   H490      1.0  0.92534  0.18007  0.28217  1.0000
  C   C283      1.0  0.90430  0.09641  0.26586  1.0000
  C   C284      1.0  0.74213  0.32197  0.10231  1.0000
  C   C285      1.0  0.72862  0.28869  0.09523  1.0000
  C   C286      1.0  0.73692  0.25759  0.11313  1.0000
  C   C287      1.0  0.75808  0.25957  0.13875  1.0000
  C   C288      1.0  0.77108  0.29298  0.14614  1.0000
  C   C289      1.0  0.76329  0.32397  0.12787  1.0000
  H   H491      1.0  0.71164  0.28700  0.07613  1.0000
  H   H492      1.0  0.72652  0.23190  0.10742  1.0000
  H   H493      1.0  0.78732  0.29487  0.16581  1.0000
  H   H494      1.0  0.77349  0.34964  0.13380  1.0000
  H   H495      1.0  0.67862  0.47248  0.11749  1.0000
  H   H496      1.0  0.93709  0.02465  0.26294  1.0000
  C   C290      1.0  0.79509  0.50326  0.07910  1.0000
  H   H497      1.0  0.93624  0.09852  0.30648  1.0000
  Fe  Fe38      1.0  0.61698  0.37073  0.02574  1.0000
  H   H498      1.0  0.99092  0.07786  0.19285  1.0000
  H   H499      1.0  0.87149  0.35290  0.33077  1.0000
  H   H500      1.0  0.91753  0.34330  0.28578  1.0000
  C   C291      1.0  0.91993  0.03704  0.24541  1.0000
  N   N16       1.0  0.78096  0.47235  0.06194  1.0000
  H   H501      1.0  0.90819  0.12576  0.26294  1.0000
  H   H502      1.0  0.88917  0.13449  0.16245  1.0000
  H   H503      1.0  0.90109  0.22213  0.32099  1.0000
  H   H504      1.0  0.73064  0.25897  0.02732  1.0000
  C   C292      1.0  0.69401  0.44751  0.12204  1.0000
  H   H505      1.0  0.78657  0.24519  0.04502  1.0000
  H   H506      1.0  0.88880  0.08628  0.20670  1.0000
  C   C293      1.0  0.89729  0.32666  0.27575  1.0000
  C   C294      1.0  0.01834  0.17533  0.27478  1.0000
  C   C295      1.0  0.91250  0.31830  0.24104  1.0000
  H   H507      1.0  0.86082  0.28292  0.29127  1.0000
  H   H508      1.0  0.90680  0.27031  0.28835  1.0000
  H   H509      1.0  0.93254  0.07480  0.18761  1.0000
  H   H510      1.0  0.74408  0.47382  0.12662  1.0000
  H   H511      1.0  0.72373  0.48532  0.06998  1.0000
  C   C296      1.0  0.99771  0.21398  0.23254  1.0000
  S   S75       1.0  0.77504  0.28809  0.30896  1.0000
  H   H512      1.0  0.82795  0.44053  0.04308  1.0000
  C   C297      1.0  0.86044  0.32714  0.34205  1.0000
  C   C298      1.0  0.80554  0.43982  0.06368  1.0000
  C   C299      1.0  0.99646  0.06974  0.21757  1.0000
  H   H513      1.0  0.83432  0.32317  0.33208  1.0000
  H   H514      1.0  0.89288  0.30208  0.22977  1.0000
  H   H515      1.0  0.91756  0.34365  0.22646  1.0000
  H   H516      1.0  0.93863  0.30335  0.24053  1.0000
  C   C300      1.0  0.98181  0.16904  0.28732  1.0000
  H   H517      1.0  0.85718  0.39379  0.11692  1.0000
  H   H518      1.0  0.68147  0.18881  0.34714  1.0000
  H   H519      1.0  0.68358  0.42536  0.10869  1.0000
  C   C301      1.0  0.87996  0.10186  0.32539  1.0000
  H   H520      1.0  0.00405  0.23128  0.21120  1.0000
  H   H521      1.0  0.73278  0.43990  0.06225  1.0000
  H   H522      1.0  0.97427  0.07275  0.26725  1.0000
  H   H523      1.0  0.97560  0.15172  0.30862  1.0000
  H   H524      1.0  0.79579  0.30202  0.03916  1.0000
  H   H525      1.0  0.96233  0.30376  0.29817  1.0000
  H   H526      1.0  0.79398  0.19194  0.08182  1.0000
  H   H527      1.0  0.84648  0.45479  0.09447  1.0000
  H   H528      1.0  0.80307  0.03435  0.30570  1.0000
  H   H529      1.0  0.87225  0.34317  0.27490  1.0000
  C   C302      1.0  0.84361  0.39737  0.09475  1.0000
  H   H530      1.0  0.99757  0.04006  0.21981  1.0000
  H   H531      1.0  0.91140  0.05731  0.30610  1.0000
  C   C303      1.0  0.96736  0.08434  0.24383  1.0000
  H   H532      1.0  0.74824  0.42693  0.11668  1.0000
  C   C304      1.0  0.73474  0.45277  0.11155  1.0000
  H   H533      1.0  0.95449  0.26069  0.31738  1.0000
  H   H534      1.0  0.82327  0.37565  0.09478  1.0000
  H   H535      1.0  0.85437  0.08684  0.32463  1.0000
  C   C305      1.0  0.74225  0.46301  0.07507  1.0000
  C   C306      1.0  0.52590  0.29916  0.12590  1.0000
  H   H536      1.0  0.53940  0.27297  0.12043  1.0000
  C   C307      1.0  0.82506  0.43416  0.09432  1.0000
  S   S76       1.0  0.65604  0.32434  0.02805  1.0000
  H   H537      1.0  0.97156  0.11370  0.24529  1.0000
  C   C308      1.0  0.81542  0.03899  0.21202  1.0000
  N   N17       1.0  0.92823  0.07676  0.24006  1.0000
  H   H538      1.0  0.79637  0.49624  0.10499  1.0000
  H   H539      1.0  0.81842  0.04034  0.18586  1.0000
  C   C309      1.0  0.91031  0.08670  0.30134  1.0000
  H   H540      1.0  0.93572  0.12460  0.14603  1.0000
  H   H541      1.0  0.95646  0.13623  0.19861  1.0000
  C   C310      1.0  0.99167  0.29336  0.33854  1.0000
  H   H542      1.0  0.87517  0.13070  0.31972  1.0000
  H   H543      1.0  0.91110  0.14852  0.21508  1.0000
  H   H544      1.0  0.98026  0.06554  0.33536  1.0000
  C   C311      1.0  0.91844  0.09037  0.20766  1.0000
  C   C312      1.0  0.91822  0.14005  0.16433  1.0000
  H   H545      1.0  0.79966  0.36638  0.02607  1.0000
  H   H546      1.0  0.67246  0.22789  0.03375  1.0000
  C   C313      1.0  0.88778  0.29209  0.29700  1.0000
  H   H547      1.0  0.75033  0.19223  0.04168  1.0000
  C   C314      1.0  0.77978  0.19128  0.03254  1.0000
  H   H548      1.0  0.82370  0.50916  0.06855  1.0000
  N   N18       1.0  0.88656  0.29663  0.33299  1.0000
  C   C315      1.0  0.79378  0.22952  0.02290  1.0000
  H   H549      1.0  0.67255  0.48572  0.03587  1.0000
  H   H550      1.0  0.92777  0.33485  0.34207  1.0000
  C   C316      1.0  0.92338  0.30531  0.34279  1.0000
  H   H551      1.0  0.70390  0.23139  0.34722  1.0000
  H   H552      1.0  0.01552  0.28264  0.32280  1.0000
  H   H553      1.0  0.99673  0.32203  0.34269  1.0000
  H   H554      1.0  0.54688  0.32050  0.12146  1.0000
  C   C317      1.0  0.89457  0.22870  0.34674  1.0000
  H   H555      1.0  0.82868  0.17288  0.05264  1.0000
  H   H556      1.0  0.79005  0.41496  0.06090  1.0000
  H   H557      1.0  0.75791  0.31747  0.01943  1.0000
  H   H558      1.0  0.78805  0.14790  0.06707  1.0000
  H   H559      1.0  0.89126  0.03290  0.25686  1.0000
  H   H560      1.0  0.66047  0.22866  0.33206  1.0000
  C   C318      1.0  0.68212  0.51066  0.02402  1.0000
  H   H561      1.0  0.84383  0.25731  0.34322  1.0000
  H   H562      1.0  0.01672  0.09705  0.33745  1.0000
  H   H563      1.0  0.82404  0.22879  0.01915  1.0000
  C   C319      1.0  0.00300  0.07257  0.34886  1.0000
  C   C320      1.0  0.78173  0.48387  0.02670  1.0000
  H   H564      1.0  0.76251  0.50647  0.02374  1.0000
  H   H565      1.0  0.84293  0.02688  0.10705  1.0000
  C   C321      1.0  0.87101  0.26305  0.35063  1.0000
  C   C322      1.0  0.67699  0.21795  0.35073  1.0000
  H   H566      1.0  0.88743  0.09898  0.35031  1.0000
  S   S77       1.0  0.67233  0.36786  0.48417  1.0000
  S   S78       1.0  0.73904  0.28320  0.46256  1.0000
  C   C323      1.0  0.60621  0.49764  0.48958  1.0000
  C   C324      1.0  0.74883  0.28515  0.41987  1.0000
  C   C325      1.0  0.74414  0.31664  0.40164  1.0000
  C   C326      1.0  0.52337  0.27366  0.43948  1.0000
  H   H567      1.0  0.89794  0.24153  0.60019  1.0000
  C   C327      1.0  0.76926  0.25432  0.36987  1.0000
  C   C328      1.0  0.76134  0.25402  0.40384  1.0000
  H   H568      1.0  0.73456  0.34079  0.41369  1.0000
  H   H569      1.0  0.87531  0.33221  0.39144  1.0000
  H   H570      1.0  0.88660  0.20578  0.62917  1.0000
  H   H571      1.0  0.76485  0.22949  0.41777  1.0000
  H   H572      1.0  0.58947  0.37593  0.48830  1.0000
  Fe  Fe39      1.0  0.64942  0.35562  0.53575  1.0000
  S   S79       1.0  0.59008  0.34343  0.55285  1.0000
  Fe  Fe40      1.0  0.72384  0.35951  0.56046  1.0000
  S   S80       1.0  0.75230  0.37228  0.51031  1.0000
  S   S81       1.0  0.75818  0.35931  0.60229  1.0000
  Fe  Fe41      1.0  0.70512  0.40962  0.50515  1.0000
  S   S82       1.0  0.71263  0.46372  0.47855  1.0000
  Fe  Fe42      1.0  0.71733  0.32965  0.49358  1.0000
  S   S83       1.0  0.67903  0.40014  0.55630  1.0000
  S   S84       1.0  0.69210  0.31417  0.54421  1.0000
  C   C329      1.0  0.75939  0.32381  0.63160  1.0000
  C   C330      1.0  0.73669  0.29396  0.63246  1.0000
  C   C331      1.0  0.73924  0.26584  0.65555  1.0000
  C   C332      1.0  0.78423  0.32543  0.65438  1.0000
  H   H573      1.0  0.71721  0.29250  0.61530  1.0000
  H   H574      1.0  0.72168  0.24278  0.65586  1.0000
  H   H575      1.0  0.62625  0.21582  0.51005  1.0000
  C   C333      1.0  0.69602  0.50366  0.53312  1.0000
  H   H576      1.0  0.92430  0.29678  0.36856  1.0000
  H   H577      1.0  0.63430  0.50270  0.47754  1.0000
  C   C334      1.0  0.70701  0.50385  0.49977  1.0000
  H   H578      1.0  0.68958  0.47861  0.54631  1.0000
  C   C335      1.0  0.56270  0.36542  0.49654  1.0000
  C   C336      1.0  0.55578  0.34857  0.52719  1.0000
  H   H579      1.0  0.86923  0.20150  0.39108  1.0000
  H   H580      1.0  0.80865  0.30986  0.54625  1.0000
  C   C337      1.0  0.85072  0.33338  0.37878  1.0000
  H   H581      1.0  0.86684  0.13132  0.53960  1.0000
  H   H582      1.0  0.67286  0.24745  0.44489  1.0000
  C   C338      1.0  0.86560  0.25656  0.64489  1.0000
  H   H583      1.0  0.79139  0.16789  0.58750  1.0000
  C   C339      1.0  0.81130  0.25160  0.55378  1.0000
  H   H584      1.0  0.59356  0.47734  0.47572  1.0000
  C   C340      1.0  0.82811  0.25366  0.58599  1.0000
  H   H585      1.0  0.89253  0.17235  0.36162  1.0000
  C   C341      1.0  0.86004  0.19627  0.57180  1.0000
  H   H586      1.0  0.74818  0.34136  0.35371  1.0000
  C   C342      1.0  0.78686  0.29722  0.67741  1.0000
  H   H587      1.0  0.63093  0.20991  0.38678  1.0000
  H   H588      1.0  0.80493  0.21764  0.64190  1.0000
  C   C343      1.0  0.87519  0.22978  0.61735  1.0000
  H   H589      1.0  0.83325  0.24805  0.53333  1.0000
  H   H590      1.0  0.88075  0.21180  0.55527  1.0000
  H   H591      1.0  0.78106  0.28470  0.52246  1.0000
  H   H592      1.0  0.85889  0.14376  0.59823  1.0000
  H   H593      1.0  0.59541  0.33820  0.39879  1.0000
  C   C344      1.0  0.75960  0.16167  0.63387  1.0000
  C   C345      1.0  0.87499  0.19658  0.36479  1.0000
  H   H594      1.0  0.56399  0.25572  0.46851  1.0000
  H   H595      1.0  0.99160  0.07862  0.37403  1.0000
  H   H596      1.0  0.54885  0.47898  0.54896  1.0000
  C   C346      1.0  0.64484  0.23903  0.50985  1.0000
  H   H597      1.0  0.80773  0.37226  0.37203  1.0000
  H   H598      1.0  0.56244  0.43405  0.53759  1.0000
  C   C347      1.0  0.81641  0.19968  0.62260  1.0000
  C   C348      1.0  0.78222  0.45560  0.54060  1.0000
  H   H599      1.0  0.83649  0.47552  0.53774  1.0000
  H   H600      1.0  0.82934  0.17754  0.63572  1.0000
  H   H601      1.0  0.80671  0.48741  0.57340  1.0000
  H   H602      1.0  0.64047  0.25094  0.53410  1.0000
  H   H603      1.0  0.82368  0.37249  0.41105  1.0000
  H   H604      1.0  0.73552  0.15191  0.62346  1.0000
  H   H605      1.0  0.62495  0.39713  0.38857  1.0000
  H   H606      1.0  0.80252  0.51582  0.50326  1.0000
  H   H607      1.0  0.79032  0.42967  0.55163  1.0000
  H   H608      1.0  0.83902  0.18891  0.55656  1.0000
  H   H609      1.0  0.67408  0.21068  0.40215  1.0000
  C   C349      1.0  0.89050  0.13851  0.55195  1.0000
  C   C350      1.0  0.83230  0.36980  0.38472  1.0000
  H   H610      1.0  0.67355  0.22970  0.50523  1.0000
  N   N19       1.0  0.84427  0.21948  0.59914  1.0000
  H   H611      1.0  0.86639  0.26667  0.37714  1.0000
  H   H612      1.0  0.80705  0.26485  0.60449  1.0000
  C   C351      1.0  0.76455  0.26714  0.67789  1.0000
  H   H613      1.0  0.76677  0.28939  0.56493  1.0000
  H   H614      1.0  0.84921  0.27497  0.58109  1.0000
  C   C352      1.0  0.79081  0.28605  0.54650  1.0000
  H   H615      1.0  0.56581  0.30280  0.45672  1.0000
  H   H616      1.0  0.80185  0.34846  0.65393  1.0000
  H   H617      1.0  0.79207  0.22904  0.55414  1.0000
  C   C353      1.0  0.87815  0.16053  0.58164  1.0000
  N   N20       1.0  0.62984  0.27424  0.42243  1.0000
  C   C354      1.0  0.63592  0.31355  0.42727  1.0000
  C   C355      1.0  0.64285  0.25179  0.44972  1.0000
  C   C356      1.0  0.65259  0.26454  0.39111  1.0000
  C   C357      1.0  0.59057  0.26639  0.41920  1.0000
  C   C358      1.0  0.56210  0.27552  0.44827  1.0000
  C   C359      1.0  0.62496  0.34003  0.40058  1.0000
  H   H618      1.0  0.83114  0.31270  0.38994  1.0000
  C   C360      1.0  0.63700  0.26726  0.48415  1.0000
  H   H619      1.0  0.63047  0.22459  0.45097  1.0000
  C   C361      1.0  0.63284  0.37878  0.40809  1.0000
  H   H620      1.0  0.66524  0.31800  0.42940  1.0000
  H   H621      1.0  0.62102  0.32243  0.45039  1.0000
  H   H622      1.0  0.68052  0.27581  0.38994  1.0000
  H   H623      1.0  0.90266  0.16554  0.59354  1.0000
  H   H624      1.0  0.85221  0.28114  0.63633  1.0000
  H   H625      1.0  0.58691  0.23741  0.41542  1.0000
  H   H626      1.0  0.85136  0.39192  0.37611  1.0000
  H   H627      1.0  0.66233  0.38235  0.40957  1.0000
  H   H628      1.0  0.75426  0.46213  0.55179  1.0000
  H   H629      1.0  0.84734  0.24377  0.66519  1.0000
  H   H630      1.0  0.76583  0.20732  0.60125  1.0000
  H   H631      1.0  0.65608  0.28978  0.48531  1.0000
  H   H632      1.0  0.60918  0.27768  0.49099  1.0000
  H   H633      1.0  0.91454  0.24456  0.66727  1.0000
  C   C362      1.0  0.78317  0.18480  0.60852  1.0000
  C   C363      1.0  0.80870  0.48493  0.54682  1.0000
  H   H634      1.0  0.61698  0.38635  0.43130  1.0000
  H   H635      1.0  0.58248  0.28013  0.39707  1.0000
  C   C364      1.0  0.65742  0.22385  0.38472  1.0000
  H   H636      1.0  0.92777  0.10129  0.68150  1.0000
  H   H637      1.0  0.91818  0.28348  0.63991  1.0000
  H   H638      1.0  0.84891  0.19130  0.35535  1.0000
  C   C365      1.0  0.75189  0.31689  0.36767  1.0000
  H   H639      1.0  0.53276  0.44065  0.57451  1.0000
  H   H640      1.0  0.78217  0.45230  0.51423  1.0000
  H   H641      1.0  0.90371  0.11329  0.55957  1.0000
  C   C366      1.0  0.89977  0.26827  0.65859  1.0000
  H   H642      1.0  0.91048  0.15377  0.53465  1.0000
  H   H643      1.0  0.60784  0.48644  0.51440  1.0000
  H   H644      1.0  0.89211  0.28581  0.67937  1.0000
  H   H645      1.0  0.92020  0.23207  0.35744  1.0000
  H   H646      1.0  0.54043  0.38148  0.45281  1.0000
  H   H647      1.0  0.64050  0.33470  0.37669  1.0000
  H   H648      1.0  0.74980  0.17752  0.65535  1.0000
  H   H649      1.0  0.64088  0.27675  0.36996  1.0000
  C   C367      1.0  0.53970  0.45073  0.54909  1.0000
  H   H650      1.0  0.77524  0.13808  0.64170  1.0000
  C   C368      1.0  0.53483  0.36870  0.47660  1.0000
  H   H651      1.0  0.77877  0.23016  0.35781  1.0000
  H   H652      1.0  0.98901  0.27793  0.36200  1.0000
  C   C369      1.0  0.76460  0.28582  0.35163  1.0000
  S   S85       1.0  0.63374  0.38406  0.97314  1.0000
  S   S86       1.0  0.68328  0.29810  0.93819  1.0000
  Fe  Fe43      1.0  0.81160  0.22060  0.73846  1.0000
  S   S87       1.0  0.79374  0.20026  0.78969  1.0000
  C   C370      1.0  0.92522  0.14213  0.86346  1.0000
  Fe  Fe44      1.0  0.89248  0.21528  0.74717  1.0000
  S   S88       1.0  0.88029  0.19608  0.79872  1.0000
  S   S89       1.0  0.95001  0.21693  0.72088  1.0000
  Fe  Fe45      1.0  0.83938  0.16028  0.78087  1.0000
  S   S90       1.0  0.83954  0.10297  0.80076  1.0000
  Fe  Fe46      1.0  0.83604  0.23776  0.80288  1.0000
  S   S91       1.0  0.83056  0.27466  0.84534  1.0000
  S   S92       1.0  0.85378  0.17717  0.72877  1.0000
  S   S93       1.0  0.85150  0.26052  0.75212  1.0000
  C   C371      1.0  0.84165  0.06751  0.77382  1.0000
  C   C372      1.0  0.77997  0.46710  0.96841  1.0000
  C   C373      1.0  0.82870  0.07144  0.74381  1.0000
  H   H653      1.0  0.71368  0.22463  0.96483  1.0000
  H   H654      1.0  0.81814  0.09708  0.73625  1.0000
  C   C374      1.0  0.98772  0.21218  0.74292  1.0000
  C   C375      1.0  0.98336  0.21318  0.77667  1.0000
  H   H655      1.0  0.84551  0.33484  0.78468  1.0000
  H   H656      1.0  0.95677  0.21796  0.78974  1.0000
  C   C376      1.0  0.69032  0.34750  0.74264  1.0000
  C   C377      1.0  0.72441  0.29203  0.91260  1.0000
  C   C378      1.0  0.75420  0.31452  0.91338  1.0000
  C   C379      1.0  0.78673  0.30857  0.89288  1.0000
  C   C380      1.0  0.78952  0.28048  0.87116  1.0000
  C   C381      1.0  0.75963  0.25815  0.87018  1.0000
  C   C382      1.0  0.72722  0.26387  0.89093  1.0000
  H   H657      1.0  0.75216  0.33653  0.92970  1.0000
  H   H658      1.0  0.80973  0.32608  0.89357  1.0000
  H   H659      1.0  0.76152  0.23643  0.85356  1.0000
  H   H660      1.0  0.70418  0.24644  0.89016  1.0000
  H   H661      1.0  0.84404  0.21005  0.96973  1.0000
  H   H662      1.0  0.79080  0.29694  0.96571  1.0000
  C   C383      1.0  0.77035  0.32969  0.79290  1.0000
  H   H663      1.0  0.55385  0.35565  0.98236  1.0000
  C   C384      1.0  0.01356  0.20820  0.79370  1.0000
  H   H664      1.0  0.67229  0.23658  0.79047  1.0000
  C   C385      1.0  0.71241  0.36278  0.80870  1.0000
  H   H665      1.0  0.70597  0.41551  0.85565  1.0000
  H   H666      1.0  0.74133  0.44993  0.00864  1.0000
  Fe  Fe47      1.0  0.67584  0.34065  0.97615  1.0000
  H   H667      1.0  0.90571  0.12707  0.81999  1.0000
  H   H668      1.0  0.83727  0.34305  0.00430  1.0000
  H   H669      1.0  0.97790  0.09957  0.71449  1.0000
  H   H670      1.0  0.71608  0.08477  0.79381  1.0000
  C   C386      1.0  0.78820  0.22768  0.96356  1.0000
  H   H671      1.0  0.76393  0.08483  0.79817  1.0000
  H   H672      1.0  0.55900  0.47605  0.98878  1.0000
  S   S94       1.0  0.71849  0.37802  0.98885  1.0000
  C   C387      1.0  0.95933  0.05823  0.79231  1.0000
  H   H673      1.0  0.68165  0.30245  0.80041  1.0000
  H   H674      1.0  0.73126  0.10116  0.82999  1.0000
  C   C388      1.0  0.83431  0.19980  0.92120  1.0000
  H   H675      1.0  0.71799  0.28916  0.82173  1.0000
  H   H676      1.0  0.78401  0.30947  0.77648  1.0000
  N   N21       1.0  0.97020  0.09677  0.78463  1.0000
  C   C389      1.0  0.67419  0.22828  0.00694  1.0000
  H   H677      1.0  0.70980  0.21116  0.77068  1.0000
  H   H678      1.0  0.91647  0.10885  0.77109  1.0000
  H   H679      1.0  0.77272  0.31856  0.81760  1.0000
  H   H680      1.0  0.86532  0.03100  0.80655  1.0000
  H   H681      1.0  0.71250  0.27363  0.75023  1.0000
  H   H682      1.0  0.94982  0.14173  0.75759  1.0000
  H   H683      1.0  0.74547  0.36121  0.84937  1.0000
  H   H684      1.0  0.97118  0.14766  0.80729  1.0000
  C   C390      1.0  0.83164  0.35778  0.79743  1.0000
  H   H685      1.0  0.72193  0.38989  0.79952  1.0000
  H   H686      1.0  0.84183  0.24934  0.94333  1.0000
  C   C391      1.0  0.94993  0.09573  0.72715  1.0000
  C   C392      1.0  0.94558  0.11220  0.76121  1.0000
  H   H687      1.0  0.82947  0.35216  0.82396  1.0000
  H   H688      1.0  0.56540  0.43280  0.97116  1.0000
  H   H689      1.0  0.67621  0.37142  0.75346  1.0000
  H   H690      1.0  0.00989  0.20883  0.81984  1.0000
  S   S95       1.0  0.76816  0.22990  0.70495  1.0000
  N   N22       1.0  0.77922  0.24796  0.99434  1.0000
  H   H691      1.0  0.77538  0.24153  0.94367  1.0000
  H   H692      1.0  0.70424  0.04052  0.83918  1.0000
  H   H693      1.0  0.92930  0.05649  0.79912  1.0000
  H   H694      1.0  0.74215  0.37060  0.74651  1.0000
  H   H695      1.0  0.70582  0.33308  0.85581  1.0000
  H   H696      1.0  0.94371  0.06668  0.72886  1.0000
  C   C393      1.0  0.82828  0.04173  0.72398  1.0000
  C   C394      1.0  0.71656  0.35916  0.84531  1.0000
  H   H697      1.0  0.92030  0.09013  0.84407  1.0000
  C   C395      1.0  0.92700  0.11776  0.83458  1.0000
  C   C396      1.0  0.73621  0.08068  0.81122  1.0000
  H   H698      1.0  0.93103  0.17036  0.85507  1.0000
  C   C397      1.0  0.55222  0.45946  0.96877  1.0000
  H   H699      1.0  0.82026  0.21211  0.90146  1.0000
  N   N23       1.0  0.73087  0.33394  0.78792  1.0000
  C   C398      1.0  0.70231  0.23303  0.78772  1.0000
  S   S96       1.0  0.68552  0.47540  0.96644  1.0000
  C   C399      1.0  0.71174  0.29886  0.79748  1.0000
  H   H700      1.0  0.89747  0.14112  0.87715  1.0000
  H   H701      1.0  0.79967  0.35883  0.98362  1.0000
  H   H702      1.0  0.76666  0.49325  0.96378  1.0000
  H   H703      1.0  0.82743  0.28130  0.98637  1.0000
  H   H704      1.0  0.94514  0.13325  0.87992  1.0000
  C   C400      1.0  0.78754  0.31174  0.01572  1.0000
  H   H705      1.0  0.74530  0.32493  0.73683  1.0000
  H   H706      1.0  0.80983  0.46976  0.96175  1.0000
  H   H707      1.0  0.77631  0.20044  0.96602  1.0000
  C   C401      1.0  0.96510  0.11916  0.81436  1.0000
  H   H708      1.0  0.56350  0.47228  0.94521  1.0000
  H   H709      1.0  0.82348  0.17240  0.92730  1.0000
  C   C402      1.0  0.00901  0.09963  0.76816  1.0000
  H   H710      1.0  0.98471  0.11164  0.83143  1.0000
  H   H711      1.0  0.73015  0.27837  0.98800  1.0000
  H   H712      1.0  0.81751  0.04467  0.70109  1.0000
  H   H713      1.0  0.75094  0.26242  0.77087  1.0000
  H   H714      1.0  0.76972  0.44703  0.95275  1.0000
  H   H715      1.0  0.67344  0.32363  0.75043  1.0000
  H   H716      1.0  0.79776  0.37215  0.76102  1.0000
  C   C403      1.0  0.72128  0.26761  0.77432  1.0000
  H   H717      1.0  0.69894  0.38505  0.89042  1.0000
  H   H718      1.0  0.65739  0.20608  0.99992  1.0000
  H   H719      1.0  0.78146  0.38680  0.80101  1.0000
  C   C404      1.0  0.69555  0.38861  0.86437  1.0000
  H   H720      1.0  0.75119  0.04118  0.84595  1.0000
  C   C405      1.0  0.72909  0.34413  0.75283  1.0000
  H   H721      1.0  0.86374  0.19763  0.91213  1.0000
  C   C406      1.0  0.77105  0.45486  0.00389  1.0000
  H   H722      1.0  0.66604  0.38710  0.86216  1.0000
  C   C407      1.0  0.82916  0.22303  0.95096  1.0000
  C   C408      1.0  0.79391  0.36408  0.78711  1.0000
  H   H723      1.0  0.84860  0.38208  0.79150  1.0000
  H   H724      1.0  0.68265  0.36309  0.80705  1.0000
  H   H725      1.0  0.89524  0.10873  0.71652  1.0000
  C   C409      1.0  0.92385  0.11327  0.70569  1.0000
  C   C410      1.0  0.85513  0.03413  0.78342  1.0000
  C   C411      1.0  0.79729  0.28421  0.98887  1.0000
  H   H726      1.0  0.78533  0.42904  0.00709  1.0000
  C   C412      1.0  0.73268  0.04309  0.82713  1.0000
  Fe  Fe48      1.0  0.67474  0.42040  0.99047  1.0000
  H   H727      1.0  0.71092  0.22499  0.81153  1.0000
  H   H728      1.0  0.92906  0.14254  0.70252  1.0000
  H   H729      1.0  0.00621  0.03023  0.80849  1.0000
  C   C413      1.0  0.80733  0.34714  0.00671  1.0000
  H   H730      1.0  0.96497  0.04203  0.77044  1.0000
  H   H731      1.0  0.70877  0.37545  0.69650  1.0000
  H   H732      1.0  0.72256  0.19654  0.99858  1.0000
  C   C414      1.0  0.73848  0.25377  0.00124  1.0000
  H   H733      1.0  0.97955  0.05411  0.84024  1.0000
  C   C415      1.0  0.52690  0.36164  0.99423  1.0000
  H   H734      1.0  0.80931  0.49406  0.01691  1.0000
  H   H735      1.0  0.66416  0.35576  0.69914  1.0000
  C   C416      1.0  0.97819  0.03796  0.81868  1.0000
  H   H736      1.0  0.80643  0.29858  0.69449  1.0000
  C   C417      1.0  0.69202  0.35187  0.70588  1.0000
  H   H737      1.0  0.78459  0.17307  0.01199  1.0000
  H   H738      1.0  0.01232  0.12462  0.75246  1.0000
  C   C418      1.0  0.68942  0.51309  0.99029  1.0000
  C   C419      1.0  0.02270  0.20680  0.72632  1.0000
  C   C420      1.0  0.71356  0.22368  0.99154  1.0000
  H   H739      1.0  0.70389  0.32745  0.69412  1.0000
  H   H740      1.0  0.66274  0.25390  0.99830  1.0000
  H   H741      1.0  0.01544  0.07697  0.75167  1.0000
  H   H742      1.0  0.76746  0.02075  0.78685  1.0000
  H   H743      1.0  0.81208  0.77634  0.32732  1.0000
  S   S97       1.0  0.65855  0.69944  0.05529  1.0000
  S   S98       1.0  0.70867  0.60927  0.05159  1.0000
  C   C421      1.0  0.92360  0.01346  0.21523  1.0000
  Fe  Fe49      1.0  0.69948  0.74436  0.04836  1.0000
  S   S99       1.0  0.70173  0.78144  0.09068  1.0000
  S   S100      1.0  0.74506  0.70909  0.02681  1.0000
  H   H744      1.0  0.70030  0.68248  0.24752  1.0000
  H   H745      1.0  0.76628  0.91420  0.05180  1.0000
  Fe  Fe50      1.0  0.83611  0.83311  0.21733  1.0000
  S   S101      1.0  0.79087  0.86717  0.24126  1.0000
  S   S102      1.0  0.83060  0.79321  0.17795  1.0000
  Fe  Fe51      1.0  0.89422  0.86870  0.25226  1.0000
  S   S103      1.0  0.85262  0.90491  0.27851  1.0000
  S   S104      1.0  0.95084  0.88485  0.26137  1.0000
  Fe  Fe52      1.0  0.81726  0.85606  0.28656  1.0000
  C   C422      1.0  0.79624  0.94692  0.09974  1.0000
  Fe  Fe53      1.0  0.83055  0.91284  0.23141  1.0000
  S   S105      1.0  0.82100  0.96615  0.20602  1.0000
  S   S106      1.0  0.86029  0.81888  0.26356  1.0000
  S   S107      1.0  0.87410  0.87958  0.20442  1.0000
  C   C423      1.0  0.99007  0.85742  0.25932  1.0000
  C   C424      1.0  0.98930  0.82099  0.25266  1.0000
  C   C425      1.0  0.76430  0.88840  0.10012  1.0000
  H   H746      1.0  0.96456  0.80921  0.24668  1.0000
  H   H747      1.0  0.77383  0.55013  0.05315  1.0000
  C   C426      1.0  0.02070  0.79968  0.25398  1.0000
  H   H748      1.0  0.77165  0.96036  0.09190  1.0000
  C   C427      1.0  0.88131  0.86824  0.11833  1.0000
  H   H749      1.0  0.81243  0.97836  0.27519  1.0000
  H   H750      1.0  0.83749  0.85916  0.09099  1.0000
  C   C428      1.0  0.73816  0.78502  0.11427  1.0000
  C   C429      1.0  0.77370  0.77456  0.10286  1.0000
  C   C430      1.0  0.80173  0.77755  0.12252  1.0000
  C   C431      1.0  0.79473  0.79148  0.15360  1.0000
  C   C432      1.0  0.75928  0.80225  0.16489  1.0000
  C   C433      1.0  0.73125  0.79930  0.14523  1.0000
  H   H751      1.0  0.77959  0.76399  0.07891  1.0000
  H   H752      1.0  0.82905  0.76899  0.11359  1.0000
  H   H753      1.0  0.75334  0.81222  0.18904  1.0000
  H   H754      1.0  0.70401  0.80792  0.15419  1.0000
  C   C434      1.0  0.68738  0.54053  0.04252  1.0000
  H   H755      1.0  0.68196  0.53825  0.06857  1.0000
  C   C435      1.0  0.77514  0.88857  0.06286  1.0000
  C   C436      1.0  0.91246  0.74129  0.29294  1.0000
  H   H756      1.0  0.76583  0.86022  0.10966  1.0000
  H   H757      1.0  0.89302  0.96856  0.23990  1.0000
  H   H758      1.0  0.87436  0.84542  0.13578  1.0000
  C   C437      1.0  0.75672  0.85809  0.04765  1.0000
  S   S108      1.0  0.78498  0.84964  0.33647  1.0000
  H   H759      1.0  0.73475  0.89537  0.10324  1.0000
  H   H760      1.0  0.79904  0.98629  0.13775  1.0000
  C   C438      1.0  0.75988  0.92407  0.14874  1.0000
  H   H761      1.0  0.69464  0.92521  0.19116  1.0000
  H   H762      1.0  0.73809  0.94225  0.14138  1.0000
  C   C439      1.0  0.84754  0.88175  0.10401  1.0000
  H   H763      1.0  0.80863  0.86870  0.14473  1.0000
  H   H764      1.0  0.92782  0.73954  0.26834  1.0000
  N   N24       1.0  0.69851  0.66221  0.14958  1.0000
  C   C440      1.0  0.68337  0.69907  0.14279  1.0000
  C   C441      1.0  0.73384  0.65597  0.12788  1.0000
  C   C442      1.0  0.67124  0.63501  0.14159  1.0000
  C   C443      1.0  0.70365  0.65655  0.18471  1.0000
  C   C444      1.0  0.72890  0.68343  0.19837  1.0000
  C   C445      1.0  0.64594  0.70839  0.16195  1.0000
  C   C446      1.0  0.68353  0.59503  0.14238  1.0000
  C   C447      1.0  0.75863  0.68877  0.11807  1.0000
  C   C448      1.0  0.79555  0.67724  0.10075  1.0000
  C   C449      1.0  0.72810  0.67762  0.23494  1.0000
  C   C450      1.0  0.63412  0.74657  0.15358  1.0000
  C   C451      1.0  0.65399  0.57074  0.13276  1.0000
  H   H765      1.0  0.68066  0.70242  0.11663  1.0000
  H   H766      1.0  0.70241  0.72054  0.14723  1.0000
  H   H767      1.0  0.75028  0.63471  0.13874  1.0000
  H   H768      1.0  0.72823  0.64575  0.10426  1.0000
  H   H769      1.0  0.66348  0.64128  0.11695  1.0000
  H   H770      1.0  0.64572  0.63629  0.15871  1.0000
  H   H771      1.0  0.67688  0.65637  0.20021  1.0000
  H   H772      1.0  0.71555  0.62960  0.18891  1.0000
  H   H773      1.0  0.72082  0.71167  0.19395  1.0000
  H   H774      1.0  0.75745  0.67928  0.18741  1.0000
  H   H775      1.0  0.62432  0.69040  0.15592  1.0000
  H   H776      1.0  0.64716  0.70646  0.18839  1.0000
  H   H777      1.0  0.68891  0.58611  0.16697  1.0000
  H   H778      1.0  0.70848  0.59047  0.12526  1.0000
  H   H779      1.0  0.74557  0.70651  0.10092  1.0000
  H   H780      1.0  0.76343  0.70468  0.13897  1.0000
  H   H781      1.0  0.81231  0.70133  0.09312  1.0000
  H   H782      1.0  0.81036  0.66011  0.11713  1.0000
  H   H783      1.0  0.79198  0.66229  0.07879  1.0000
  H   H784      1.0  0.73688  0.64988  0.24094  1.0000
  H   H785      1.0  0.81856  0.57225  0.08785  1.0000
  H   H786      1.0  0.72365  0.87687  0.15685  1.0000
  H   H787      1.0  0.60715  0.75243  0.16730  1.0000
  H   H788      1.0  0.65399  0.76629  0.16003  1.0000
  H   H789      1.0  0.63179  0.74974  0.12731  1.0000
  C   C452      1.0  0.81605  0.00551  0.22846  1.0000
  H   H790      1.0  0.62876  0.57257  0.15016  1.0000
  H   H791      1.0  0.67010  0.79859  0.32970  1.0000
  H   H792      1.0  0.85646  0.90392  0.08654  1.0000
  H   H793      1.0  0.72214  0.85120  0.29697  1.0000
  H   H794      1.0  0.98345  0.81402  0.32148  1.0000
  H   H795      1.0  0.69240  0.88882  0.29197  1.0000
  H   H796      1.0  0.74702  0.69671  0.24394  1.0000
  H   H797      1.0  0.76703  0.83174  0.05587  1.0000
  C   C453      1.0  0.71663  0.90811  0.19938  1.0000
  H   H798      1.0  0.64763  0.57846  0.10808  1.0000
  C   C454      1.0  0.91966  0.97366  0.22502  1.0000
  C   C455      1.0  0.81739  0.89369  0.13073  1.0000
  C   C456      1.0  0.81211  0.00401  0.26228  1.0000
  H   H799      1.0  0.70401  0.88555  0.21483  1.0000
  C   C457      1.0  0.78954  0.56754  0.09738  1.0000
  H   H800      1.0  0.89349  0.89011  0.13075  1.0000
  N   N25       1.0  0.78511  0.91301  0.11930  1.0000
  C   C458      1.0  0.74094  0.89330  0.17040  1.0000
  C   C459      1.0  0.82885  0.00691  0.09394  1.0000
  H   H801      1.0  0.82983  0.90999  0.14826  1.0000
  H   H802      1.0  0.73293  0.92420  0.21424  1.0000
  H   H803      1.0  0.76136  0.87566  0.18010  1.0000
  H   H804      1.0  0.90193  0.85879  0.09871  1.0000
  H   H805      1.0  0.77483  0.93963  0.16494  1.0000
  H   H806      1.0  0.67785  0.84428  0.28429  1.0000
  H   H807      1.0  0.77449  0.59313  0.09482  1.0000
  C   C460      1.0  0.90662  0.77563  0.34472  1.0000
  H   H808      1.0  0.92095  0.95746  0.20307  1.0000
  H   H809      1.0  0.92702  0.79633  0.29577  1.0000
  H   H810      1.0  0.84152  0.96356  0.12570  1.0000
  C   C461      1.0  0.81678  0.97522  0.11693  1.0000
  H   H811      1.0  0.72671  0.85908  0.05426  1.0000
  H   H812      1.0  0.81380  0.94099  0.07700  1.0000
  H   H813      1.0  0.94190  0.96464  0.23898  1.0000
  H   H814      1.0  0.95686  0.76410  0.31283  1.0000
  Fe  Fe54      1.0  0.70294  0.66550  0.03015  1.0000
  C   C462      1.0  0.92814  0.77142  0.31080  1.0000
  H   H815      1.0  0.78728  0.55938  0.12344  1.0000
  H   H816      1.0  0.91484  0.71513  0.30611  1.0000
  H   H817      1.0  0.88339  0.74654  0.29039  1.0000
  H   H818      1.0  0.74454  0.53513  0.08893  1.0000
  H   H819      1.0  0.80484  0.88581  0.05601  1.0000
  H   H820      1.0  0.66361  0.54245  0.13266  1.0000
  H   H821      1.0  0.92977  0.84410  0.32373  1.0000
  C   C463      1.0  0.69955  0.57322  0.02747  1.0000
  H   H822      1.0  0.90163  0.91278  0.32891  1.0000
  H   H823      1.0  0.84807  0.99786  0.07310  1.0000
  C   C464      1.0  0.02273  0.87267  0.26580  1.0000
  C   C465      1.0  0.77327  0.53896  0.07822  1.0000
  C   C466      1.0  0.69325  0.86014  0.29998  1.0000
  H   H824      1.0  0.64804  0.86536  0.33711  1.0000
  H   H825      1.0  0.95016  0.01715  0.20007  1.0000
  C   C467      1.0  0.67663  0.85583  0.33541  1.0000
  H   H826      1.0  0.01987  0.77135  0.24943  1.0000
  C   C468      1.0  0.92315  0.90871  0.34493  1.0000
  H   H827      1.0  0.90161  0.02040  0.20021  1.0000
  H   H828      1.0  0.70909  0.81109  0.34751  1.0000
  H   H829      1.0  0.94996  0.90630  0.32983  1.0000
  H   H830      1.0  0.87735  0.77849  0.34161  1.0000
  C   C469      1.0  0.67943  0.81629  0.34798  1.0000
  H   H831      1.0  0.88355  0.84211  0.33945  1.0000
  C   C470      1.0  0.91148  0.84122  0.34686  1.0000
  H   H832      1.0  0.80495  0.02019  0.08492  1.0000
  H   H833      1.0  0.76288  0.86030  0.02088  1.0000
  C   C471      1.0  0.98698  0.81885  0.34683  1.0000
  H   H834      1.0  0.98689  0.84833  0.34944  1.0000
  H   H835      1.0  0.69193  0.87372  0.34954  1.0000
  Fe  Fe55      1.0  0.75138  0.71492  0.47956  1.0000
  S   S109      1.0  0.79459  0.71755  0.43564  1.0000
  S   S110      1.0  0.70638  0.67534  0.47851  1.0000
  C   C472      1.0  0.79312  0.75461  0.40817  1.0000
  C   C473      1.0  0.78030  0.78804  0.41885  1.0000
  C   C474      1.0  0.77910  0.81713  0.39665  1.0000
  H   H836      1.0  0.63841  0.65724  0.43203  1.0000
  H   H837      1.0  0.58900  0.76730  0.39365  1.0000
  C   C475      1.0  0.80544  0.75077  0.37516  1.0000
  H   H838      1.0  0.77144  0.79152  0.44428  1.0000
  H   H839      1.0  0.76914  0.84290  0.40518  1.0000
  H   H840      1.0  0.82237  0.61017  0.52745  1.0000
  H   H841      1.0  0.81556  0.72502  0.36675  1.0000
  C   C476      1.0  0.56772  0.71422  0.52387  1.0000
  H   H842      1.0  0.58965  0.71679  0.53844  1.0000
  Fe  Fe56      1.0  0.71216  0.66266  0.53037  1.0000
  S   S111      1.0  0.67164  0.70434  0.54935  1.0000
  S   S112      1.0  0.70493  0.60769  0.55510  1.0000
  S   S113      1.0  0.71351  0.76009  0.49480  1.0000
  Fe  Fe57      1.0  0.72019  0.74098  0.54582  1.0000
  S   S114      1.0  0.72388  0.78138  0.58504  1.0000
  Fe  Fe58      1.0  0.66875  0.71933  0.49723  1.0000
  S   S115      1.0  0.61921  0.72596  0.47051  1.0000
  S   S116      1.0  0.76115  0.69806  0.53037  1.0000
  C   C477      1.0  0.75810  0.78357  0.61114  1.0000
  C   C478      1.0  0.78651  0.75851  0.61055  1.0000
  C   C479      1.0  0.81277  0.76109  0.63209  1.0000
  C   C480      1.0  0.81107  0.78883  0.65425  1.0000
  H   H843      1.0  0.68394  0.70409  0.41660  1.0000
  C   C481      1.0  0.75627  0.81108  0.63351  1.0000
  H   H844      1.0  0.78821  0.73716  0.59355  1.0000
  H   H845      1.0  0.83463  0.74162  0.63145  1.0000
  H   H846      1.0  0.80010  0.54171  0.63701  1.0000
  H   H847      1.0  0.58597  0.54337  0.46514  1.0000
  C   C482      1.0  0.71262  0.56900  0.49938  1.0000
  C   C483      1.0  0.70332  0.56857  0.53294  1.0000
  C   C484      1.0  0.82259  0.55816  0.57134  1.0000
  H   H848      1.0  0.71923  0.59403  0.48622  1.0000
  C   C485      1.0  0.80048  0.62348  0.46972  1.0000
  C   C486      1.0  0.57476  0.71800  0.49020  1.0000
  C   C487      1.0  0.61940  0.81718  0.38057  1.0000
  H   H849      1.0  0.88952  0.79217  0.46402  1.0000
  C   C488      1.0  0.80884  0.58578  0.52010  1.0000
  H   H850      1.0  0.88064  0.59950  0.50567  1.0000
  H   H851      1.0  0.83897  0.58063  0.47084  1.0000
  H   H852      1.0  0.75923  0.56865  0.64024  1.0000
  H   H853      1.0  0.73441  0.83057  0.63416  1.0000
  H   H854      1.0  0.68033  0.87211  0.45812  1.0000
  C   C489      1.0  0.64538  0.62830  0.43021  1.0000
  H   H855      1.0  0.84541  0.78619  0.45070  1.0000
  H   H856      1.0  0.90945  0.74935  0.35760  1.0000
  H   H857      1.0  0.70705  0.70072  0.67388  1.0000
  H   H858      1.0  0.53439  0.58093  0.53903  1.0000
  H   H859      1.0  0.73047  0.70316  0.39789  1.0000
  H   H860      1.0  0.62974  0.61634  0.41227  1.0000
  N   N26       1.0  0.65915  0.80731  0.38110  1.0000
  H   H861      1.0  0.65475  0.62027  0.47951  1.0000
  C   C490      1.0  0.79032  0.81308  0.36356  1.0000
  H   H862      1.0  0.93766  0.87197  0.38207  1.0000
  H   H863      1.0  0.58919  0.64255  0.47607  1.0000
  C   C491      1.0  0.66048  0.82206  0.44130  1.0000
  C   C492      1.0  0.70223  0.75339  0.39033  1.0000
  C   C493      1.0  0.66325  0.76742  0.38734  1.0000
  H   H864      1.0  0.67116  0.83713  0.48900  1.0000
  C   C494      1.0  0.70257  0.71257  0.39474  1.0000
  C   C495      1.0  0.95662  0.80109  0.37137  1.0000
  C   C496      1.0  0.69443  0.53591  0.54967  1.0000
  H   H865      1.0  0.77961  0.58964  0.52917  1.0000
  H   H866      1.0  0.64408  0.58027  0.46010  1.0000
  H   H867      1.0  0.82028  0.64413  0.47468  1.0000
  H   H868      1.0  0.72271  0.53706  0.45700  1.0000
  H   H869      1.0  0.64687  0.75841  0.41020  1.0000
  H   H870      1.0  0.60300  0.58332  0.57680  1.0000
  H   H871      1.0  0.77074  0.52735  0.53625  1.0000
  H   H872      1.0  0.71209  0.76450  0.41192  1.0000
  N   N27       1.0  0.58485  0.59745  0.51031  1.0000
  H   H873      1.0  0.75551  0.69562  0.66325  1.0000
  C   C497      1.0  0.78428  0.56170  0.59096  1.0000
  H   H874      1.0  0.59607  0.66472  0.58615  1.0000
  H   H875      1.0  0.89108  0.58557  0.54523  1.0000
  C   C498      1.0  0.60298  0.61919  0.53367  1.0000
  H   H876      1.0  0.69409  0.69980  0.37327  1.0000
  H   H877      1.0  0.63194  0.83164  0.44588  1.0000
  H   H878      1.0  0.61478  0.84597  0.38621  1.0000
  H   H879      1.0  0.80008  0.62303  0.44314  1.0000
  H   H880      1.0  0.62768  0.55776  0.51137  1.0000
  H   H881      1.0  0.87360  0.52243  0.53563  1.0000
  H   H882      1.0  0.58099  0.60159  0.45852  1.0000
  N   N28       1.0  0.82337  0.55240  0.53559  1.0000
  H   H883      1.0  0.76717  0.53789  0.58880  1.0000
  H   H884      1.0  0.71131  0.83447  0.45984  1.0000
  H   H885      1.0  0.87530  0.74917  0.40537  1.0000
  H   H886      1.0  0.55502  0.52546  0.49865  1.0000
  H   H887      1.0  0.78085  0.83517  0.67186  1.0000
  H   H888      1.0  0.80287  0.59004  0.63066  1.0000
  H   H889      1.0  0.96018  0.81193  0.39533  1.0000
  C   C499      1.0  0.91544  0.87513  0.36670  1.0000
  H   H890      1.0  0.77003  0.58583  0.58257  1.0000
  C   C500      1.0  0.59059  0.79470  0.40302  1.0000
  C   C501      1.0  0.58388  0.53238  0.49032  1.0000
  C   C502      1.0  0.59188  0.60996  0.57027  1.0000
  H   H891      1.0  0.63701  0.63800  0.58698  1.0000
  C   C503      1.0  0.60684  0.63750  0.59134  1.0000
  N   N29       1.0  0.91773  0.80597  0.36434  1.0000
  C   C504      1.0  0.78258  0.81375  0.65494  1.0000
  H   H892      1.0  0.70556  0.82490  0.40268  1.0000
  H   H893      1.0  0.59715  0.79181  0.42814  1.0000
  C   C505      1.0  0.92726  0.56528  0.50572  1.0000
  H   H894      1.0  0.94607  0.58835  0.50536  1.0000
  C   C506      1.0  0.68223  0.84278  0.46329  1.0000
  C   C507      1.0  0.71459  0.53670  0.48288  1.0000
  H   H895      1.0  0.63305  0.61613  0.52957  1.0000
  H   H896      1.0  0.83731  0.58318  0.57522  1.0000
  H   H897      1.0  0.66175  0.79326  0.44851  1.0000
  H   H898      1.0  0.67488  0.62580  0.42155  1.0000
  H   H899      1.0  0.59768  0.64828  0.52947  1.0000
  H   H900      1.0  0.88967  0.87974  0.38289  1.0000
  H   H901      1.0  0.77303  0.63128  0.48119  1.0000
  C   C508      1.0  0.67562  0.82893  0.40536  1.0000
  C   C509      1.0  0.73405  0.71063  0.67842  1.0000
  C   C510      1.0  0.88910  0.57639  0.52051  1.0000
  H   H902      1.0  0.55111  0.71818  0.44553  1.0000
  C   C511      1.0  0.81117  0.58655  0.48264  1.0000
  C   C512      1.0  0.78699  0.56575  0.62691  1.0000
  C   C513      1.0  0.80368  0.77983  0.35284  1.0000
  H   H903      1.0  0.72170  0.76035  0.36866  1.0000
  H   H904      1.0  0.59853  0.63031  0.61728  1.0000
  C   C514      1.0  0.89259  0.80521  0.39596  1.0000
  C   C515      1.0  0.59738  0.55908  0.51370  1.0000
  C   C516      1.0  0.63688  0.60900  0.46323  1.0000
  H   H905      1.0  0.67176  0.85811  0.40043  1.0000
  C   C517      1.0  0.89137  0.76942  0.41629  1.0000
  H   H906      1.0  0.91907  0.75846  0.41769  1.0000
  H   H907      1.0  0.58837  0.54793  0.53848  1.0000
  H   H908      1.0  0.54414  0.81392  0.37976  1.0000
  H   H909      1.0  0.87017  0.74797  0.46402  1.0000
  C   C518      1.0  0.87303  0.77441  0.45084  1.0000
  C   C519      1.0  0.86210  0.54466  0.52150  1.0000
  H   H910      1.0  0.92371  0.93258  0.36000  1.0000
  C   C520      1.0  0.54589  0.71517  0.47160  1.0000
  C   C521      1.0  0.59620  0.61339  0.47673  1.0000
  H   H911      1.0  0.86409  0.81163  0.39156  1.0000
  H   H912      1.0  0.90029  0.82639  0.41191  1.0000
  C   C522      1.0  0.55270  0.81153  0.40434  1.0000
  H   H913      1.0  0.96316  0.77197  0.37373  1.0000
  H   H914      1.0  0.68704  0.53542  0.57565  1.0000
  H   H915      1.0  0.79229  0.56658  0.47491  1.0000
  H   H916      1.0  0.65229  0.75251  0.36803  1.0000
  S   S117      1.0  0.84431  0.79049  0.68133  1.0000
  H   H917      1.0  0.55234  0.83848  0.41489  1.0000
  H   H918      1.0  0.52635  0.57324  0.47766  1.0000
  H   H919      1.0  0.52683  0.70483  0.56492  1.0000
  H   H920      1.0  0.53689  0.62773  0.52933  1.0000
  H   H921      1.0  0.83765  0.53637  0.58297  1.0000
  H   H922      1.0  0.94555  0.97895  0.68105  1.0000
  H   H923      1.0  0.73585  0.73953  0.67099  1.0000
  H   H924      1.0  0.86314  0.53456  0.49658  1.0000
  H   H925      1.0  0.01516  0.01814  0.36161  1.0000
  H   H926      1.0  0.61160  0.81450  0.35580  1.0000
  H   H927      1.0  0.56195  0.60961  0.57691  1.0000
  H   H928      1.0  0.53276  0.79432  0.41992  1.0000
  C   C523      1.0  0.54401  0.60082  0.51930  1.0000
  C   C524      1.0  0.53210  0.70751  0.53882  1.0000
  H   H929      1.0  0.93775  0.54285  0.52024  1.0000
  H   H930      1.0  0.92700  0.55687  0.48045  1.0000
  C   C525      1.0  0.80002  0.52101  0.52958  1.0000
  Fe  Fe59      1.0  0.72553  0.72494  0.97904  1.0000
  S   S118      1.0  0.76514  0.73188  0.93298  1.0000
  S   S119      1.0  0.68746  0.67832  0.98105  1.0000
  Fe  Fe60      1.0  0.84768  0.83464  0.71736  1.0000
  S   S120      1.0  0.80207  0.87248  0.73316  1.0000
  C   C526      1.0  0.01983  0.84935  0.78863  1.0000
  Fe  Fe61      1.0  0.89749  0.86558  0.76237  1.0000
  S   S121      1.0  0.85498  0.90514  0.78201  1.0000
  S   S122      1.0  0.94984  0.87063  0.78450  1.0000
  Fe  Fe62      1.0  0.81514  0.86017  0.78365  1.0000
  S   S123      1.0  0.76886  0.85727  0.82512  1.0000
  Fe  Fe63      1.0  0.84557  0.91471  0.73058  1.0000
  S   S124      1.0  0.83830  0.97086  0.70938  1.0000
  S   S125      1.0  0.85834  0.81944  0.76845  1.0000
  S   S126      1.0  0.89055  0.87786  0.71039  1.0000
  C   C527      1.0  0.99014  0.84696  0.77105  1.0000
  C   C528      1.0  0.99382  0.82730  0.74285  1.0000
  H   H931      1.0  0.72319  0.67081  0.77386  1.0000
  H   H932      1.0  0.97106  0.82519  0.72916  1.0000
  H   H933      1.0  0.98429  0.92314  0.72235  1.0000
  C   C529      1.0  0.85531  0.00469  0.76335  1.0000
  H   H934      1.0  0.97244  0.98868  0.84832  1.0000
  H   H935      1.0  0.78357  0.74262  0.70757  1.0000
  H   H936      1.0  0.86636  0.97933  0.77071  1.0000
  C   C530      1.0  0.88917  0.72929  0.74487  1.0000
  C   C531      1.0  0.76563  0.76731  0.90359  1.0000
  C   C532      1.0  0.74248  0.79706  0.90789  1.0000
  C   C533      1.0  0.74387  0.82458  0.88372  1.0000
  C   C534      1.0  0.76839  0.82259  0.85519  1.0000
  C   C535      1.0  0.79142  0.79282  0.85089  1.0000
  C   C536      1.0  0.78999  0.76530  0.87497  1.0000
  H   H937      1.0  0.72405  0.79903  0.93004  1.0000
  H   H938      1.0  0.72632  0.84775  0.88733  1.0000
  H   H939      1.0  0.81049  0.79103  0.82911  1.0000
  H   H940      1.0  0.80810  0.74245  0.87158  1.0000
  H   H941      1.0  0.85201  0.70921  0.71478  1.0000
  H   H942      1.0  0.68666  0.97723  0.83875  1.0000
  H   H943      1.0  0.71173  0.72893  0.87366  1.0000
  H   H944      1.0  0.69742  0.68436  0.86583  1.0000
  H   H945      1.0  0.92272  0.95328  0.71529  1.0000
  C   C537      1.0  0.54727  0.72243  0.99701  1.0000
  N   N30       1.0  0.74129  0.97496  0.81376  1.0000
  C   C538      1.0  0.71445  0.96922  0.84394  1.0000
  C   C539      1.0  0.61996  0.83667  0.97747  1.0000
  H   H946      1.0  0.69942  0.69693  0.90683  1.0000
  C   C540      1.0  0.77921  0.96322  0.81900  1.0000
  C   C541      1.0  0.79594  0.98150  0.84635  1.0000
  C   C542      1.0  0.71210  0.93050  0.85910  1.0000
  C   C543      1.0  0.72154  0.80261  0.77780  1.0000
  H   H947      1.0  0.96263  0.97846  0.75131  1.0000
  H   H948      1.0  0.79334  0.66155  0.75457  1.0000
  C   C544      1.0  0.83180  0.96351  0.85245  1.0000
  C   C545      1.0  0.68475  0.92849  0.88983  1.0000
  H   H949      1.0  0.65802  0.80880  0.94410  1.0000
  H   H950      1.0  0.70667  0.54812  0.94909  1.0000
  H   H951      1.0  0.72053  0.98679  0.86343  1.0000
  C   C546      1.0  0.74748  0.62871  0.80041  1.0000
  H   H952      1.0  0.02133  0.92335  0.82865  1.0000
  H   H953      1.0  0.79837  0.96834  0.79664  1.0000
  C   C547      1.0  0.72907  0.95213  0.78793  1.0000
  H   H954      1.0  0.78038  0.93367  0.82325  1.0000
  H   H955      1.0  0.77928  0.79731  0.76657  1.0000
  H   H956      1.0  0.77767  0.98004  0.86953  1.0000
  H   H957      1.0  0.59292  0.85004  0.97865  1.0000
  H   H958      1.0  0.70296  0.91120  0.84227  1.0000
  H   H959      1.0  0.73884  0.92148  0.86585  1.0000
  H   H960      1.0  0.63943  0.82888  0.81840  1.0000
  C   C548      1.0  0.69294  0.70674  0.88273  1.0000
  N   N31       1.0  0.78288  0.71885  0.75584  1.0000
  H   H961      1.0  0.72084  0.80058  0.80450  1.0000
  H   H962      1.0  0.59517  0.81778  0.88169  1.0000
  H   H963      1.0  0.01248  0.97166  0.77473  1.0000
  H   H964      1.0  0.75502  0.98474  0.74542  1.0000
  H   H965      1.0  0.82742  0.93476  0.85974  1.0000
  H   H966      1.0  0.85200  0.96547  0.83039  1.0000
  H   H967      1.0  0.84320  0.97706  0.87218  1.0000
  H   H968      1.0  0.69325  0.94615  0.90838  1.0000
  H   H969      1.0  0.65719  0.93659  0.88438  1.0000
  H   H970      1.0  0.68336  0.90050  0.89995  1.0000
  H   H971      1.0  0.77847  0.94401  0.75423  1.0000
  C   C549      1.0  0.54106  0.76127  0.90942  1.0000
  C   C550      1.0  0.97208  0.98000  0.72499  1.0000
  H   H972      1.0  0.82254  0.76085  0.74347  1.0000
  C   C551      1.0  0.63035  0.82030  0.94442  1.0000
  H   H973      1.0  0.53204  0.76908  0.93467  1.0000
  S   S127      1.0  0.68228  0.76314  0.00013  1.0000
  H   H974      1.0  0.63468  0.86222  0.84931  1.0000
  H   H975      1.0  0.60544  0.78056  0.85714  1.0000
  H   H976      1.0  0.69611  0.79122  0.77098  1.0000
  C   C552      1.0  0.75582  0.74339  0.77448  1.0000
  H   H977      1.0  0.85310  0.68441  0.75257  1.0000
  H   H978      1.0  0.71652  0.72186  0.72774  1.0000
  H   H979      1.0  0.66913  0.76524  0.91073  1.0000
  H   H980      1.0  0.72776  0.73293  0.77598  1.0000
  H   H981      1.0  0.75351  0.78464  0.73497  1.0000
  C   C553      1.0  0.75478  0.78282  0.76139  1.0000
  H   H982      1.0  0.98497  0.00640  0.71844  1.0000
  C   C554      1.0  0.73253  0.93737  0.72857  1.0000
  H   H983      1.0  0.71566  0.60092  0.98178  1.0000
  C   C555      1.0  0.70602  0.57596  0.99368  1.0000
  H   H984      1.0  0.64832  0.72986  0.86064  1.0000
  C   C556      1.0  0.84101  0.00810  0.73393  1.0000
  H   H985      1.0  0.63576  0.69572  0.89145  1.0000
  H   H986      1.0  0.59827  0.77317  0.95974  1.0000
  C   C557      1.0  0.65281  0.80957  0.86550  1.0000
  C   C558      1.0  0.64479  0.74818  0.91091  1.0000
  H   H987      1.0  0.72297  0.83142  0.77002  1.0000
  H   H988      1.0  0.76845  0.62491  0.81709  1.0000
  C   C559      1.0  0.61429  0.79465  0.87791  1.0000
  H   H989      1.0  0.92020  0.00150  0.71416  1.0000
  C   C560      1.0  0.65343  0.71949  0.88493  1.0000
  H   H990      1.0  0.73694  0.68368  0.81153  1.0000
  H   H991      1.0  0.01695  0.86377  0.81081  1.0000
  C   C561      1.0  0.75122  0.95633  0.75381  1.0000
  C   C562      1.0  0.70105  0.54596  0.97519  1.0000
  C   C563      1.0  0.74508  0.66812  0.78951  1.0000
  H   H992      1.0  0.00552  0.92480  0.77281  1.0000
  C   C564      1.0  0.77665  0.71672  0.72086  1.0000
  C   C565      1.0  0.57984  0.74459  0.90683  1.0000
  H   H993      1.0  0.73087  0.92309  0.79463  1.0000
  H   H994      1.0  0.80057  0.68090  0.79149  1.0000
  S   S128      1.0  0.59092  0.70275  0.98919  1.0000
  C   C566      1.0  0.73820  0.70561  0.71433  1.0000
  H   H995      1.0  0.61900  0.81565  0.99713  1.0000
  H   H996      1.0  0.80199  0.00997  0.83933  1.0000
  H   H997      1.0  0.82469  0.73955  0.78197  1.0000
  H   H998      1.0  0.54032  0.78529  0.89303  1.0000
  C   C567      1.0  0.93819  0.97820  0.70774  1.0000
  H   H999      1.0  0.73377  0.67679  0.72095  1.0000
  C   C568      1.0  0.78223  0.68189  0.77219  1.0000
  H   H1000     1.0  0.75025  0.93875  0.70494  1.0000
  C   C569      1.0  0.74100  0.01381  0.80163  1.0000
  H   H1001     1.0  0.89172  0.73316  0.77078  1.0000
  H   H1002     1.0  0.69991  0.95774  0.78548  1.0000
  C   C570      1.0  0.85291  0.71169  0.74111  1.0000
  H   H1003     1.0  0.72084  0.61989  0.81345  1.0000
  C   C571      1.0  0.60233  0.79175  0.93814  1.0000
  C   C572      1.0  0.82026  0.73442  0.75655  1.0000
  H   H1004     1.0  0.75435  0.61159  0.77920  1.0000
  H   H1005     1.0  0.76152  0.74424  0.80010  1.0000
  C   C573      1.0  0.99883  0.94890  0.71522  1.0000
  H   H1006     1.0  0.67075  0.78796  0.85476  1.0000
  H   H1007     1.0  0.95543  0.98574  0.80990  1.0000
  H   H1008     1.0  0.64243  0.73358  0.93491  1.0000
  H   H1009     1.0  0.66622  0.82073  0.88504  1.0000
  N   N32       1.0  0.61095  0.77037  0.90800  1.0000
  H   H1010     1.0  0.63075  0.84260  0.92604  1.0000
  H   H1011     1.0  0.89162  0.75566  0.73153  1.0000
  H   H1012     1.0  0.91202  0.71199  0.73460  1.0000
  H   H1013     1.0  0.67921  0.84894  0.83098  1.0000
  H   H1014     1.0  0.58379  0.72973  0.88396  1.0000
  H   H1015     1.0  0.72767  0.90869  0.73579  1.0000
  C   C574      1.0  0.65123  0.83920  0.83944  1.0000
  H   H1016     1.0  0.57639  0.80684  0.93781  1.0000
  H   H1017     1.0  0.64054  0.85690  0.98158  1.0000
  Fe  Fe64      1.0  0.64522  0.71502  0.00583  1.0000
  H   H1018     1.0  0.57943  0.72360  0.92652  1.0000
  H   H1019     1.0  0.70618  0.95062  0.72543  1.0000
  H   H1020     1.0  0.79568  0.69708  0.70821  1.0000
  C   C575      1.0  0.54158  0.75644  0.00994  1.0000
  H   H1021     1.0  0.92991  0.00992  0.84216  1.0000
  H   H1022     1.0  0.72001  0.01811  0.78489  1.0000
  H   H1023     1.0  0.00313  0.94961  0.68843  1.0000
  C   C576      1.0  0.95772  0.00350  0.83034  1.0000
  H   H1024     1.0  0.56415  0.77087  0.01728  1.0000
