data_image0
_chemical_formula_structural       CHFeSHCH2S2H2CHCSH2SHC2FeS2FeS2FeSFeS3FeSCSFeSFeSHC4H2C5H6CH4C7H5C2H7C6H4C6H3CH3C2H2CHC2FeHCH5CSH9SHCHCH3CHCHCH2C2HC3HC3HC2HCH4NH5CH6CHCH4C4H12CHCHSHCH3CH2FeHSHSHCH4FeCHCHC2H2CH3CH2CHC2H4CHSH5CHC2H2CHFeC3H8C3HCH4CNHSH5CHCHNH4C2SH4CHC2NCSH2CH3CH2CH2CH4CHCHNSFeCHC4H3CHC2HCHFeHCHCH2SHCH2C4HCNH2NH3C3H2C2H2C2HC2SH2C2HCH7CHCH2CH5C2H4CH2NHCHCH3CHSHC3H2CHCSCH3CH18CHFeCH3C2H4CH2CH2NH3C2H3CH2C2H8C2H2CH3CH2CH2CH4CH4CHC2H3FeHCFeS2FeS3H4NC3HC3HCH4C3SHCH2CH3CNC2H10CHCHC6H4C6H8C2H11FeHC2H3CFeH3C3HSCHSHCHCHSCH7CH2CH2CH3C2SCH5CHC2HCHCHCH4CSC2SNH3CH2SCH2C3H3CH2CHC2H5CH2FeHCH7CH2C2FeS2CHSCHFeCSHFeHSH3S2CH3CHCHC4HC2H3C2H3CH9CH2CH5C7H5CNH2FeCH5CH3C3SH5NH7NC4H10SHS2CH6CHFeSH6CHCHCHSCNCHC5HC2HCH12C2H3CH3CHCH4FeH4NHC2H3C3HSCHCH3CH2CH4CSH4C3HCH4C2H5CFeH3CH6CHC2H3C4SCH3CNCHCHCHC5H3C2H3CH3CHC3H2C4HCH2CHCH2CHCHNH5C2H4CHCHCH5C4H5CN2H6C3NCH3C2FeSFeS2CH3C2S2HSC2HC3SH5CH3FeH4C3FeC2H2CNC4FeCH7CH2CH3CSFeC2H6SH2FeCH2S2H2CHCHSHFeHC2H2Fe2CH2C2HC2SH4C3HCHCH2CH2SH5C2HFeSCHSHSH3C2FeH3C4H7C3H6CH2CHNC2HCHCFeC2HC2H4NH4CH3SH6FeS2H4CNC12H16CSC2H2C3H2SHNH2SHFeH2SHS2H3CHCHSCFeH2C2HCHCHSC2H4CH5CHNC2H2C2H3SH2C2H4CHSH2CNHFeH3CHCH2CH2FeHC2HCH2SHSH2SCH8CH4SC2HCSCH5NH3CHCH2CH4FeSCSFeSFeS2H2C3HSHNHC7H6CH5FeC3HFeH4C6HCH2C2HC4H7CSH3CH2CH5CH2SCHC2H3C3H2CH3CH3CH3SHC2HC3HCNC12H27CH4CH3CHCH3FeCHSH2CHCH3CNC3H3C2H4CH2C2HSCHSH2NCHCH4CH3NSFeCHCSHSHFeH2FeS2FeSFeS2FeS2FeS2FeSFeS3FeS2FeS2Fe2S3C3SHCHCH2CH2C3H4C6H4C6H5C6H4C6H4CH2CH4SNCHC3SC2H2CH3SH2C2HCH3CH3CH3FeCH2C3HCHCHCH2NH3NCH4C2H2CH6CH2C2H4CH3CH4CH3CH3NSH2CH3CH2C2H2FeHSN2C9H18CH2CHCH3C2H6C2H2C4H3SH7CH2SHCH2C2H2C3HCH6CHCH3CHCH2CH2SCH3C3H2CHCFeH7C3H2CHCH3CH4FeHCH2CHCHCHC2H3CHCH3CH3C2H4CH3CH4C2HCHCHC6HCH2CFeHC2NHSH2CH3CSCH4C2HSH4CH7SHCH2CH2CSHC2H7FeH2FeS2CHFeHS2H3CHSH5CH2CH5CH2NH3CH5CHC3H2CH2SCHFeCHCHCHCHCSH2C2H3CHSC2H2SHFeS2FeSFeS3HSFeS2FeHFeS3FeS2FeSHFeSFeS3FeS2HSHFeSFeS2HC6H4C6H6SHC8H4C6H5NC2HC3H4CH3FeHCSHCHCFeHCHFeSH10SHCH2SH2CH3CH2CHSH3C2H7C3H4SH3CH7C3HCH4CHNC2HCHCHC3H7C3H3CFeH6CH2CH3CH7CHCHC3S3HNC12H22CHCH2FeH2CH2CHSH3CHNCHSCHCH3C2H5CH3CH2C2HCH2CHCHCHCH2C2HCHC2H2C2NCH3C2HC2HNH4C2H5CH5C3HCH2CSH3FeNHCH5CH2C3FeHSFeS2FeCFeCS2FeS2FeSCFeSFeS3C2SH2C2H5C2HC4HCH2CH2C6H4C2HCH3CHCHCHCHCNH6C2H2CHCH3C5H2C2HCHC2H5CHCH2C2HCH4C2H5NH4C2HCHC2H2C2H2C2H3NC4H5NH4CHSH4C3H2CHCH2CHCHSH15CH6CHCH10CH17C4HCH4C2H2C2H2FeH4CFeS2FeSCFeCFeS3FeS2FeS2FeSHFeS2FeS2FeSFeSFeS3C6H3C2H2CH3C6H5CHSH5C6H4C6H5CHC2H5CSH5SC7H7CH8NH2CHC2H2S3HCH2SHCHNC12H21CH6C5H6SH12CH9C3HCFeHCH5SHCH3CNFeH3CH2SH2CHCH6NCHNCH3CH2CH4C4HCHC6H2C2H3SH4CHCNH5C2HCH7C3NH2C2SCSC3HCH2CH4FeH2CHNCFeCFeHCH3NHC2H3CHCH3C4HCHFeHFeHC3H3CHCH6CHCH3SH4SH3C3H15C2SCHCH2CH3C2SHCH5CH4CFeCH2CHCH5SCHCHC2HCH6CHCHCH2C5H2CHS2FeSFeSH2FeC3H3SCH7C3H2CNSC2H3FeC2H2CHCHFeSHCH2CHCH3CHCH4C3SH2SH3C3SC2HCHCHFeC2H2C2HCSH12C3H5C4H9SC
_chemical_formula_sum              "C1152 H2048 Fe128 S256 N64"
_cell_length_a       69.0843
_cell_length_b       68.993
_cell_length_c       32.5028
_cell_angle_alpha    78.9111
_cell_angle_beta     77.4687
_cell_angle_gamma    76.4106

_space_group_name_H-M_alt    "P 1"
_space_group_IT_number       1

loop_
  _space_group_symop_operation_xyz
  'x, y, z'

loop_
  _atom_site_type_symbol
  _atom_site_label
  _atom_site_symmetry_multiplicity
  _atom_site_fract_x
  _atom_site_fract_y
  _atom_site_fract_z
  _atom_site_occupancy
  C   C1        1.0  0.01033  0.11012  0.33246  1.0000
  H   H1        1.0  0.29487  0.18780  0.97078  1.0000
  Fe  Fe1       1.0  0.20032  0.18792  0.27229  1.0000
  S   S1        1.0  0.22102  0.16292  0.30636  1.0000
  H   H2        1.0  0.02358  0.10973  0.21150  1.0000
  C   C2        1.0  0.05646  0.08813  0.56610  1.0000
  H   H3        1.0  0.13241  0.08427  0.23899  1.0000
  H   H4        1.0  0.08755  0.99939  0.14336  1.0000
  S   S2        1.0  0.23557  0.12122  0.22921  1.0000
  S   S3        1.0  0.10293  0.01105  0.33494  1.0000
  H   H5        1.0  0.16347  0.05954  0.24445  1.0000
  H   H6        1.0  0.02518  0.00754  0.35714  1.0000
  C   C3        1.0  0.05276  0.10454  0.22996  1.0000
  H   H7        1.0  0.00781  0.17708  0.21296  1.0000
  C   C4        1.0  0.02096  0.08526  0.60547  1.0000
  S   S4        1.0  0.28784  0.12618  0.55678  1.0000
  H   H8        1.0  0.02889  0.18923  0.20564  1.0000
  H   H9        1.0  0.11667  0.09581  0.37030  1.0000
  S   S5        1.0  0.27773  0.01278  0.36972  1.0000
  H   H10       1.0  0.09347  0.11738  0.53998  1.0000
  C   C5        1.0  0.13256  0.03583  0.45278  1.0000
  C   C6        1.0  0.22750  0.05528  0.39424  1.0000
  Fe  Fe2       1.0  0.16209  0.12197  0.48901  1.0000
  S   S6        1.0  0.16001  0.09817  0.54651  1.0000
  S   S7        1.0  0.14145  0.15238  0.48350  1.0000
  Fe  Fe3       1.0  0.19601  0.09544  0.43786  1.0000
  S   S8        1.0  0.19683  0.06907  0.49034  1.0000
  S   S9        1.0  0.21655  0.09606  0.37431  1.0000
  Fe  Fe4       1.0  0.16309  0.07729  0.49940  1.0000
  S   S10       1.0  0.14320  0.05475  0.50841  1.0000
  Fe  Fe5       1.0  0.19409  0.09208  0.53237  1.0000
  S   S11       1.0  0.21234  0.08550  0.58479  1.0000
  S   S12       1.0  0.16246  0.10161  0.44292  1.0000
  S   S13       1.0  0.19580  0.11794  0.47933  1.0000
  Fe  Fe6       1.0  0.07948  0.03680  0.35825  1.0000
  S   S14       1.0  0.10081  0.05783  0.34755  1.0000
  C   C7        1.0  0.14643  0.08804  0.21826  1.0000
  S   S15       1.0  0.11706  0.04381  0.25294  1.0000
  Fe  Fe7       1.0  0.12358  0.03292  0.31881  1.0000
  S   S16       1.0  0.15512  0.02420  0.33289  1.0000
  Fe  Fe8       1.0  0.09226  0.06704  0.28290  1.0000
  S   S17       1.0  0.08967  0.09966  0.25343  1.0000
  H   H11       1.0  0.00816  0.11379  0.29882  1.0000
  C   C8        1.0  0.15336  0.02916  0.38463  1.0000
  C   C9        1.0  0.14787  0.04338  0.46245  1.0000
  C   C10       1.0  0.16637  0.04275  0.43419  1.0000
  C   C11       1.0  0.16928  0.03523  0.39565  1.0000
  H   H12       1.0  0.17831  0.04839  0.44169  1.0000
  H   H13       1.0  0.18351  0.03511  0.37372  1.0000
  C   C12       1.0  0.26023  0.03569  0.36738  1.0000
  C   C13       1.0  0.26546  0.05304  0.34135  1.0000
  C   C14       1.0  0.25196  0.07168  0.34318  1.0000
  C   C15       1.0  0.23311  0.07282  0.37030  1.0000
  C   C16       1.0  0.24112  0.03680  0.39328  1.0000
  H   H14       1.0  0.28002  0.05224  0.32047  1.0000
  H   H15       1.0  0.25614  0.08521  0.32375  1.0000
  H   H16       1.0  0.02662  0.02978  0.23355  1.0000
  H   H17       1.0  0.00590  0.04236  0.35309  1.0000
  H   H18       1.0  0.11827  0.03631  0.47445  1.0000
  H   H19       1.0  0.01696  0.10197  0.60301  1.0000
  C   C17       1.0  0.04530  0.12159  0.16060  1.0000
  H   H20       1.0  0.04681  0.08044  0.63533  1.0000
  H   H21       1.0  0.22576  0.00325  0.34753  1.0000
  H   H22       1.0  0.12999  0.09052  0.41446  1.0000
  H   H23       1.0  0.07542  0.02204  0.50776  1.0000
  C   C18       1.0  0.21335  0.17584  0.45509  1.0000
  C   C19       1.0  0.26950  0.11141  0.56329  1.0000
  C   C20       1.0  0.26412  0.10597  0.52842  1.0000
  C   C21       1.0  0.24661  0.09781  0.53434  1.0000
  C   C22       1.0  0.23508  0.09434  0.57531  1.0000
  C   C23       1.0  0.24143  0.09844  0.61016  1.0000
  C   C24       1.0  0.25828  0.10731  0.60408  1.0000
  H   H24       1.0  0.27263  0.10929  0.49669  1.0000
  H   H25       1.0  0.24183  0.09452  0.50733  1.0000
  H   H26       1.0  0.23266  0.09569  0.64184  1.0000
  H   H27       1.0  0.26228  0.11152  0.63105  1.0000
  H   H28       1.0  0.23393  0.03657  0.55743  1.0000
  C   C25       1.0  0.29082  0.15954  0.31147  1.0000
  C   C26       1.0  0.30930  0.14661  0.31699  1.0000
  H   H29       1.0  0.06926  0.06690  0.42509  1.0000
  H   H30       1.0  0.22905  0.15080  0.10274  1.0000
  H   H31       1.0  0.29259  0.08504  0.42748  1.0000
  H   H32       1.0  0.28373  0.15875  0.28552  1.0000
  H   H33       1.0  0.08047  0.07584  0.62755  1.0000
  H   H34       1.0  0.05066  0.08758  0.53710  1.0000
  H   H35       1.0  0.21608  0.98690  0.27419  1.0000
  C   C27       1.0  0.29937  0.08315  0.21751  1.0000
  C   C28       1.0  0.28347  0.07547  0.21090  1.0000
  C   C29       1.0  0.26375  0.08706  0.21588  1.0000
  C   C30       1.0  0.25989  0.10620  0.22798  1.0000
  C   C31       1.0  0.27562  0.11340  0.23686  1.0000
  C   C32       1.0  0.29538  0.10187  0.23153  1.0000
  H   H36       1.0  0.28649  0.06095  0.20031  1.0000
  H   H37       1.0  0.25156  0.08139  0.20941  1.0000
  H   H38       1.0  0.27261  0.12787  0.24757  1.0000
  H   H39       1.0  0.30758  0.10746  0.23809  1.0000
  C   C33       1.0  0.16003  0.18576  0.35033  1.0000
  C   C34       1.0  0.17057  0.16645  0.36338  1.0000
  C   C35       1.0  0.16506  0.15638  0.40442  1.0000
  C   C36       1.0  0.14864  0.16544  0.43261  1.0000
  C   C37       1.0  0.13777  0.18469  0.41953  1.0000
  C   C38       1.0  0.14346  0.19485  0.37837  1.0000
  H   H40       1.0  0.18281  0.15905  0.34175  1.0000
  H   H41       1.0  0.17345  0.14148  0.41384  1.0000
  H   H42       1.0  0.12507  0.19175  0.44128  1.0000
  C   C39       1.0  0.31171  0.20702  0.13916  1.0000
  H   H43       1.0  0.12798  0.07028  0.38972  1.0000
  H   H44       1.0  0.02345  0.07821  0.27038  1.0000
  H   H45       1.0  0.10437  0.15386  0.25676  1.0000
  C   C40       1.0  0.99942  0.03034  0.37570  1.0000
  C   C41       1.0  0.03946  0.13690  0.33459  1.0000
  H   H46       1.0  0.07863  0.19229  0.21627  1.0000
  H   H47       1.0  0.31671  0.21062  0.07076  1.0000
  C   C42       1.0  0.19516  0.20015  0.39991  1.0000
  H   H48       1.0  0.04826  0.14902  0.32311  1.0000
  C   C43       1.0  0.06310  0.02140  0.11839  1.0000
  C   C44       1.0  0.22935  0.99194  0.32545  1.0000
  Fe  Fe9       1.0  0.30542  0.01500  0.31998  1.0000
  H   H49       1.0  0.13267  0.09149  0.16267  1.0000
  C   C45       1.0  0.24006  0.04288  0.52435  1.0000
  H   H50       1.0  0.29771  0.03061  0.54581  1.0000
  H   H51       1.0  0.10858  0.18160  0.33318  1.0000
  H   H52       1.0  0.05969  0.04268  0.16092  1.0000
  H   H53       1.0  0.05648  0.01868  0.18779  1.0000
  H   H54       1.0  0.23379  0.05932  0.51971  1.0000
  C   C46       1.0  0.24040  0.15473  0.11753  1.0000
  S   S18       1.0  0.09364  0.00259  0.22803  1.0000
  H   H55       1.0  0.00287  0.02543  0.16798  1.0000
  H   H56       1.0  0.17147  0.13967  0.29644  1.0000
  H   H57       1.0  0.03732  0.17191  0.27450  1.0000
  H   H58       1.0  0.01437  0.99792  0.49234  1.0000
  H   H59       1.0  0.06949  0.10203  0.35065  1.0000
  H   H60       1.0  0.30351  0.19593  0.01198  1.0000
  H   H61       1.0  0.29292  0.01543  0.44369  1.0000
  H   H62       1.0  0.09664  0.02084  0.53267  1.0000
  H   H63       1.0  0.01659  0.08068  0.57839  1.0000
  S   S19       1.0  0.02837  0.13146  0.12475  1.0000
  H   H64       1.0  0.12194  0.12878  0.38360  1.0000
  C   C47       1.0  0.01964  0.02069  0.16000  1.0000
  H   H65       1.0  0.27523  0.14099  0.15474  1.0000
  C   C48       1.0  0.20562  0.06275  0.25868  1.0000
  H   H66       1.0  0.04224  0.99966  0.53776  1.0000
  H   H67       1.0  0.27856  0.17414  0.04202  1.0000
  H   H68       1.0  0.22580  0.19862  0.40506  1.0000
  C   C49       1.0  0.02511  0.00005  0.18835  1.0000
  H   H69       1.0  0.18083  0.10584  0.23048  1.0000
  C   C50       1.0  0.30158  0.10411  0.11049  1.0000
  H   H70       1.0  0.19028  0.13682  0.24813  1.0000
  C   C51       1.0  0.02158  0.04260  0.20911  1.0000
  H   H71       1.0  0.26553  0.20977  0.20322  1.0000
  H   H72       1.0  0.31668  0.05193  0.40412  1.0000
  C   C52       1.0  0.08441  0.05783  0.56038  1.0000
  C   C53       1.0  0.08884  0.09048  0.51832  1.0000
  H   H73       1.0  0.10860  0.07807  0.66263  1.0000
  C   C54       1.0  0.10986  0.08030  0.59418  1.0000
  C   C55       1.0  0.07567  0.05002  0.52805  1.0000
  C   C56       1.0  0.30388  0.12383  0.07926  1.0000
  H   H74       1.0  0.02511  0.05153  0.28673  1.0000
  C   C57       1.0  0.09924  0.12175  0.47203  1.0000
  C   C58       1.0  0.11556  0.08626  0.63222  1.0000
  C   C59       1.0  0.08020  0.02701  0.53387  1.0000
  H   H75       1.0  0.12945  0.21780  0.24895  1.0000
  C   C60       1.0  0.02307  0.17535  0.22061  1.0000
  C   C61       1.0  0.05239  0.03004  0.16015  1.0000
  H   H76       1.0  0.03679  0.11498  0.39356  1.0000
  C   C62       1.0  0.11694  0.15045  0.32708  1.0000
  H   H77       1.0  0.10113  0.05267  0.55262  1.0000
  H   H78       1.0  0.10511  0.08324  0.51037  1.0000
  H   H79       1.0  0.08198  0.08827  0.49203  1.0000
  H   H80       1.0  0.31417  0.08423  0.06243  1.0000
  N   N1        1.0  0.01710  0.14528  0.33627  1.0000
  H   H81       1.0  0.11621  0.06397  0.59406  1.0000
  H   H82       1.0  0.11736  0.08875  0.56492  1.0000
  H   H83       1.0  0.08263  0.05546  0.49502  1.0000
  H   H84       1.0  0.99682  0.07185  0.16425  1.0000
  H   H85       1.0  0.07327  0.16921  0.17347  1.0000
  C   C63       1.0  0.21338  0.99786  0.29682  1.0000
  H   H86       1.0  0.08453  0.17130  0.28205  1.0000
  H   H87       1.0  0.05496  0.99343  0.37613  1.0000
  H   H88       1.0  0.23519  0.03562  0.50169  1.0000
  H   H89       1.0  0.09356  0.11871  0.44495  1.0000
  H   H90       1.0  0.09768  0.13831  0.46980  1.0000
  H   H91       1.0  0.11559  0.11475  0.46974  1.0000
  C   C64       1.0  0.06817  0.11456  0.36871  1.0000
  H   H92       1.0  0.04456  0.05916  0.21418  1.0000
  C   C65       1.0  0.02201  0.17233  0.26888  1.0000
  H   H93       1.0  0.07171  0.02084  0.56482  1.0000
  H   H94       1.0  0.01291  0.14613  0.42586  1.0000
  H   H95       1.0  0.29955  0.01330  0.49386  1.0000
  H   H96       1.0  0.31945  0.17620  0.98360  1.0000
  C   C66       1.0  0.22803  0.15209  0.51192  1.0000
  C   C67       1.0  0.23949  0.13713  0.42500  1.0000
  C   C68       1.0  0.21353  0.16238  0.54867  1.0000
  C   C69       1.0  0.21174  0.14758  0.59012  1.0000
  H   H97       1.0  0.20397  0.16453  0.45640  1.0000
  H   H98       1.0  0.22076  0.14022  0.50681  1.0000
  H   H99       1.0  0.24215  0.14377  0.52330  1.0000
  H   H100      1.0  0.23679  0.02349  0.41298  1.0000
  H   H101      1.0  0.23765  0.12471  0.45182  1.0000
  H   H102      1.0  0.21886  0.17534  0.55471  1.0000
  H   H103      1.0  0.19810  0.16780  0.54092  1.0000
  H   H104      1.0  0.22659  0.14262  0.60076  1.0000
  H   H105      1.0  0.20061  0.15500  0.61542  1.0000
  H   H106      1.0  0.20649  0.13418  0.58576  1.0000
  H   H107      1.0  0.24956  0.11535  0.38071  1.0000
  H   H108      1.0  0.02274  0.01824  0.12614  1.0000
  C   C70       1.0  0.09808  0.17026  0.25607  1.0000
  H   H109      1.0  0.29970  0.07321  0.11067  1.0000
  C   C71       1.0  0.13209  0.17965  0.23099  1.0000
  H   H110      1.0  0.15076  0.10421  0.34831  1.0000
  S   S20       1.0  0.24555  0.21198  0.13329  1.0000
  H   H111      1.0  0.02092  0.14107  0.27047  1.0000
  C   C72       1.0  0.14674  0.08305  0.17427  1.0000
  H   H112      1.0  0.14515  0.01884  0.18784  1.0000
  H   H113      1.0  0.28412  0.18552  0.39408  1.0000
  H   H114      1.0  0.26155  0.12726  0.10736  1.0000
  C   C73       1.0  0.31917  0.10826  0.65409  1.0000
  H   H115      1.0  0.18981  0.21284  0.41873  1.0000
  H   H116      1.0  0.05901  0.05503  0.53166  1.0000
  Fe  Fe10      1.0  0.23399  0.19509  0.19665  1.0000
  H   H117      1.0  0.07329  0.10800  0.39942  1.0000
  S   S21       1.0  0.25948  0.19084  0.33126  1.0000
  H   H118      1.0  0.02628  0.10248  0.33349  1.0000
  S   S22       1.0  0.21012  0.17656  0.20940  1.0000
  H   H119      1.0  0.99328  0.05531  0.13107  1.0000
  C   C74       1.0  0.02787  0.06125  0.21839  1.0000
  H   H120      1.0  0.05551  0.00620  0.28873  1.0000
  H   H121      1.0  0.27398  0.16495  0.12317  1.0000
  H   H122      1.0  0.01209  0.18239  0.42829  1.0000
  H   H123      1.0  0.31632  0.16206  0.40497  1.0000
  Fe  Fe11      1.0  0.31756  0.11747  0.51385  1.0000
  C   C75       1.0  0.30049  0.08722  0.08738  1.0000
  H   H124      1.0  0.17848  0.07624  0.21106  1.0000
  C   C76       1.0  0.04476  0.05089  0.44045  1.0000
  H   H125      1.0  0.14743  0.06667  0.17597  1.0000
  C   C77       1.0  0.00783  0.99517  0.41714  1.0000
  C   C78       1.0  0.16505  0.99747  0.22703  1.0000
  H   H126      1.0  0.09930  0.20986  0.23269  1.0000
  H   H127      1.0  0.01176  0.18582  0.28109  1.0000
  C   C79       1.0  0.06554  0.12350  0.14766  1.0000
  H   H128      1.0  0.13528  0.20986  0.36866  1.0000
  H   H129      1.0  0.30462  0.17311  0.08175  1.0000
  H   H130      1.0  0.30789  0.12661  0.15993  1.0000
  C   C80       1.0  0.16109  0.01039  0.18471  1.0000
  H   H131      1.0  0.04786  0.09734  0.26186  1.0000
  H   H132      1.0  0.02627  0.01886  0.40151  1.0000
  C   C81       1.0  0.21559  0.18791  0.40947  1.0000
  H   H133      1.0  0.09319  0.00838  0.08725  1.0000
  C   C82       1.0  0.99702  0.09500  0.35537  1.0000
  C   C83       1.0  0.04619  0.12604  0.37686  1.0000
  H   H134      1.0  0.29415  0.12561  0.05528  1.0000
  H   H135      1.0  0.00123  0.08132  0.33974  1.0000
  H   H136      1.0  0.13413  0.17428  0.30936  1.0000
  H   H137      1.0  0.00239  0.06731  0.27013  1.0000
  C   C84       1.0  0.08559  0.01292  0.11871  1.0000
  H   H138      1.0  0.13238  0.15126  0.20872  1.0000
  S   S23       1.0  0.22193  0.20914  0.25605  1.0000
  H   H139      1.0  0.20433  0.05156  0.23947  1.0000
  H   H140      1.0  0.99741  0.15664  0.29001  1.0000
  H   H141      1.0  0.25995  0.20417  0.51832  1.0000
  H   H142      1.0  0.21409  0.01301  0.27811  1.0000
  H   H143      1.0  0.11864  0.15450  0.39127  1.0000
  C   C85       1.0  0.13521  0.02891  0.41373  1.0000
  H   H144      1.0  0.06196  0.03344  0.09045  1.0000
  C   C86       1.0  0.04358  0.07750  0.60536  1.0000
  C   C87       1.0  0.02527  0.05492  0.13109  1.0000
  H   H145      1.0  0.14562  0.10450  0.21527  1.0000
  H   H146      1.0  0.06837  0.15821  0.22881  1.0000
  C   C88       1.0  0.30564  0.21031  0.09958  1.0000
  H   H147      1.0  0.23934  0.17133  0.11041  1.0000
  Fe  Fe12      1.0  0.24338  0.18321  0.28529  1.0000
  C   C89       1.0  0.14963  0.08205  0.30940  1.0000
  C   C90       1.0  0.14965  0.08817  0.35269  1.0000
  C   C91       1.0  0.12984  0.08611  0.38351  1.0000
  H   H148      1.0  0.18128  0.05214  0.30404  1.0000
  H   H149      1.0  0.18976  0.07090  0.32063  1.0000
  H   H150      1.0  0.13653  0.09269  0.29759  1.0000
  H   H151      1.0  0.14574  0.06686  0.31565  1.0000
  H   H152      1.0  0.18274  0.10421  0.32522  1.0000
  H   H153      1.0  0.16228  0.07867  0.36785  1.0000
  H   H154      1.0  0.20389  0.18656  0.47664  1.0000
  H   H155      1.0  0.04526  0.13724  0.39793  1.0000
  C   C92       1.0  0.18593  0.06687  0.29232  1.0000
  C   C93       1.0  0.31291  0.13821  0.13360  1.0000
  C   C94       1.0  0.07280  0.10702  0.21726  1.0000
  H   H156      1.0  0.31959  0.12132  0.06057  1.0000
  C   C95       1.0  0.25470  0.12806  0.38858  1.0000
  H   H157      1.0  0.26978  0.12232  0.39791  1.0000
  H   H158      1.0  0.14373  0.18577  0.24062  1.0000
  H   H159      1.0  0.21257  0.05591  0.41314  1.0000
  H   H160      1.0  0.09187  0.14910  0.19497  1.0000
  C   C96       1.0  0.28509  0.21296  0.09737  1.0000
  N   N2        1.0  0.16870  0.08224  0.27625  1.0000
  H   H161      1.0  0.12294  0.02396  0.40569  1.0000
  S   S24       1.0  0.30336  0.01940  0.25099  1.0000
  H   H162      1.0  0.15883  0.11459  0.26665  1.0000
  H   H163      1.0  0.22484  0.14302  0.41391  1.0000
  H   H164      1.0  0.13227  0.08232  0.62988  1.0000
  H   H165      1.0  0.22785  0.06650  0.29238  1.0000
  H   H166      1.0  0.19807  0.13404  0.29855  1.0000
  C   C97       1.0  0.18700  0.10869  0.29051  1.0000
  H   H167      1.0  0.03435  0.06637  0.13077  1.0000
  C   C98       1.0  0.12542  0.14364  0.36833  1.0000
  H   H168      1.0  0.19662  0.20641  0.36547  1.0000
  N   N3        1.0  0.23285  0.16588  0.47081  1.0000
  H   H169      1.0  0.26131  0.14585  0.45156  1.0000
  H   H170      1.0  0.04906  0.09639  0.45904  1.0000
  H   H171      1.0  0.28364  0.18644  0.52040  1.0000
  H   H172      1.0  0.27721  0.19853  0.46948  1.0000
  C   C99       1.0  0.31847  0.14743  0.35081  1.0000
  C   C100      1.0  0.24734  0.15370  0.43889  1.0000
  S   S25       1.0  0.05930  0.02933  0.42007  1.0000
  H   H173      1.0  0.26417  0.14777  0.06518  1.0000
  H   H174      1.0  0.31574  0.04301  0.59005  1.0000
  H   H175      1.0  0.15994  0.08747  0.15115  1.0000
  H   H176      1.0  0.25606  0.13955  0.35960  1.0000
  C   C101      1.0  0.02446  0.05137  0.45949  1.0000
  H   H177      1.0  0.20826  0.07665  0.23647  1.0000
  C   C102      1.0  0.01914  0.06471  0.26424  1.0000
  C   C103      1.0  0.31080  0.05278  0.56129  1.0000
  N   N4        1.0  0.02972  0.03707  0.16505  1.0000
  C   C104      1.0  0.17321  0.10321  0.26442  1.0000
  S   S26       1.0  0.16721  0.19838  0.29883  1.0000
  H   H178      1.0  0.23750  0.04882  0.25538  1.0000
  H   H179      1.0  0.25564  0.16849  0.53534  1.0000
  C   C105      1.0  0.16147  0.15899  0.18627  1.0000
  H   H180      1.0  0.03329  0.16233  0.20652  1.0000
  H   H181      1.0  0.08055  0.10084  0.60213  1.0000
  H   H182      1.0  0.31886  0.05669  0.46962  1.0000
  C   C106      1.0  0.30913  0.21090  0.28489  1.0000
  H   H183      1.0  0.07055  0.13082  0.11582  1.0000
  H   H184      1.0  0.04518  0.12636  0.31057  1.0000
  C   C107      1.0  0.24285  0.18208  0.47719  1.0000
  H   H185      1.0  0.23163  0.19377  0.49392  1.0000
  H   H186      1.0  0.25251  0.16382  0.40971  1.0000
  C   C108      1.0  0.18651  0.13127  0.28270  1.0000
  H   H187      1.0  0.22177  0.17749  0.38559  1.0000
  H   H188      1.0  0.07833  0.12474  0.35030  1.0000
  H   H189      1.0  0.20293  0.10094  0.28112  1.0000
  H   H190      1.0  0.01209  0.07870  0.63549  1.0000
  C   C109      1.0  0.28183  0.17366  0.33908  1.0000
  H   H191      1.0  0.99646  0.17334  0.34915  1.0000
  C   C110      1.0  0.26085  0.17477  0.50171  1.0000
  H   H192      1.0  0.27265  0.16300  0.48678  1.0000
  N   N5        1.0  0.29973  0.14253  0.10001  1.0000
  S   S27       1.0  0.06854  0.04813  0.29604  1.0000
  Fe  Fe13      1.0  0.09407  0.02400  0.27164  1.0000
  C   C111      1.0  0.08728  0.11356  0.51451  1.0000
  H   H193      1.0  0.15743  0.16794  0.15596  1.0000
  C   C112      1.0  0.30198  0.02142  0.46095  1.0000
  C   C113      1.0  0.27096  0.19213  0.50242  1.0000
  C   C114      1.0  0.99794  0.17680  0.43150  1.0000
  C   C115      1.0  0.04216  0.08395  0.45849  1.0000
  H   H194      1.0  0.24879  0.19036  0.44580  1.0000
  H   H195      1.0  0.26860  0.02283  0.52439  1.0000
  H   H196      1.0  0.14210  0.14212  0.36142  1.0000
  C   C116      1.0  0.16514  0.07562  0.23722  1.0000
  H   H197      1.0  0.99900  0.09031  0.38913  1.0000
  C   C117      1.0  0.07921  0.11637  0.17598  1.0000
  C   C118      1.0  0.22426  0.05430  0.27946  1.0000
  H   H198      1.0  0.22170  0.04170  0.30563  1.0000
  C   C119      1.0  0.09018  0.17813  0.21346  1.0000
  H   H199      1.0  0.28784  0.10653  0.13539  1.0000
  Fe  Fe14      1.0  0.23231  0.15280  0.24229  1.0000
  H   H200      1.0  0.27455  0.07883  0.40235  1.0000
  C   C120      1.0  0.30132  0.08553  0.35968  1.0000
  H   H201      1.0  0.09477  0.11810  0.16581  1.0000
  C   C121      1.0  0.29092  0.07650  0.40332  1.0000
  H   H202      1.0  0.26587  0.06491  0.47006  1.0000
  H   H203      1.0  0.29445  0.06754  0.49476  1.0000
  S   S28       1.0  0.32435  0.07002  0.20533  1.0000
  H   H204      1.0  0.99706  0.06894  0.49069  1.0000
  C   C122      1.0  0.29104  0.17453  0.37283  1.0000
  H   H205      1.0  0.26668  0.04692  0.54136  1.0000
  H   H206      1.0  0.07128  0.12164  0.51627  1.0000
  C   C123      1.0  0.26158  0.14364  0.10019  1.0000
  C   C124      1.0  0.27189  0.04838  0.47204  1.0000
  C   C125      1.0  0.30419  0.05286  0.48724  1.0000
  C   C126      1.0  0.26303  0.03932  0.51768  1.0000
  H   H207      1.0  0.26507  0.04321  0.44905  1.0000
  C   C127      1.0  0.29997  0.05366  0.41383  1.0000
  N   N6        1.0  0.29466  0.04393  0.45954  1.0000
  H   H208      1.0  0.31064  0.14187  0.22024  1.0000
  H   H209      1.0  0.29519  0.04579  0.39205  1.0000
  N   N7        1.0  0.11318  0.18095  0.26480  1.0000
  H   H210      1.0  0.29439  0.15433  0.01295  1.0000
  H   H211      1.0  0.29461  0.10180  0.35261  1.0000
  H   H212      1.0  0.12156  0.21041  0.30506  1.0000
  C   C128      1.0  0.08026  0.16274  0.20213  1.0000
  C   C129      1.0  0.29435  0.16683  0.02987  1.0000
  C   C130      1.0  0.05353  0.06732  0.43933  1.0000
  H   H213      1.0  0.00856  0.09502  0.10046  1.0000
  H   H214      1.0  0.23676  0.15019  0.15244  1.0000
  C   C131      1.0  0.30626  0.15948  0.06700  1.0000
  C   C132      1.0  0.30362  0.18269  0.99713  1.0000
  H   H215      1.0  0.30545  0.19703  0.27877  1.0000
  H   H216      1.0  0.02164  0.17196  0.35597  1.0000
  C   C133      1.0  0.29713  0.20726  0.17629  1.0000
  C   C134      1.0  0.27782  0.14850  0.12099  1.0000
  H   H217      1.0  0.29930  0.07792  0.33417  1.0000
  C   C135      1.0  0.02174  0.08468  0.47645  1.0000
  C   C136      1.0  0.27068  0.21207  0.13485  1.0000
  S   S29       1.0  0.25703  0.17038  0.22461  1.0000
  H   H218      1.0  0.32268  0.15521  0.05339  1.0000
  H   H219      1.0  0.29814  0.16618  0.16081  1.0000
  C   C137      1.0  0.03899  0.11186  0.20171  1.0000
  C   C138      1.0  0.31339  0.15650  0.15432  1.0000
  H   H220      1.0  0.16406  0.00077  0.15936  1.0000
  C   C139      1.0  0.10322  0.20294  0.26446  1.0000
  H   H221      1.0  0.00600  0.07827  0.06617  1.0000
  H   H222      1.0  0.31742  0.21681  0.94133  1.0000
  H   H223      1.0  0.04659  0.06098  0.60566  1.0000
  H   H224      1.0  0.14736  0.14879  0.24941  1.0000
  H   H225      1.0  0.28674  0.09128  0.07259  1.0000
  H   H226      1.0  0.31283  0.99683  0.08580  1.0000
  H   H227      1.0  0.12521  0.13983  0.30461  1.0000
  C   C140      1.0  0.27667  0.20979  0.17417  1.0000
  H   H228      1.0  0.07994  0.04957  0.59275  1.0000
  C   C141      1.0  0.01643  0.01273  0.38723  1.0000
  H   H229      1.0  0.11056  0.10278  0.63247  1.0000
  H   H230      1.0  0.31625  0.13584  0.29540  1.0000
  C   C142      1.0  0.30922  0.16123  0.37904  1.0000
  H   H231      1.0  0.09301  0.02438  0.12525  1.0000
  H   H232      1.0  0.03011  0.05019  0.09898  1.0000
  H   H233      1.0  0.16338  0.00797  0.25012  1.0000
  H   H234      1.0  0.05274  0.10441  0.56939  1.0000
  H   H235      1.0  0.22934  0.99803  0.48175  1.0000
  C   C143      1.0  0.08653  0.08483  0.59726  1.0000
  C   C144      1.0  0.00277  0.06575  0.13382  1.0000
  H   H236      1.0  0.01761  0.03868  0.46052  1.0000
  H   H237      1.0  0.16905  0.14344  0.18037  1.0000
  H   H238      1.0  0.17232  0.16579  0.19667  1.0000
  H   H239      1.0  0.02220  0.07513  0.19729  1.0000
  C   C145      1.0  0.14253  0.15832  0.22063  1.0000
  H   H240      1.0  0.30168  0.20474  0.20687  1.0000
  H   H241      1.0  0.99456  0.00195  0.43979  1.0000
  N   N8        1.0  0.07906  0.08033  0.56050  1.0000
  H   H242      1.0  0.00516  0.12390  0.38841  1.0000
  C   C146      1.0  0.11608  0.21651  0.27464  1.0000
  H   H243      1.0  0.10080  0.14913  0.33478  1.0000
  C   C147      1.0  0.11856  0.17264  0.30862  1.0000
  H   H244      1.0  0.17126  0.02141  0.17499  1.0000
  H   H245      1.0  0.08862  0.20442  0.28761  1.0000
  H   H246      1.0  0.18371  0.19051  0.40796  1.0000
  C   C148      1.0  0.24454  0.98794  0.47941  1.0000
  H   H247      1.0  0.29591  0.06263  0.57122  1.0000
  S   S30       1.0  0.32242  0.09957  0.46067  1.0000
  H   H248      1.0  0.14409  0.98693  0.32499  1.0000
  C   C149      1.0  0.00457  0.12932  0.35423  1.0000
  C   C150      1.0  0.01390  0.15297  0.29101  1.0000
  C   C151      1.0  0.00208  0.15807  0.40987  1.0000
  H   H249      1.0  0.31529  0.10773  0.62298  1.0000
  H   H250      1.0  0.12905  0.18947  0.20071  1.0000
  C   C152      1.0  0.01281  0.06847  0.47664  1.0000
  H   H251      1.0  0.04165  0.99403  0.18357  1.0000
  C   C153      1.0  0.05815  0.99236  0.27554  1.0000
  S   S31       1.0  0.00771  0.10586  0.49905  1.0000
  C   C154      1.0  0.00973  0.16288  0.36115  1.0000
  H   H252      1.0  0.31487  0.09880  0.12670  1.0000
  H   H253      1.0  0.10250  0.18118  0.18648  1.0000
  H   H254      1.0  0.05647  0.00901  0.11373  1.0000
  C   C155      1.0  0.30912  0.03971  0.52967  1.0000
  H   H255      1.0  0.30478  0.11268  0.67634  1.0000
  H   H256      1.0  0.30350  0.21254  0.31901  1.0000
  H   H257      1.0  0.29033  0.98691  0.22486  1.0000
  H   H258      1.0  0.00472  0.04520  0.21610  1.0000
  H   H259      1.0  0.01956  0.00148  0.22255  1.0000
  H   H260      1.0  0.28043  0.21493  0.06689  1.0000
  H   H261      1.0  0.30112  0.22405  0.26519  1.0000
  H   H262      1.0  0.03656  0.00119  0.45626  1.0000
  H   H263      1.0  0.24775  0.99056  0.39620  1.0000
  H   H264      1.0  0.99183  0.17295  0.46594  1.0000
  H   H265      1.0  0.13474  0.99272  0.25395  1.0000
  H   H266      1.0  0.31773  0.08400  0.35918  1.0000
  H   H267      1.0  0.18092  0.98895  0.22211  1.0000
  H   H268      1.0  0.24418  0.99315  0.30469  1.0000
  H   H269      1.0  0.06407  0.99285  0.49720  1.0000
  H   H270      1.0  0.32100  0.20143  0.67267  1.0000
  H   H271      1.0  0.25619  0.99678  0.46229  1.0000
  H   H272      1.0  0.19801  0.99849  0.31645  1.0000
  C   C156      1.0  0.00027  0.08345  0.09771  1.0000
  H   H273      1.0  0.32256  0.12978  0.71323  1.0000
  Fe  Fe15      1.0  0.99581  0.14050  0.15594  1.0000
  C   C157      1.0  0.32123  0.14998  0.19633  1.0000
  H   H274      1.0  0.32206  0.06241  0.54679  1.0000
  H   H275      1.0  0.31604  0.23538  0.00510  1.0000
  H   H276      1.0  0.00158  0.98826  0.39631  1.0000
  C   C158      1.0  0.05261  0.98689  0.52305  1.0000
  C   C159      1.0  0.02805  0.98950  0.47316  1.0000
  H   H277      1.0  0.99863  0.98926  0.18345  1.0000
  H   H278      1.0  0.32458  0.13810  0.63325  1.0000
  H   H279      1.0  0.32381  0.02901  0.52325  1.0000
  H   H280      1.0  0.32390  0.16376  0.68685  1.0000
  C   C160      1.0  0.32451  0.01440  0.44135  1.0000
  H   H281      1.0  0.32377  0.16560  0.13246  1.0000
  H   H282      1.0  0.32213  0.16354  0.20892  1.0000
  C   C161      1.0  0.07561  0.98714  0.24543  1.0000
  H   H283      1.0  0.29829  0.45591  0.88812  1.0000
  H   H284      1.0  0.27737  0.32565  0.01200  1.0000
  N   N9        1.0  0.30074  0.27549  0.09524  1.0000
  H   H285      1.0  0.28632  0.27513  0.18451  1.0000
  H   H286      1.0  0.26493  0.28746  0.15926  1.0000
  H   H287      1.0  0.27359  0.26309  0.10889  1.0000
  C   C162      1.0  0.31086  0.26383  0.05886  1.0000
  C   C163      1.0  0.32234  0.30832  0.83423  1.0000
  H   H288      1.0  0.29811  0.33843  0.00462  1.0000
  H   H289      1.0  0.29330  0.24806  0.13391  1.0000
  H   H290      1.0  0.09839  0.24494  0.24809  1.0000
  C   C164      1.0  0.28937  0.29615  0.07958  1.0000
  H   H291      1.0  0.29069  0.27796  0.01228  1.0000
  H   H292      1.0  0.11346  0.24718  0.28514  1.0000
  C   C165      1.0  0.26255  0.25871  0.19673  1.0000
  C   C166      1.0  0.30198  0.30954  0.04545  1.0000
  H   H293      1.0  0.31390  0.24643  0.87850  1.0000
  H   H294      1.0  0.25349  0.26624  0.22405  1.0000
  H   H295      1.0  0.31231  0.27675  0.81140  1.0000
  H   H296      1.0  0.28477  0.25495  0.04411  1.0000
  H   H297      1.0  0.29961  0.25041  0.96961  1.0000
  H   H298      1.0  0.28307  0.30492  0.10651  1.0000
  H   H299      1.0  0.32021  0.28153  0.87867  1.0000
  H   H300      1.0  0.27253  0.24479  0.20961  1.0000
  C   C167      1.0  0.27527  0.27281  0.16671  1.0000
  C   C168      1.0  0.28590  0.26400  0.12513  1.0000
  H   H301      1.0  0.31885  0.26548  0.74393  1.0000
  H   H302      1.0  0.30935  0.24274  0.81138  1.0000
  C   C169      1.0  0.28854  0.32902  0.02819  1.0000
  H   H303      1.0  0.27593  0.29498  0.06721  1.0000
  H   H304      1.0  0.31013  0.30180  0.01789  1.0000
  H   H305      1.0  0.25199  0.25459  0.18002  1.0000
  C   C170      1.0  0.29727  0.26273  0.02751  1.0000
  H   H306      1.0  0.28043  0.33778  0.05436  1.0000
  H   H307      1.0  0.31677  0.47740  0.91043  1.0000
  C   C171      1.0  0.30956  0.25104  0.99175  1.0000
  H   H308      1.0  0.32458  0.31698  0.85773  1.0000
  H   H309      1.0  0.32210  0.25849  0.97344  1.0000
  C   C172      1.0  0.31457  0.45039  0.88999  1.0000
  H   H310      1.0  0.31060  0.28867  0.14068  1.0000
  H   H311      1.0  0.31324  0.31387  0.05976  1.0000
  H   H312      1.0  0.30597  0.31149  0.83271  1.0000
  H   H313      1.0  0.09059  0.23750  0.30485  1.0000
  C   C173      1.0  0.31692  0.27791  0.11736  1.0000
  H   H314      1.0  0.31821  0.25017  0.16508  1.0000
  H   H315      1.0  0.31735  0.24799  0.07127  1.0000
  H   H316      1.0  0.31578  0.44078  0.92133  1.0000
  H   H317      1.0  0.32171  0.44106  0.86430  1.0000
  C   C174      1.0  0.31779  0.23727  0.72686  1.0000
  H   H318      1.0  0.31926  0.24324  0.69230  1.0000
  C   C175      1.0  0.32482  0.46831  0.88488  1.0000
  C   C176      1.0  0.10378  0.23782  0.27835  1.0000
  H   H319      1.0  0.32277  0.47754  0.85359  1.0000
  H   H320      1.0  0.30148  0.23815  0.74071  1.0000
  H   H321      1.0  0.32409  0.26998  0.03990  1.0000
  Fe  Fe16      1.0  0.11450  0.70213  0.08594  1.0000
  H   H322      1.0  0.01394  0.66289  0.96759  1.0000
  C   C177      1.0  0.00026  0.62147  0.88130  1.0000
  Fe  Fe17      1.0  0.08141  0.69915  0.16321  1.0000
  S   S32       1.0  0.05762  0.70037  0.12501  1.0000
  S   S33       1.0  0.07664  0.69763  0.23403  1.0000
  Fe  Fe18      1.0  0.08160  0.67915  0.08784  1.0000
  S   S34       1.0  0.07856  0.64956  0.07318  1.0000
  S   S35       1.0  0.99329  0.62673  0.09476  1.0000
  S   S36       1.0  0.10424  0.67591  0.12981  1.0000
  H   H323      1.0  0.06108  0.65201  0.94737  1.0000
  H   H324      1.0  0.04125  0.72751  0.35176  1.0000
  H   H325      1.0  0.29900  0.71190  0.32690  1.0000
  H   H326      1.0  0.01345  0.58752  0.28215  1.0000
  N   N10       1.0  0.12001  0.63972  0.24974  1.0000
  C   C178      1.0  0.28380  0.72559  0.16440  1.0000
  C   C179      1.0  0.30773  0.67896  0.08988  1.0000
  C   C180      1.0  0.17396  0.64244  0.18147  1.0000
  H   H327      1.0  0.19728  0.69949  0.16078  1.0000
  C   C181      1.0  0.02089  0.65106  0.94669  1.0000
  C   C182      1.0  0.09872  0.67665  0.33447  1.0000
  C   C183      1.0  0.28507  0.70991  0.34854  1.0000
  H   H328      1.0  0.32139  0.61945  0.30100  1.0000
  C   C184      1.0  0.24828  0.71761  0.36577  1.0000
  H   H329      1.0  0.26974  0.67570  0.00109  1.0000
  H   H330      1.0  0.27380  0.73153  0.00720  1.0000
  H   H331      1.0  0.26524  0.67818  0.25105  1.0000
  H   H332      1.0  0.30385  0.65134  0.31462  1.0000
  C   C185      1.0  0.30659  0.67107  0.00177  1.0000
  C   C186      1.0  0.10843  0.60926  0.30310  1.0000
  C   C187      1.0  0.10213  0.62732  0.20017  1.0000
  S   S37       1.0  0.26347  0.72061  0.14714  1.0000
  H   H333      1.0  0.02983  0.65850  0.91787  1.0000
  C   C188      1.0  0.23373  0.70349  0.01384  1.0000
  H   H334      1.0  0.13554  0.60835  0.25599  1.0000
  H   H335      1.0  0.27217  0.70031  0.97457  1.0000
  C   C189      1.0  0.12592  0.61952  0.27647  1.0000
  H   H336      1.0  0.07390  0.64174  0.17777  1.0000
  H   H337      1.0  0.13238  0.65683  0.19066  1.0000
  H   H338      1.0  0.27724  0.69352  0.08592  1.0000
  C   C190      1.0  0.08119  0.62672  0.19271  1.0000
  N   N11       1.0  0.29161  0.68809  0.02146  1.0000
  C   C191      1.0  0.28874  0.68211  0.06934  1.0000
  C   C192      1.0  0.16785  0.69718  0.19813  1.0000
  H   H339      1.0  0.00682  0.58041  0.23693  1.0000
  H   H340      1.0  0.13721  0.69471  0.22651  1.0000
  H   H341      1.0  0.12632  0.69800  0.15799  1.0000
  H   H342      1.0  0.12803  0.58006  0.31830  1.0000
  H   H343      1.0  0.25625  0.72315  0.48483  1.0000
  H   H344      1.0  0.17614  0.62849  0.16730  1.0000
  H   H345      1.0  0.24903  0.68721  0.06458  1.0000
  H   H346      1.0  0.09636  0.61968  0.32103  1.0000
  H   H347      1.0  0.09616  0.65728  0.21668  1.0000
  H   H348      1.0  0.08596  0.65717  0.30875  1.0000
  C   C193      1.0  0.27182  0.69056  0.00622  1.0000
  H   H349      1.0  0.29536  0.67337  0.94164  1.0000
  C   C194      1.0  0.26773  0.69487  0.41572  1.0000
  H   H350      1.0  0.08789  0.63946  0.25884  1.0000
  C   C195      1.0  0.05443  0.64349  0.08498  1.0000
  C   C196      1.0  0.03670  0.65829  0.09026  1.0000
  C   C197      1.0  0.01775  0.65318  0.09433  1.0000
  C   C198      1.0  0.01653  0.63321  0.09392  1.0000
  C   C199      1.0  0.03420  0.61832  0.09063  1.0000
  C   C200      1.0  0.05309  0.62348  0.08583  1.0000
  H   H351      1.0  0.03760  0.67376  0.08982  1.0000
  H   H352      1.0  0.00354  0.61566  0.98036  1.0000
  H   H353      1.0  0.03334  0.60289  0.09040  1.0000
  H   H354      1.0  0.06675  0.61200  0.08176  1.0000
  C   C201      1.0  0.05723  0.68462  0.25746  1.0000
  C   C202      1.0  0.05048  0.67379  0.23328  1.0000
  C   C203      1.0  0.03414  0.66436  0.25110  1.0000
  C   C204      1.0  0.02391  0.66651  0.29263  1.0000
  C   C205      1.0  0.03112  0.67671  0.31748  1.0000
  C   C206      1.0  0.04817  0.68533  0.30011  1.0000
  H   H355      1.0  0.05783  0.67268  0.20076  1.0000
  H   H356      1.0  0.02919  0.65593  0.23207  1.0000
  H   H357      1.0  0.02363  0.67779  0.35009  1.0000
  H   H358      1.0  0.05405  0.69296  0.31928  1.0000
  H   H359      1.0  0.26564  0.72921  0.30665  1.0000
  H   H360      1.0  0.00969  0.68171  0.88301  1.0000
  H   H361      1.0  0.31610  0.68588  0.93614  1.0000
  H   H362      1.0  0.32181  0.67002  0.00875  1.0000
  C   C207      1.0  0.02518  0.72639  0.35633  1.0000
  C   C208      1.0  0.29858  0.73080  0.22144  1.0000
  H   H363      1.0  0.27203  0.65657  0.28984  1.0000
  H   H364      1.0  0.26966  0.72244  0.23061  1.0000
  H   H365      1.0  0.07133  0.62199  0.22308  1.0000
  H   H366      1.0  0.02453  0.63756  0.87512  1.0000
  H   H367      1.0  0.08674  0.67683  0.36344  1.0000
  H   H368      1.0  0.28267  0.66796  0.07854  1.0000
  H   H369      1.0  0.10534  0.64459  0.33995  1.0000
  H   H370      1.0  0.18858  0.64335  0.18922  1.0000
  H   H371      1.0  0.99941  0.64994  0.22685  1.0000
  H   H372      1.0  0.21969  0.70837  0.03661  1.0000
  H   H373      1.0  0.16280  0.62871  0.24470  1.0000
  Fe  Fe19      1.0  0.23640  0.72776  0.19769  1.0000
  H   H374      1.0  0.11316  0.67726  0.34348  1.0000
  C   C209      1.0  0.11630  0.59135  0.33503  1.0000
  C   C210      1.0  0.14804  0.69611  0.19714  1.0000
  H   H375      1.0  0.99409  0.63809  0.00319  1.0000
  H   H376      1.0  0.04255  0.69562  0.01577  1.0000
  H   H377      1.0  0.10986  0.61174  0.21078  1.0000
  C   C211      1.0  0.13682  0.64241  0.21187  1.0000
  Fe  Fe20      1.0  0.19597  0.71764  0.24041  1.0000
  H   H378      1.0  0.10117  0.60345  0.28202  1.0000
  H   H379      1.0  0.12282  0.59647  0.35845  1.0000
  H   H380      1.0  0.15753  0.65585  0.23580  1.0000
  C   C212      1.0  0.10085  0.64163  0.23272  1.0000
  C   C213      1.0  0.28576  0.69736  0.38783  1.0000
  C   C214      1.0  0.18180  0.69914  0.16003  1.0000
  H   H381      1.0  0.09433  0.69029  0.31139  1.0000
  S   S38       1.0  0.17452  0.69688  0.24718  1.0000
  C   C215      1.0  0.30033  0.70690  0.00706  1.0000
  H   H382      1.0  0.32278  0.59502  0.25375  1.0000
  S   S39       1.0  0.09406  0.70346  0.03995  1.0000
  H   H383      1.0  0.03673  0.72406  0.19510  1.0000
  C   C216      1.0  0.24909  0.70535  0.40519  1.0000
  H   H384      1.0  0.00148  0.60497  0.82997  1.0000
  C   C217      1.0  0.15784  0.64227  0.22199  1.0000
  H   H385      1.0  0.23524  0.70386  0.42757  1.0000
  S   S40       1.0  0.22699  0.70662  0.25629  1.0000
  C   C218      1.0  0.27411  0.67221  0.27703  1.0000
  H   H386      1.0  0.99352  0.60988  0.90494  1.0000
  H   H387      1.0  0.99966  0.68391  0.18618  1.0000
  H   H388      1.0  0.08269  0.61585  0.17049  1.0000
  H   H389      1.0  0.01070  0.72136  0.20430  1.0000
  H   H390      1.0  0.11085  0.63266  0.16876  1.0000
  H   H391      1.0  0.26827  0.68179  0.30270  1.0000
  H   H392      1.0  0.13566  0.62087  0.29857  1.0000
  C   C219      1.0  0.15562  0.70024  0.11990  1.0000
  H   H393      1.0  0.10361  0.58398  0.35268  1.0000
  H   H394      1.0  0.16953  0.65576  0.15765  1.0000
  C   C220      1.0  0.25196  0.69877  0.03625  1.0000
  H   H395      1.0  0.13158  0.65648  0.28585  1.0000
  H   H396      1.0  0.02480  0.61614  0.91473  1.0000
  C   C221      1.0  0.14187  0.69794  0.15815  1.0000
  H   H397      1.0  0.04567  0.65736  0.99808  1.0000
  H   H398      1.0  0.23221  0.68989  0.00219  1.0000
  H   H399      1.0  0.18645  0.70201  0.09141  1.0000
  C   C222      1.0  0.03767  0.71184  0.01921  1.0000
  C   C223      1.0  0.17572  0.70048  0.12088  1.0000
  S   S41       1.0  0.00231  0.65622  0.31285  1.0000
  C   C224      1.0  0.01861  0.71907  0.40367  1.0000
  H   H400      1.0  0.23527  0.71584  0.98658  1.0000
  H   H401      1.0  0.32280  0.63709  0.36157  1.0000
  H   H402      1.0  0.11428  0.67154  0.25343  1.0000
  H   H403      1.0  0.26820  0.68511  0.44598  1.0000
  H   H404      1.0  0.30223  0.65633  0.01619  1.0000
  C   C225      1.0  0.05270  0.64534  0.97792  1.0000
  H   H405      1.0  0.29748  0.68851  0.24689  1.0000
  C   C226      1.0  0.29635  0.67261  0.25911  1.0000
  C   C227      1.0  0.26626  0.71955  0.33696  1.0000
  H   H406      1.0  0.02340  0.71491  0.33891  1.0000
  C   C228      1.0  0.10094  0.65748  0.31530  1.0000
  H   H407      1.0  0.28207  0.72404  0.05783  1.0000
  C   C229      1.0  0.01193  0.61121  0.84298  1.0000
  H   H408      1.0  0.30304  0.71056  0.97179  1.0000
  C   C230      1.0  0.32472  0.65403  0.93729  1.0000
  H   H409      1.0  0.29083  0.68197  0.15425  1.0000
  H   H410      1.0  0.30125  0.66412  0.23172  1.0000
  H   H411      1.0  0.06376  0.63394  0.99469  1.0000
  H   H412      1.0  0.13947  0.63021  0.19216  1.0000
  C   C231      1.0  0.11742  0.65683  0.27462  1.0000
  S   S42       1.0  0.14748  0.70338  0.07113  1.0000
  C   C232      1.0  0.30091  0.72969  0.13506  1.0000
  C   C233      1.0  0.00191  0.58182  0.27132  1.0000
  S   S43       1.0  0.22475  0.73182  0.35536  1.0000
  N   N12       1.0  0.00456  0.64307  0.93478  1.0000
  H   H413      1.0  0.29784  0.73098  0.25484  1.0000
  H   H414      1.0  0.19926  0.73497  0.07793  1.0000
  H   H415      1.0  0.02904  0.70483  0.41353  1.0000
  C   C234      1.0  0.30978  0.66408  0.29354  1.0000
  H   H416      1.0  0.02915  0.62843  0.00144  1.0000
  H   H417      1.0  0.03340  0.71309  0.05373  1.0000
  S   S44       1.0  0.30873  0.68349  0.40211  1.0000
  C   C235      1.0  0.99444  0.63124  0.97456  1.0000
  H   H418      1.0  0.31907  0.64000  0.95181  1.0000
  H   H419      1.0  0.02409  0.71973  0.96293  1.0000
  C   C236      1.0  0.28267  0.72603  0.20765  1.0000
  C   C237      1.0  0.30973  0.67250  0.95249  1.0000
  C   C238      1.0  0.03655  0.63535  0.97006  1.0000
  H   H420      1.0  0.02618  0.72687  0.27103  1.0000
  H   H421      1.0  0.30700  0.67582  0.31447  1.0000
  H   H422      1.0  0.00088  0.56663  0.28958  1.0000
  C   C239      1.0  0.02099  0.73224  0.19316  1.0000
  H   H423      1.0  0.00416  0.66477  0.09745  1.0000
  H   H424      1.0  0.02422  0.59861  0.85250  1.0000
  C   C240      1.0  0.01452  0.62969  0.90126  1.0000
  H   H425      1.0  0.29923  0.65629  0.14341  1.0000
  C   C241      1.0  0.30334  0.67132  0.13765  1.0000
  C   C242      1.0  0.32379  0.62453  0.26623  1.0000
  H   H426      1.0  0.01858  0.62223  0.81741  1.0000
  H   H427      1.0  0.04451  0.62316  0.95104  1.0000
  H   H428      1.0  0.30864  0.63079  0.25753  1.0000
  H   H429      1.0  0.00314  0.71591  0.40974  1.0000
  H   H430      1.0  0.99989  0.73584  0.28058  1.0000
  C   C243      1.0  0.28723  0.72637  0.02298  1.0000
  H   H431      1.0  0.31556  0.70438  0.01567  1.0000
  H   H432      1.0  0.25261  0.71261  0.04790  1.0000
  Fe  Fe21      1.0  0.07181  0.72453  0.08093  1.0000
  H   H433      1.0  0.31707  0.66997  0.15138  1.0000
  C   C244      1.0  0.31531  0.73569  0.19193  1.0000
  H   H434      1.0  0.05629  0.72992  0.28645  1.0000
  H   H435      1.0  0.31277  0.69344  0.08593  1.0000
  H   H436      1.0  0.12930  0.72814  0.24884  1.0000
  H   H437      1.0  0.00395  0.66594  0.85076  1.0000
  H   H438      1.0  0.05060  0.71942  0.00490  1.0000
  H   H439      1.0  0.01886  0.73046  0.42339  1.0000
  H   H440      1.0  0.00757  0.71259  0.01167  1.0000
  C   C245      1.0  0.99774  0.67471  0.87762  1.0000
  H   H441      1.0  0.32032  0.66760  0.07587  1.0000
  H   H442      1.0  0.30193  0.72932  0.10172  1.0000
  C   C246      1.0  0.01957  0.72138  0.99716  1.0000
  C   C247      1.0  0.31657  0.73496  0.14874  1.0000
  Fe  Fe22      1.0  0.21974  0.73402  0.28861  1.0000
  S   S45       1.0  0.09331  0.72525  0.12275  1.0000
  S   S46       1.0  0.20603  0.73635  0.17871  1.0000
  C   C248      1.0  0.99862  0.79001  0.31854  1.0000
  H   H443      1.0  0.03060  0.96839  0.53242  1.0000
  S   S47       1.0  0.20072  0.86796  0.24614  1.0000
  C   C249      1.0  0.00119  0.77462  0.28763  1.0000
  H   H444      1.0  0.19422  0.80035  0.30798  1.0000
  Fe  Fe23      1.0  0.23274  0.86899  0.24791  1.0000
  C   C250      1.0  0.28175  0.78852  0.17235  1.0000
  S   S48       1.0  0.18770  0.74357  0.27733  1.0000
  H   H445      1.0  0.03392  0.75714  0.85171  1.0000
  Fe  Fe24      1.0  0.20079  0.76143  0.21685  1.0000
  H   H446      1.0  0.32179  0.98399  0.43755  1.0000
  S   S49       1.0  0.18457  0.79164  0.18847  1.0000
  H   H447      1.0  0.04143  0.76530  0.31181  1.0000
  H   H448      1.0  0.25788  0.81395  0.18149  1.0000
  H   H449      1.0  0.30987  0.91252  0.17516  1.0000
  S   S50       1.0  0.23219  0.75435  0.23139  1.0000
  S   S51       1.0  0.28976  0.87041  0.12534  1.0000
  C   C251      1.0  0.99942  0.90468  0.18250  1.0000
  H   H450      1.0  0.00641  0.79676  0.95584  1.0000
  H   H451      1.0  0.00021  0.85088  0.33456  1.0000
  H   H452      1.0  0.23977  0.74598  0.42910  1.0000
  C   C252      1.0  0.24070  0.83968  0.43670  1.0000
  H   H453      1.0  0.26160  0.78131  0.06907  1.0000
  C   C253      1.0  0.01470  0.79332  0.12492  1.0000
  H   H454      1.0  0.29635  0.75933  0.34844  1.0000
  C   C254      1.0  0.24684  0.81688  0.43680  1.0000
  C   C255      1.0  0.02245  0.77964  0.09580  1.0000
  C   C256      1.0  0.02704  0.79670  0.15050  1.0000
  C   C257      1.0  0.01507  0.74927  0.22019  1.0000
  H   H455      1.0  0.22813  0.80174  0.32453  1.0000
  C   C258      1.0  0.27124  0.81017  0.15621  1.0000
  C   C259      1.0  0.06508  0.95631  0.24224  1.0000
  H   H456      1.0  0.99264  0.92055  0.18720  1.0000
  H   H457      1.0  0.00465  0.74406  0.03738  1.0000
  H   H458      1.0  0.10228  0.94125  0.29959  1.0000
  C   C260      1.0  0.17436  0.95213  0.26258  1.0000
  C   C261      1.0  0.28996  0.78835  0.21248  1.0000
  H   H459      1.0  0.01927  0.96980  0.19929  1.0000
  H   H460      1.0  0.00472  0.78255  0.25453  1.0000
  H   H461      1.0  0.07837  0.75262  0.29381  1.0000
  C   C262      1.0  0.27360  0.96294  0.24157  1.0000
  H   H462      1.0  0.07064  0.96101  0.34501  1.0000
  H   H463      1.0  0.28471  0.96408  0.39789  1.0000
  H   H464      1.0  0.24122  0.87579  0.11616  1.0000
  H   H465      1.0  0.22765  0.77065  0.14206  1.0000
  H   H466      1.0  0.99574  0.97184  0.48712  1.0000
  H   H467      1.0  0.14015  0.94305  0.31975  1.0000
  H   H468      1.0  0.06793  0.94233  0.22949  1.0000
  H   H469      1.0  0.22434  0.83689  0.13416  1.0000
  H   H470      1.0  0.17104  0.74413  0.13434  1.0000
  C   C263      1.0  0.23344  0.80949  0.41288  1.0000
  H   H471      1.0  0.25615  0.77539  0.31505  1.0000
  H   H472      1.0  0.05672  0.78880  0.16716  1.0000
  C   C264      1.0  0.04716  0.78626  0.14725  1.0000
  H   H473      1.0  0.23317  0.96024  0.32486  1.0000
  H   H474      1.0  0.23966  0.84366  0.16518  1.0000
  H   H475      1.0  0.09791  0.76253  0.05421  1.0000
  H   H476      1.0  0.01844  0.95352  0.49080  1.0000
  H   H477      1.0  0.01495  0.78277  0.00367  1.0000
  C   C265      1.0  0.24399  0.77444  0.44447  1.0000
  C   C266      1.0  0.19724  0.84654  0.22924  1.0000
  C   C267      1.0  0.21091  0.82806  0.23386  1.0000
  C   C268      1.0  0.20725  0.81106  0.22124  1.0000
  C   C269      1.0  0.19001  0.81258  0.20376  1.0000
  C   C270      1.0  0.17665  0.83116  0.19838  1.0000
  C   C271      1.0  0.18013  0.84802  0.21151  1.0000
  H   H478      1.0  0.22400  0.82674  0.24809  1.0000
  H   H479      1.0  0.21764  0.79679  0.22549  1.0000
  H   H480      1.0  0.16334  0.83243  0.18489  1.0000
  H   H481      1.0  0.16952  0.86226  0.20794  1.0000
  H   H482      1.0  0.21568  0.87309  0.13967  1.0000
  C   C272      1.0  0.29130  0.97080  0.23230  1.0000
  N   N13       1.0  0.24052  0.78809  0.40326  1.0000
  H   H483      1.0  0.24236  0.89376  0.38605  1.0000
  H   H484      1.0  0.00604  0.74670  0.91219  1.0000
  Fe  Fe25      1.0  0.99828  0.95889  0.30551  1.0000
  C   C273      1.0  0.05490  0.77249  0.11815  1.0000
  H   H485      1.0  0.17563  0.95174  0.22795  1.0000
  H   H486      1.0  0.01314  0.87695  0.21603  1.0000
  H   H487      1.0  0.29616  0.77265  0.22573  1.0000
  H   H488      1.0  0.30262  0.80346  0.39740  1.0000
  H   H489      1.0  0.16735  0.96246  0.41956  1.0000
  C   C274      1.0  0.02740  0.85630  0.29219  1.0000
  H   H490      1.0  0.99848  0.85347  0.28017  1.0000
  H   H491      1.0  0.06058  0.97667  0.54768  1.0000
  H   H492      1.0  0.11050  0.92930  0.25244  1.0000
  C   C275      1.0  0.00718  0.88923  0.36519  1.0000
  C   C276      1.0  0.03618  0.83467  0.28344  1.0000
  C   C277      1.0  0.02336  0.89905  0.37340  1.0000
  S   S52       1.0  0.01711  0.81369  0.18708  1.0000
  H   H493      1.0  0.25353  0.95144  0.10933  1.0000
  H   H494      1.0  0.01932  0.89469  0.29758  1.0000
  H   H495      1.0  0.11613  0.74721  0.18586  1.0000
  H   H496      1.0  0.31092  0.81893  0.00522  1.0000
  H   H497      1.0  0.24506  0.80967  0.47066  1.0000
  N   N14       1.0  0.15510  0.96621  0.27923  1.0000
  H   H498      1.0  0.02490  0.75085  0.99945  1.0000
  H   H499      1.0  0.01761  0.89947  0.23040  1.0000
  H   H500      1.0  0.03361  0.85846  0.31936  1.0000
  H   H501      1.0  0.03315  0.86655  0.26404  1.0000
  H   H502      1.0  0.25071  0.84453  0.45353  1.0000
  H   H503      1.0  0.32294  0.87413  0.05752  1.0000
  H   H504      1.0  0.17352  0.92803  0.31918  1.0000
  N   N15       1.0  0.01689  0.75556  0.29502  1.0000
  C   C278      1.0  0.30882  0.80166  0.36451  1.0000
  C   C279      1.0  0.24316  0.92553  0.37795  1.0000
  C   C280      1.0  0.01163  0.74385  0.00319  1.0000
  C   C281      1.0  0.21556  0.79768  0.35000  1.0000
  H   H505      1.0  0.19024  0.78272  0.35595  1.0000
  H   H506      1.0  0.03128  0.83208  0.25488  1.0000
  H   H507      1.0  0.05298  0.83199  0.27723  1.0000
  H   H508      1.0  0.03119  0.82369  0.31125  1.0000
  H   H509      1.0  0.02515  0.89470  0.40728  1.0000
  H   H510      1.0  0.03817  0.89411  0.35290  1.0000
  H   H511      1.0  0.01882  0.91573  0.36686  1.0000
  H   H512      1.0  0.17431  0.98316  0.38046  1.0000
  H   H513      1.0  0.21386  0.96944  0.36662  1.0000
  H   H514      1.0  0.23007  0.77697  0.46926  1.0000
  S   S53       1.0  0.25240  0.93252  0.26194  1.0000
  H   H515      1.0  0.22548  0.86929  0.08501  1.0000
  S   S54       1.0  0.24577  0.89285  0.20109  1.0000
  S   S55       1.0  0.26029  0.84463  0.23610  1.0000
  C   C282      1.0  0.13289  0.74327  0.23639  1.0000
  H   H516      1.0  0.20965  0.92538  0.28300  1.0000
  H   H517      1.0  0.29209  0.77908  0.30389  1.0000
  H   H518      1.0  0.29466  0.78228  0.14852  1.0000
  H   H519      1.0  0.25628  0.77813  0.45687  1.0000
  H   H520      1.0  0.26207  0.74400  0.50239  1.0000
  H   H521      1.0  0.26810  0.97593  0.33876  1.0000
  C   C283      1.0  0.07594  0.75089  0.26215  1.0000
  H   H522      1.0  0.01744  0.94054  0.42615  1.0000
  Fe  Fe26      1.0  0.27001  0.85552  0.28782  1.0000
  S   S56       1.0  0.03115  0.94433  0.29043  1.0000
  H   H523      1.0  0.27778  0.79496  0.23729  1.0000
  H   H524      1.0  0.24026  0.75632  0.09949  1.0000
  H   H525      1.0  0.29008  0.75390  0.30167  1.0000
  H   H526      1.0  0.99834  0.92698  0.49650  1.0000
  H   H527      1.0  0.29124  0.91414  0.09612  1.0000
  H   H528      1.0  0.99995  0.75825  0.21504  1.0000
  C   C284      1.0  0.25994  0.78690  0.37079  1.0000
  H   H529      1.0  0.26016  0.80137  0.34859  1.0000
  C   C285      1.0  0.00983  0.96414  0.46769  1.0000
  H   H530      1.0  0.14744  0.77286  0.18409  1.0000
  C   C286      1.0  0.25576  0.93779  0.13365  1.0000
  H   H531      1.0  0.22498  0.78105  0.08777  1.0000
  S   S57       1.0  0.24124  0.87803  0.30311  1.0000
  C   C287      1.0  0.20200  0.78862  0.33076  1.0000
  N   N16       1.0  0.13651  0.77747  0.12433  1.0000
  C   C288      1.0  0.12437  0.76718  0.10488  1.0000
  H   H532      1.0  0.21786  0.81152  0.43228  1.0000
  C   C289      1.0  0.12793  0.79987  0.11716  1.0000
  C   C290      1.0  0.15856  0.77412  0.10355  1.0000
  C   C291      1.0  0.16965  0.75200  0.10175  1.0000
  C   C292      1.0  0.12505  0.77316  0.05606  1.0000
  C   C293      1.0  0.13728  0.81320  0.13787  1.0000
  H   H533      1.0  0.28849  0.79117  0.08316  1.0000
  C   C294      1.0  0.30290  0.94658  0.35035  1.0000
  C   C295      1.0  0.12607  0.83517  0.13196  1.0000
  H   H534      1.0  0.03482  0.96636  0.38434  1.0000
  C   C296      1.0  0.05852  0.97891  0.39702  1.0000
  H   H535      1.0  0.13659  0.80812  0.17259  1.0000
  H   H536      1.0  0.11125  0.80281  0.12901  1.0000
  H   H537      1.0  0.13008  0.80591  0.08258  1.0000
  H   H538      1.0  0.16048  0.78253  0.07057  1.0000
  H   H539      1.0  0.16734  0.78053  0.12063  1.0000
  H   H540      1.0  0.02603  0.75937  0.20832  1.0000
  H   H541      1.0  0.11744  0.78911  0.04825  1.0000
  H   H542      1.0  0.10816  0.77021  0.12076  1.0000
  H   H543      1.0  0.15339  0.81286  0.12286  1.0000
  H   H544      1.0  0.20628  0.81177  0.36135  1.0000
  H   H545      1.0  0.01272  0.77681  0.07675  1.0000
  H   H546      1.0  0.04561  0.95351  0.42931  1.0000
  C   C297      1.0  0.05570  0.74475  0.26608  1.0000
  C   C298      1.0  0.00422  0.89474  0.31802  1.0000
  H   H547      1.0  0.10995  0.83649  0.14779  1.0000
  H   H548      1.0  0.13316  0.84442  0.14653  1.0000
  H   H549      1.0  0.12687  0.84127  0.09755  1.0000
  C   C299      1.0  0.31429  0.85581  0.11727  1.0000
  H   H550      1.0  0.24232  0.84785  0.40354  1.0000
  H   H551      1.0  0.26049  0.75614  0.35889  1.0000
  H   H552      1.0  0.99630  0.91087  0.31374  1.0000
  C   C300      1.0  0.03764  0.76095  0.28371  1.0000
  H   H553      1.0  0.24952  0.93667  0.42986  1.0000
  C   C301      1.0  0.14984  0.98313  0.24373  1.0000
  H   H554      1.0  0.02719  0.78322  0.86066  1.0000
  H   H555      1.0  0.27875  0.94697  0.15545  1.0000
  H   H556      1.0  0.16179  0.74379  0.08657  1.0000
  H   H557      1.0  0.12074  0.78024  0.18927  1.0000
  Fe  Fe27      1.0  0.25705  0.89974  0.25493  1.0000
  H   H558      1.0  0.12132  0.74413  0.04500  1.0000
  H   H559      1.0  0.23216  0.92923  0.35591  1.0000
  H   H560      1.0  0.27790  0.92057  0.17035  1.0000
  H   H561      1.0  0.30512  0.98453  0.13903  1.0000
  N   N17       1.0  0.26482  0.81357  0.11353  1.0000
  H   H562      1.0  0.31061  0.94720  0.15319  1.0000
  C   C302      1.0  0.24807  0.80248  0.11522  1.0000
  C   C303      1.0  0.25647  0.83589  0.10270  1.0000
  H   H563      1.0  0.05227  0.76875  0.86440  1.0000
  H   H564      1.0  0.14295  0.94097  0.23720  1.0000
  H   H565      1.0  0.12929  0.75051  0.11073  1.0000
  C   C304      1.0  0.23683  0.84476  0.13250  1.0000
  C   C305      1.0  0.25425  0.78088  0.10311  1.0000
  C   C306      1.0  0.23562  0.77170  0.10846  1.0000
  H   H566      1.0  0.25319  0.92474  0.12164  1.0000
  S   S58       1.0  0.05211  0.75279  0.05423  1.0000
  C   C307      1.0  0.22941  0.86711  0.11717  1.0000
  H   H567      1.0  0.27727  0.81125  0.04734  1.0000
  C   C308      1.0  0.13719  0.95601  0.29436  1.0000
  H   H568      1.0  0.23834  0.80165  0.14747  1.0000
  H   H569      1.0  0.23775  0.81102  0.09291  1.0000
  H   H570      1.0  0.25345  0.83942  0.06946  1.0000
  C   C309      1.0  0.04764  0.96140  0.27235  1.0000
  H   H571      1.0  0.26068  0.96075  0.45522  1.0000
  H   H572      1.0  0.26305  0.81316  0.42208  1.0000
  C   C310      1.0  0.28247  0.80769  0.07860  1.0000
  H   H573      1.0  0.26483  0.77069  0.12279  1.0000
  H   H574      1.0  0.14087  0.77101  0.03842  1.0000
  H   H575      1.0  0.20325  0.91884  0.23686  1.0000
  H   H576      1.0  0.16733  0.92180  0.27357  1.0000
  C   C311      1.0  0.27705  0.93345  0.14400  1.0000
  S   S59       1.0  0.28108  0.83562  0.34449  1.0000
  H   H577      1.0  0.24442  0.94049  0.16301  1.0000
  H   H578      1.0  0.17896  0.95217  0.34833  1.0000
  H   H579      1.0  0.30237  0.79691  0.20489  1.0000
  H   H580      1.0  0.14854  0.74279  0.24067  1.0000
  C   C312      1.0  0.00390  0.86023  0.30300  1.0000
  C   C313      1.0  0.04257  0.76928  0.09214  1.0000
  C   C314      1.0  0.28720  0.76541  0.32290  1.0000
  H   H581      1.0  0.27068  0.77842  0.18108  1.0000
  C   C315      1.0  0.31025  0.95779  0.23096  1.0000
  H   H582      1.0  0.03910  0.74644  0.92712  1.0000
  H   H583      1.0  0.11503  0.76489  0.00413  1.0000
  H   H584      1.0  0.30298  0.82379  0.26372  1.0000
  H   H585      1.0  0.03778  0.77460  0.25889  1.0000
  C   C316      1.0  0.22963  0.97016  0.34987  1.0000
  C   C317      1.0  0.27476  0.94206  0.25023  1.0000
  H   H586      1.0  0.15256  0.95108  0.36849  1.0000
  H   H587      1.0  0.28130  0.82065  0.15624  1.0000
  H   H588      1.0  0.03221  0.77210  0.93596  1.0000
  H   H589      1.0  0.23239  0.82025  0.38272  1.0000
  H   H590      1.0  0.29467  0.91309  0.25846  1.0000
  C   C318      1.0  0.19902  0.91856  0.27192  1.0000
  Fe  Fe28      1.0  0.27416  0.86939  0.19342  1.0000
  H   H591      1.0  0.26767  0.84489  0.10368  1.0000
  H   H592      1.0  0.22478  0.84387  0.45310  1.0000
  H   H593      1.0  0.29796  0.96774  0.08472  1.0000
  C   C319      1.0  0.13002  0.94853  0.25922  1.0000
  H   H594      1.0  0.27302  0.78498  0.38710  1.0000
  H   H595      1.0  0.28938  0.94022  0.07757  1.0000
  H   H596      1.0  0.20048  0.90261  0.28736  1.0000
  H   H597      1.0  0.21119  0.77614  0.31352  1.0000
  H   H598      1.0  0.22801  0.76765  0.37817  1.0000
  H   H599      1.0  0.21042  0.78179  0.41420  1.0000
  C   C320      1.0  0.22361  0.78281  0.38771  1.0000
  H   H600      1.0  0.07049  0.76477  0.11522  1.0000
  C   C321      1.0  0.13425  0.77069  0.17207  1.0000
  C   C322      1.0  0.26471  0.77032  0.34175  1.0000
  H   H601      1.0  0.22443  0.90730  0.42512  1.0000
  H   H602      1.0  0.08836  0.73893  0.24933  1.0000
  H   H603      1.0  0.29705  0.83404  0.07002  1.0000
  C   C323      1.0  0.30101  0.81554  0.33167  1.0000
  C   C324      1.0  0.29364  0.92911  0.25017  1.0000
  C   C325      1.0  0.29337  0.92838  0.10437  1.0000
  C   C326      1.0  0.00611  0.89242  0.22322  1.0000
  S   S60       1.0  0.28673  0.87793  0.24384  1.0000
  C   C327      1.0  0.11576  0.93390  0.27838  1.0000
  H   H604      1.0  0.12158  0.96154  0.24001  1.0000
  H   H605      1.0  0.31568  0.94261  0.36806  1.0000
  H   H606      1.0  0.25903  0.97305  0.24171  1.0000
  C   C328      1.0  0.11414  0.76035  0.03906  1.0000
  N   N18       1.0  0.24412  0.96271  0.38100  1.0000
  C   C329      1.0  0.26536  0.96093  0.35568  1.0000
  H   H607      1.0  0.01345  0.79142  0.32423  1.0000
  C   C330      1.0  0.07574  0.96513  0.37168  1.0000
  H   H608      1.0  0.07652  0.76524  0.23993  1.0000
  C   C331      1.0  0.15797  0.97565  0.31514  1.0000
  H   H609      1.0  0.30952  0.92120  0.02365  1.0000
  C   C332      1.0  0.19111  0.75093  0.07602  1.0000
  C   C333      1.0  0.17723  0.92972  0.28405  1.0000
  C   C334      1.0  0.16341  0.96124  0.35560  1.0000
  C   C335      1.0  0.28293  0.95235  0.38068  1.0000
  C   C336      1.0  0.03598  0.76800  0.87080  1.0000
  H   H610      1.0  0.19961  0.75939  0.08910  1.0000
  H   H611      1.0  0.03073  0.98352  0.31193  1.0000
  H   H612      1.0  0.18780  0.95799  0.26462  1.0000
  C   C337      1.0  0.30109  0.81738  0.07402  1.0000
  C   C338      1.0  0.03980  0.96886  0.41296  1.0000
  H   H613      1.0  0.08130  0.95111  0.39267  1.0000
  H   H614      1.0  0.32105  0.79527  0.03552  1.0000
  H   H615      1.0  0.12367  0.92015  0.29672  1.0000
  C   C339      1.0  0.25045  0.75150  0.44275  1.0000
  H   H616      1.0  0.30271  0.93335  0.33571  1.0000
  H   H617      1.0  0.05174  0.96300  0.49008  1.0000
  H   H618      1.0  0.28060  0.93865  0.40363  1.0000
  C   C340      1.0  0.16323  0.97306  0.39101  1.0000
  H   H619      1.0  0.23434  0.96132  0.47585  1.0000
  C   C341      1.0  0.31686  0.81187  0.03490  1.0000
  C   C342      1.0  0.13134  0.74880  0.18917  1.0000
  C   C343      1.0  0.01535  0.98429  0.17812  1.0000
  H   H620      1.0  0.19067  0.75722  0.04204  1.0000
  H   H621      1.0  0.22410  0.94467  0.42290  1.0000
  C   C344      1.0  0.00384  0.95034  0.44204  1.0000
  C   C345      1.0  0.31137  0.93693  0.23997  1.0000
  C   C346      1.0  0.23991  0.97797  0.41123  1.0000
  C   C347      1.0  0.02923  0.76123  0.91834  1.0000
  H   H622      1.0  0.01376  0.75728  0.36236  1.0000
  C   C348      1.0  0.29907  0.74341  0.01193  1.0000
  H   H623      1.0  0.32438  0.96427  0.05934  1.0000
  H   H624      1.0  0.26736  0.95178  0.32996  1.0000
  C   C349      1.0  0.32476  0.78545  0.35492  1.0000
  H   H625      1.0  0.09203  0.96538  0.20433  1.0000
  C   C350      1.0  0.04404  0.97961  0.28848  1.0000
  H   H626      1.0  0.30995  0.83451  0.17480  1.0000
  H   H627      1.0  0.24760  0.98208  0.51216  1.0000
  C   C351      1.0  0.23999  0.94264  0.40508  1.0000
  H   H628      1.0  0.22347  0.98501  0.41719  1.0000
  C   C352      1.0  0.07876  0.96934  0.22815  1.0000
  H   H629      1.0  0.14275  0.73777  0.17166  1.0000
  N   N19       1.0  0.02196  0.97948  0.44197  1.0000
  H   H630      1.0  0.08852  0.97295  0.35816  1.0000
  H   H631      1.0  0.12391  0.96657  0.30957  1.0000
  H   H632      1.0  0.28942  0.75717  0.02402  1.0000
  H   H633      1.0  0.26595  0.74794  0.42387  1.0000
  H   H634      1.0  0.25115  0.90076  0.42821  1.0000
  C   C353      1.0  0.24539  0.97035  0.45627  1.0000
  C   C354      1.0  0.24004  0.90568  0.40627  1.0000
  H   H635      1.0  0.25873  0.92279  0.35911  1.0000
  H   H636      1.0  0.99771  0.81784  0.27400  1.0000
  H   H637      1.0  0.02095  0.98170  0.14452  1.0000
  H   H638      1.0  0.99533  0.95918  0.41728  1.0000
  C   C355      1.0  0.01213  0.74691  0.34162  1.0000
  H   H639      1.0  0.99919  0.80133  0.12744  1.0000
  C   C356      1.0  0.04079  0.97532  0.50511  1.0000
  H   H640      1.0  0.12208  0.75434  0.25533  1.0000
  C   C357      1.0  0.31374  0.96480  0.09020  1.0000
  H   H641      1.0  0.30383  0.74696  0.97688  1.0000
  H   H642      1.0  0.14836  0.97691  0.21565  1.0000
  H   H643      1.0  0.06454  0.98173  0.42377  1.0000
  H   H644      1.0  0.17045  0.98411  0.30436  1.0000
  H   H645      1.0  0.30839  0.81186  0.10250  1.0000
  C   C358      1.0  0.00143  0.79030  0.98945  1.0000
  C   C359      1.0  0.30907  0.81321  0.28918  1.0000
  C   C360      1.0  0.31598  0.98278  0.10864  1.0000
  C   C361      1.0  0.00664  0.75931  0.92848  1.0000
  H   H646      1.0  0.14791  0.98234  0.40019  1.0000
  H   H647      1.0  0.05455  0.74265  0.23377  1.0000
  H   H648      1.0  0.01270  0.90463  0.15619  1.0000
  H   H649      1.0  0.30546  0.95932  0.32457  1.0000
  H   H650      1.0  0.01147  0.87267  0.37446  1.0000
  C   C362      1.0  0.01451  0.74094  0.26826  1.0000
  N   N20       1.0  0.99690  0.75592  0.97497  1.0000
  N   N21       1.0  0.31514  0.92622  0.10879  1.0000
  H   H651      1.0  0.02026  0.73857  0.15929  1.0000
  H   H652      1.0  0.99284  0.89484  0.38651  1.0000
  H   H653      1.0  0.31573  0.94526  0.02181  1.0000
  H   H654      1.0  0.31533  0.89532  0.13815  1.0000
  H   H655      1.0  0.31278  0.73916  0.02691  1.0000
  H   H656      1.0  0.99604  0.74522  0.34999  1.0000
  C   C363      1.0  0.32035  0.83873  0.14618  1.0000
  C   C364      1.0  0.31943  0.90905  0.14429  1.0000
  C   C365      1.0  0.31890  0.94493  0.12065  1.0000
  N   N22       1.0  0.99273  0.88185  0.30378  1.0000
  C   C366      1.0  0.32177  0.92880  0.02548  1.0000
  H   H657      1.0  0.99781  0.77303  0.91166  1.0000
  H   H658      1.0  0.00084  0.81824  0.01167  1.0000
  H   H659      1.0  0.23593  0.74182  0.50771  1.0000
  C   C367      1.0  0.25117  0.73948  0.48728  1.0000
  C   C368      1.0  0.64070  0.13441  0.10058  1.0000
  Fe  Fe29      1.0  0.34223  0.12124  0.42602  1.0000
  S   S61       1.0  0.36198  0.04904  0.49526  1.0000
  Fe  Fe30      1.0  0.50387  0.22900  0.84745  1.0000
  S   S62       1.0  0.38801  0.12473  0.52637  1.0000
  S   S63       1.0  0.37050  0.10239  0.44652  1.0000
  C   C369      1.0  0.50639  0.15676  0.78177  1.0000
  H   H660      1.0  0.43739  0.22657  0.01602  1.0000
  H   H661      1.0  0.35051  0.17075  0.23322  1.0000
  H   H662      1.0  0.40295  0.05403  0.38689  1.0000
  C   C370      1.0  0.38442  0.11414  0.67737  1.0000
  C   C371      1.0  0.47703  0.15701  0.73321  1.0000
  S   S64       1.0  0.42833  0.20754  0.65352  1.0000
  S   S65       1.0  0.37310  0.15754  0.08478  1.0000
  H   H663      1.0  0.36675  0.11320  0.13446  1.0000
  S   S66       1.0  0.37850  0.00634  0.33240  1.0000
  C   C372      1.0  0.34897  0.17896  0.67566  1.0000
  C   C373      1.0  0.42776  0.22198  0.10263  1.0000
  H   H664      1.0  0.37099  0.15152  0.17863  1.0000
  C   C374      1.0  0.36182  0.09814  0.06689  1.0000
  C   C375      1.0  0.35736  0.09508  0.23368  1.0000
  C   C376      1.0  0.46703  0.18693  0.00179  1.0000
  S   S67       1.0  0.52553  0.15798  0.80886  1.0000
  H   H665      1.0  0.35775  0.04701  0.34722  1.0000
  H   H666      1.0  0.45005  0.12689  0.43663  1.0000
  H   H667      1.0  0.36487  0.17754  0.65903  1.0000
  H   H668      1.0  0.38041  0.14614  0.66236  1.0000
  H   H669      1.0  0.38818  0.16171  0.92003  1.0000
  C   C377      1.0  0.37774  0.16254  0.18857  1.0000
  H   H670      1.0  0.39059  0.99367  0.41324  1.0000
  H   H671      1.0  0.39415  0.15629  0.18787  1.0000
  H   H672      1.0  0.38849  0.09607  0.23031  1.0000
  Fe  Fe31      1.0  0.36192  0.11974  0.50154  1.0000
  H   H673      1.0  0.44298  0.13688  0.48639  1.0000
  H   H674      1.0  0.37569  0.11634  0.19812  1.0000
  H   H675      1.0  0.50183  0.14139  0.69135  1.0000
  H   H676      1.0  0.52760  0.14122  0.73392  1.0000
  C   C378      1.0  0.38681  0.14782  0.54293  1.0000
  C   C379      1.0  0.40235  0.14973  0.56239  1.0000
  C   C380      1.0  0.40137  0.16748  0.57837  1.0000
  Fe  Fe32      1.0  0.36953  0.16384  0.01609  1.0000
  C   C381      1.0  0.37004  0.18215  0.55237  1.0000
  C   C382      1.0  0.37060  0.16405  0.53794  1.0000
  H   H677      1.0  0.41514  0.13739  0.56549  1.0000
  H   H678      1.0  0.41327  0.16873  0.59397  1.0000
  C   C383      1.0  0.40348  0.10923  0.64410  1.0000
  N   N23       1.0  0.38637  0.08936  0.16883  1.0000
  C   C384      1.0  0.36726  0.03821  0.44853  1.0000
  C   C385      1.0  0.37829  0.01843  0.44893  1.0000
  C   C386      1.0  0.38210  0.00901  0.41269  1.0000
  C   C387      1.0  0.37432  0.01909  0.37631  1.0000
  Fe  Fe33      1.0  0.35023  0.08238  0.48602  1.0000
  C   C388      1.0  0.42006  0.09940  0.17370  1.0000
  H   H679      1.0  0.38384  0.01031  0.47740  1.0000
  H   H680      1.0  0.42206  0.08741  0.20127  1.0000
  H   H681      1.0  0.41106  0.02708  0.25102  1.0000
  H   H682      1.0  0.33458  0.22434  0.27858  1.0000
  H   H683      1.0  0.39792  0.06379  0.24289  1.0000
  H   H684      1.0  0.41662  0.03358  0.41947  1.0000
  H   H685      1.0  0.39640  0.05943  0.15102  1.0000
  C   C389      1.0  0.37832  0.08999  0.09391  1.0000
  H   H686      1.0  0.41271  0.09443  0.65525  1.0000
  H   H687      1.0  0.39141  0.16668  0.31191  1.0000
  C   C390      1.0  0.37458  0.17051  0.32080  1.0000
  H   H688      1.0  0.40465  0.02600  0.20067  1.0000
  H   H689      1.0  0.38960  0.11453  0.70716  1.0000
  H   H690      1.0  0.43738  0.18070  0.00638  1.0000
  C   C391      1.0  0.37117  0.13481  0.66348  1.0000
  S   S68       1.0  0.33107  0.98837  0.31737  1.0000
  Fe  Fe34      1.0  0.43016  0.18070  0.70497  1.0000
  C   C392      1.0  0.44106  0.10088  0.14756  1.0000
  C   C393      1.0  0.48598  0.16486  0.79586  1.0000
  H   H691      1.0  0.34830  0.09148  0.08122  1.0000
  H   H692      1.0  0.36922  0.15698  0.31804  1.0000
  H   H693      1.0  0.37574  0.06422  0.56356  1.0000
  H   H694      1.0  0.37424  0.06208  0.18989  1.0000
  H   H695      1.0  0.39194  0.09589  0.07647  1.0000
  H   H696      1.0  0.41347  0.11395  0.18610  1.0000
  S   S69       1.0  0.42909  0.15604  0.08934  1.0000
  H   H697      1.0  0.38502  0.03348  0.24493  1.0000
  H   H698      1.0  0.32704  0.09295  0.66639  1.0000
  Fe  Fe35      1.0  0.38643  0.19364  0.74720  1.0000
  C   C394      1.0  0.45006  0.17856  0.02234  1.0000
  H   H699      1.0  0.34844  0.18039  0.70928  1.0000
  H   H700      1.0  0.34725  0.98703  0.43484  1.0000
  S   S70       1.0  0.33533  0.14079  0.47733  1.0000
  S   S71       1.0  0.38237  0.23043  0.94914  1.0000
  H   H701      1.0  0.35753  0.11484  0.06404  1.0000
  H   H702      1.0  0.33644  0.10162  0.29167  1.0000
  C   C395      1.0  0.47129  0.16513  0.77141  1.0000
  H   H703      1.0  0.64263  0.18302  0.05209  1.0000
  C   C396      1.0  0.40068  0.03441  0.22825  1.0000
  H   H704      1.0  0.37409  0.12851  0.80294  1.0000
  S   S72       1.0  0.40105  0.17357  0.69760  1.0000
  H   H705      1.0  0.43016  0.04984  0.37848  1.0000
  Fe  Fe36      1.0  0.39794  0.20214  0.65108  1.0000
  H   H706      1.0  0.46468  0.22484  0.67207  1.0000
  C   C397      1.0  0.40243  0.05645  0.21388  1.0000
  C   C398      1.0  0.37743  0.22308  0.25879  1.0000
  H   H707      1.0  0.45553  0.17140  0.78222  1.0000
  H   H708      1.0  0.65596  0.08584  0.15455  1.0000
  Fe  Fe37      1.0  0.52167  0.18455  0.84344  1.0000
  Fe  Fe38      1.0  0.35104  0.01103  0.30253  1.0000
  C   C399      1.0  0.36703  0.16661  0.23333  1.0000
  H   H709      1.0  0.37594  0.17659  0.16518  1.0000
  H   H710      1.0  0.37619  0.10169  0.68212  1.0000
  C   C400      1.0  0.33123  0.99151  0.45052  1.0000
  C   C401      1.0  0.38529  0.18379  0.57312  1.0000
  H   H711      1.0  0.32702  0.01860  0.40616  1.0000
  C   C402      1.0  0.46627  0.16450  0.08349  1.0000
  C   C403      1.0  0.36009  0.04869  0.41161  1.0000
  S   S73       1.0  0.35685  0.14522  0.98308  1.0000
  H   H712      1.0  0.51332  0.18747  0.69994  1.0000
  H   H713      1.0  0.35166  0.06406  0.41107  1.0000
  H   H714      1.0  0.36962  0.13564  0.62982  1.0000
  H   H715      1.0  0.64945  0.12842  0.95407  1.0000
  C   C404      1.0  0.36342  0.03902  0.37560  1.0000
  C   C405      1.0  0.64723  0.23148  0.76337  1.0000
  C   C406      1.0  0.49732  0.14801  0.72043  1.0000
  H   H716      1.0  0.39011  0.06488  0.60349  1.0000
  C   C407      1.0  0.37423  0.18401  0.24586  1.0000
  H   H717      1.0  0.48757  0.06542  0.53031  1.0000
  C   C408      1.0  0.61385  0.17357  0.06499  1.0000
  H   H718      1.0  0.50372  0.05176  0.48939  1.0000
  H   H719      1.0  0.38840  0.20155  0.30906  1.0000
  C   C409      1.0  0.51186  0.22013  0.69642  1.0000
  H   H720      1.0  0.37658  0.15605  0.42961  1.0000
  H   H721      1.0  0.39111  0.18059  0.23999  1.0000
  S   S74       1.0  0.35802  0.18634  0.79088  1.0000
  H   H722      1.0  0.37020  0.15225  0.25506  1.0000
  H   H723      1.0  0.41278  0.12088  0.63932  1.0000
  H   H724      1.0  0.41857  0.05661  0.20021  1.0000
  H   H725      1.0  0.40295  0.11012  0.12403  1.0000
  H   H726      1.0  0.41502  0.08433  0.12508  1.0000
  C   C410      1.0  0.37520  0.16316  0.90543  1.0000
  C   C411      1.0  0.51191  0.14784  0.74462  1.0000
  H   H727      1.0  0.48762  0.03900  0.53196  1.0000
  Fe  Fe39      1.0  0.32598  0.03907  0.24252  1.0000
  S   S75       1.0  0.49307  0.20067  0.88059  1.0000
  C   C412      1.0  0.54364  0.19236  0.69291  1.0000
  H   H728      1.0  0.45455  0.23228  0.06890  1.0000
  S   S76       1.0  0.45947  0.15765  0.70049  1.0000
  H   H729      1.0  0.54651  0.19435  0.65755  1.0000
  S   S77       1.0  0.54070  0.18234  0.89293  1.0000
  H   H730      1.0  0.42650  0.23118  0.88352  1.0000
  H   H731      1.0  0.33985  0.19710  0.93591  1.0000
  H   H732      1.0  0.39779  0.15529  0.38608  1.0000
  C   C413      1.0  0.36904  0.17240  0.36909  1.0000
  C   C414      1.0  0.37781  0.09971  0.20769  1.0000
  Fe  Fe40      1.0  0.38202  0.20384  0.00035  1.0000
  H   H733      1.0  0.35861  0.16272  0.52275  1.0000
  H   H734      1.0  0.35766  0.19482  0.54798  1.0000
  H   H735      1.0  0.43990  0.11259  0.11902  1.0000
  C   C415      1.0  0.37360  0.20656  0.29779  1.0000
  C   C416      1.0  0.37563  0.17220  0.86261  1.0000
  C   C417      1.0  0.35819  0.15569  0.92883  1.0000
  C   C418      1.0  0.63574  0.17074  0.07339  1.0000
  H   H736      1.0  0.64734  0.20618  0.73409  1.0000
  H   H737      1.0  0.46730  0.19554  0.97022  1.0000
  H   H738      1.0  0.42364  0.13354  0.46080  1.0000
  H   H739      1.0  0.35807  0.07864  0.24307  1.0000
  H   H740      1.0  0.44983  0.21991  0.74551  1.0000
  H   H741      1.0  0.65605  0.15919  0.99963  1.0000
  H   H742      1.0  0.48164  0.17093  0.82555  1.0000
  C   C419      1.0  0.38919  0.06670  0.17979  1.0000
  C   C420      1.0  0.44982  0.16708  0.06303  1.0000
  C   C421      1.0  0.40603  0.09559  0.14595  1.0000
  H   H743      1.0  0.51903  0.19437  0.74553  1.0000
  H   H744      1.0  0.47712  0.20075  0.69296  1.0000
  H   H745      1.0  0.44894  0.08618  0.13709  1.0000
  H   H746      1.0  0.38186  0.07334  0.09593  1.0000
  H   H747      1.0  0.35409  0.21459  0.86885  1.0000
  H   H748      1.0  0.38479  0.04136  0.59686  1.0000
  C   C422      1.0  0.48291  0.17327  0.06350  1.0000
  H   H749      1.0  0.45030  0.10508  0.16720  1.0000
  H   H750      1.0  0.35706  0.09070  0.15292  1.0000
  C   C423      1.0  0.37124  0.09641  0.13899  1.0000
  H   H751      1.0  0.39943  0.10835  0.61335  1.0000
  N   N24       1.0  0.63936  0.17630  0.80713  1.0000
  C   C424      1.0  0.62459  0.17003  0.84645  1.0000
  C   C425      1.0  0.63308  0.17127  0.76936  1.0000
  H   H752      1.0  0.36445  0.22815  0.24183  1.0000
  C   C426      1.0  0.63828  0.19861  0.80385  1.0000
  H   H753      1.0  0.34506  0.10152  0.21505  1.0000
  C   C427      1.0  0.62993  0.17080  0.89006  1.0000
  Fe  Fe41      1.0  0.33051  0.99409  0.24739  1.0000
  C   C428      1.0  0.61136  0.18167  0.76156  1.0000
  C   C429      1.0  0.60710  0.17605  0.72161  1.0000
  H   H754      1.0  0.61392  0.17639  0.03014  1.0000
  C   C430      1.0  0.61426  0.16329  0.92690  1.0000
  C   C431      1.0  0.65102  0.20870  0.76392  1.0000
  H   H755      1.0  0.62268  0.15438  0.84681  1.0000
  H   H756      1.0  0.60929  0.17987  0.84621  1.0000
  H   H757      1.0  0.33964  0.15221  0.75084  1.0000
  H   H758      1.0  0.63419  0.15466  0.77294  1.0000
  N   N25       1.0  0.64938  0.15040  0.06788  1.0000
  H   H759      1.0  0.65443  0.11412  0.02788  1.0000
  H   H760      1.0  0.62233  0.20688  0.80558  1.0000
  H   H761      1.0  0.32581  0.22123  0.73052  1.0000
  H   H762      1.0  0.61738  0.16564  0.95746  1.0000
  C   C432      1.0  0.47996  0.21583  0.67640  1.0000
  H   H763      1.0  0.64491  0.16128  0.89425  1.0000
  H   H764      1.0  0.63013  0.18642  0.89319  1.0000
  H   H765      1.0  0.58468  0.19403  0.07474  1.0000
  S   S78       1.0  0.53085  0.21292  0.80634  1.0000
  H   H766      1.0  0.59968  0.17695  0.78852  1.0000
  H   H767      1.0  0.60931  0.19833  0.75707  1.0000
  H   H768      1.0  0.60843  0.15949  0.72483  1.0000
  H   H769      1.0  0.59142  0.18352  0.71720  1.0000
  H   H770      1.0  0.59790  0.18910  0.11895  1.0000
  H   H771      1.0  0.59874  0.17176  0.92356  1.0000
  Fe  Fe42      1.0  0.40173  0.16937  0.05959  1.0000
  S   S79       1.0  0.39946  0.17284  0.99065  1.0000
  S   S80       1.0  0.57824  0.22035  0.83960  1.0000
  H   H772      1.0  0.50611  0.20001  0.63488  1.0000
  H   H773      1.0  0.61489  0.14698  0.92784  1.0000
  H   H774      1.0  0.36382  0.10844  0.75623  1.0000
  H   H775      1.0  0.33790  0.11776  0.77741  1.0000
  C   C433      1.0  0.33274  0.12356  0.64834  1.0000
  N   N26       1.0  0.43301  0.07061  0.49031  1.0000
  C   C434      1.0  0.45070  0.06136  0.51278  1.0000
  C   C435      1.0  0.41375  0.07232  0.52315  1.0000
  C   C436      1.0  0.43287  0.05737  0.45849  1.0000
  C   C437      1.0  0.43461  0.09152  0.46696  1.0000
  C   C438      1.0  0.44033  0.10570  0.49217  1.0000
  C   C439      1.0  0.47195  0.05944  0.48392  1.0000
  C   C440      1.0  0.41451  0.06344  0.43524  1.0000
  C   C441      1.0  0.40802  0.05215  0.54718  1.0000
  C   C442      1.0  0.38849  0.05597  0.57981  1.0000
  C   C443      1.0  0.43918  0.12702  0.46730  1.0000
  C   C444      1.0  0.48868  0.05354  0.51068  1.0000
  C   C445      1.0  0.41628  0.04932  0.40309  1.0000
  H   H776      1.0  0.44966  0.04577  0.52862  1.0000
  H   H777      1.0  0.45025  0.06976  0.53914  1.0000
  H   H778      1.0  0.41464  0.08109  0.54782  1.0000
  H   H779      1.0  0.40061  0.08123  0.50853  1.0000
  H   H780      1.0  0.43388  0.04136  0.47383  1.0000
  H   H781      1.0  0.44656  0.05735  0.43307  1.0000
  H   H782      1.0  0.44574  0.09079  0.43661  1.0000
  H   H783      1.0  0.41992  0.09942  0.45708  1.0000
  H   H784      1.0  0.45602  0.10023  0.49829  1.0000
  H   H785      1.0  0.43013  0.10670  0.52340  1.0000
  H   H786      1.0  0.47426  0.04751  0.46375  1.0000
  H   H787      1.0  0.47401  0.07367  0.46255  1.0000
  H   H788      1.0  0.41354  0.07897  0.41750  1.0000
  H   H789      1.0  0.40018  0.06269  0.45812  1.0000
  H   H790      1.0  0.40552  0.04302  0.52489  1.0000
  H   H791      1.0  0.41994  0.04305  0.56488  1.0000
  C   C446      1.0  0.48028  0.20544  0.60522  1.0000
  S   S81       1.0  0.35319  0.01426  0.23180  1.0000
  C   C447      1.0  0.48139  0.21843  0.75001  1.0000
  C   C448      1.0  0.35882  0.17424  0.84352  1.0000
  H   H792      1.0  0.32922  0.21116  0.86678  1.0000
  H   H793      1.0  0.37904  0.14030  0.38973  1.0000
  C   C449      1.0  0.38142  0.15492  0.39509  1.0000
  C   C450      1.0  0.59443  0.21225  0.95542  1.0000
  C   C451      1.0  0.35151  0.10445  0.27457  1.0000
  H   H794      1.0  0.36749  0.09412  0.03430  1.0000
  H   H795      1.0  0.34756  0.13539  0.82579  1.0000
  S   S82       1.0  0.34359  0.09823  0.54282  1.0000
  H   H796      1.0  0.38882  0.17784  0.84471  1.0000
  N   N27       1.0  0.36618  0.18862  0.29079  1.0000
  H   H797      1.0  0.46613  0.15576  0.11494  1.0000
  H   H798      1.0  0.63577  0.09414  0.12427  1.0000
  S   S83       1.0  0.62847  0.21445  0.98338  1.0000
  H   H799      1.0  0.37182  0.18660  0.37566  1.0000
  Fe  Fe43      1.0  0.35858  0.19017  0.08678  1.0000
  H   H800      1.0  0.36297  0.21403  0.32387  1.0000
  H   H801      1.0  0.49789  0.22572  0.61340  1.0000
  S   S84       1.0  0.35193  0.19514  0.02101  1.0000
  H   H802      1.0  0.36989  0.19725  0.22188  1.0000
  S   S85       1.0  0.50479  0.19484  0.99889  1.0000
  S   S86       1.0  0.38398  0.20624  0.59246  1.0000
  H   H803      1.0  0.56918  0.20786  0.93133  1.0000
  H   H804      1.0  0.63379  0.23239  0.89513  1.0000
  H   H805      1.0  0.63416  0.17383  0.10644  1.0000
  C   C452      1.0  0.35320  0.12153  0.76869  1.0000
  H   H806      1.0  0.61778  0.18115  0.69294  1.0000
  C   C453      1.0  0.48350  0.18422  0.02241  1.0000
  H   H807      1.0  0.35072  0.12098  0.26720  1.0000
  S   S87       1.0  0.41587  0.19835  0.75885  1.0000
  C   C454      1.0  0.33692  0.19869  0.65555  1.0000
  Fe  Fe44      1.0  0.51271  0.20081  0.92726  1.0000
  H   H808      1.0  0.39577  0.22193  0.83585  1.0000
  H   H809      1.0  0.49556  0.17126  0.07960  1.0000
  C   C455      1.0  0.60802  0.22898  0.87184  1.0000
  C   C456      1.0  0.35920  0.12390  0.80969  1.0000
  H   H810      1.0  0.48501  0.20178  0.75665  1.0000
  C   C457      1.0  0.34339  0.19206  0.30119  1.0000
  H   H811      1.0  0.35281  0.17189  0.38122  1.0000
  C   C458      1.0  0.52098  0.19762  0.71033  1.0000
  H   H812      1.0  0.45646  0.19854  0.81552  1.0000
  S   S88       1.0  0.38749  0.20141  0.06670  1.0000
  C   C459      1.0  0.64478  0.09914  0.14322  1.0000
  C   C460      1.0  0.34174  0.16706  0.86716  1.0000
  H   H813      1.0  0.63458  0.10505  0.17147  1.0000
  H   H814      1.0  0.63470  0.14756  0.01731  1.0000
  H   H815      1.0  0.64333  0.20185  0.83161  1.0000
  H   H816      1.0  0.43283  0.21935  0.13375  1.0000
  C   C461      1.0  0.49255  0.21215  0.63175  1.0000
  H   H817      1.0  0.33781  0.19512  0.33454  1.0000
  H   H818      1.0  0.54961  0.17635  0.70509  1.0000
  H   H819      1.0  0.60591  0.20561  0.07091  1.0000
  H   H820      1.0  0.62909  0.12943  0.08832  1.0000
  H   H821      1.0  0.63238  0.14076  0.13003  1.0000
  C   C462      1.0  0.61302  0.21853  0.94496  1.0000
  H   H822      1.0  0.48989  0.20205  0.57432  1.0000
  N   N28       1.0  0.48903  0.22555  0.70363  1.0000
  C   C463      1.0  0.34024  0.16070  0.67195  1.0000
  C   C464      1.0  0.65012  0.14689  0.02306  1.0000
  H   H823      1.0  0.34687  0.11839  0.62609  1.0000
  H   H824      1.0  0.33193  0.22472  0.79917  1.0000
  C   C465      1.0  0.33737  0.12547  0.69190  1.0000
  C   C466      1.0  0.59979  0.19169  0.08365  1.0000
  H   H825      1.0  0.34196  0.22160  0.94320  1.0000
  H   H826      1.0  0.60722  0.16010  0.07905  1.0000
  H   H827      1.0  0.41103  0.22703  0.10790  1.0000
  S   S89       1.0  0.34190  0.13182  0.35673  1.0000
  H   H828      1.0  0.36030  0.10939  0.83171  1.0000
  H   H829      1.0  0.45885  0.22087  0.83352  1.0000
  C   C467      1.0  0.58309  0.21351  0.92357  1.0000
  C   C468      1.0  0.34160  0.15740  0.90927  1.0000
  H   H830      1.0  0.58915  0.20572  0.98775  1.0000
  H   H831      1.0  0.33715  0.19834  0.62145  1.0000
  H   H832      1.0  0.43194  0.20747  0.08971  1.0000
  H   H833      1.0  0.34393  0.11002  0.70600  1.0000
  C   C469      1.0  0.35269  0.14128  0.73602  1.0000
  H   H834      1.0  0.46711  0.21759  0.59864  1.0000
  S   S90       1.0  0.38158  0.22200  0.70008  1.0000
  H   H835      1.0  0.64354  0.17507  0.73934  1.0000
  H   H836      1.0  0.36330  0.22879  0.80210  1.0000
  C   C470      1.0  0.61964  0.22718  0.90326  1.0000
  N   N29       1.0  0.35065  0.14015  0.69107  1.0000
  H   H837      1.0  0.34390  0.21140  0.65733  1.0000
  Fe  Fe45      1.0  0.54746  0.21212  0.85882  1.0000
  H   H838      1.0  0.34082  0.16125  0.63723  1.0000
  H   H839      1.0  0.36264  0.09763  0.29602  1.0000
  H   H840      1.0  0.36636  0.14739  0.73538  1.0000
  C   C471      1.0  0.65589  0.11524  0.11594  1.0000
  H   H841      1.0  0.33427  0.02139  0.45435  1.0000
  C   C472      1.0  0.45200  0.21510  0.81165  1.0000
  H   H842      1.0  0.47485  0.19157  0.62226  1.0000
  H   H843      1.0  0.42814  0.22887  0.95472  1.0000
  C   C473      1.0  0.59019  0.22140  0.88146  1.0000
  H   H844      1.0  0.39095  0.21710  0.23577  1.0000
  H   H845      1.0  0.51854  0.22424  0.66256  1.0000
  Fe  Fe46      1.0  0.41227  0.22507  0.70671  1.0000
  H   H846      1.0  0.55179  0.20199  0.70376  1.0000
  C   C474      1.0  0.45831  0.22464  0.76583  1.0000
  C   C475      1.0  0.33764  0.21956  0.88020  1.0000
  H   H847      1.0  0.32888  0.13171  0.12010  1.0000
  C   C476      1.0  0.33386  0.21348  0.92826  1.0000
  H   H848      1.0  0.32861  0.16880  0.85268  1.0000
  H   H849      1.0  0.33662  0.20844  0.23882  1.0000
  S   S91       1.0  0.52116  0.23053  0.89709  1.0000
  H   H850      1.0  0.33652  0.14016  0.19159  1.0000
  S   S92       1.0  0.32535  0.03722  0.31223  1.0000
  H   H851      1.0  0.48934  0.22358  0.77090  1.0000
  H   H852      1.0  0.51774  0.22911  0.71430  1.0000
  S   S93       1.0  0.33732  0.20197  0.14346  1.0000
  C   C477      1.0  0.33194  0.20987  0.27315  1.0000
  H   H853      1.0  0.32840  0.15177  0.92710  1.0000
  H   H854      1.0  0.33814  0.17812  0.30015  1.0000
  H   H855      1.0  0.65105  0.23486  0.79241  1.0000
  H   H856      1.0  0.43533  0.21887  0.82043  1.0000
  H   H857      1.0  0.45210  0.23476  0.92698  1.0000
  H   H858      1.0  0.61311  0.23588  0.83975  1.0000
  H   H859      1.0  0.46782  0.23565  0.98627  1.0000
  H   H860      1.0  0.41369  0.26364  0.96379  1.0000
  C   C478      1.0  0.32573  0.24121  0.79704  1.0000
  H   H861      1.0  0.43881  0.28986  0.98565  1.0000
  H   H862      1.0  0.33664  0.27992  0.78250  1.0000
  H   H863      1.0  0.38388  0.37509  0.65327  1.0000
  H   H864      1.0  0.46567  0.25269  0.70178  1.0000
  S   S94       1.0  0.42335  0.25371  0.70470  1.0000
  C   C479      1.0  0.40346  0.42669  0.80264  1.0000
  C   C480      1.0  0.48321  0.28214  0.65031  1.0000
  H   H865      1.0  0.39489  0.23737  0.28820  1.0000
  C   C481      1.0  0.32995  0.28580  0.84778  1.0000
  S   S95       1.0  0.48338  0.25526  0.81560  1.0000
  C   C482      1.0  0.32867  0.27333  0.81379  1.0000
  H   H866      1.0  0.34559  0.28370  0.85315  1.0000
  H   H867      1.0  0.47148  0.25672  0.04133  1.0000
  H   H868      1.0  0.49067  0.28700  0.67252  1.0000
  H   H869      1.0  0.34837  0.45064  0.91826  1.0000
  H   H870      1.0  0.36846  0.24535  0.86627  1.0000
  N   N30       1.0  0.43955  0.25785  0.99548  1.0000
  H   H871      1.0  0.35997  0.40348  0.73846  1.0000
  H   H872      1.0  0.38326  0.40462  0.67746  1.0000
  H   H873      1.0  0.53024  0.45126  0.89217  1.0000
  C   C483      1.0  0.43314  0.27808  0.01108  1.0000
  H   H874      1.0  0.39104  0.47903  0.87231  1.0000
  C   C484      1.0  0.33064  0.24261  0.86811  1.0000
  H   H875      1.0  0.65698  0.23830  0.73509  1.0000
  H   H876      1.0  0.50643  0.25951  0.01060  1.0000
  C   C485      1.0  0.37163  0.25300  0.96934  1.0000
  H   H877      1.0  0.35084  0.47632  0.95251  1.0000
  H   H878      1.0  0.38954  0.31080  0.05306  1.0000
  H   H879      1.0  0.37357  0.26582  0.82469  1.0000
  H   H880      1.0  0.35278  0.24795  0.17665  1.0000
  Fe  Fe47      1.0  0.37402  0.37026  0.89916  1.0000
  S   S96       1.0  0.39868  0.35625  0.85000  1.0000
  C   C486      1.0  0.37023  0.25415  0.01244  1.0000
  S   S97       1.0  0.39415  0.31280  0.91042  1.0000
  Fe  Fe48      1.0  0.41082  0.33741  0.90687  1.0000
  S   S98       1.0  0.44349  0.32940  0.91342  1.0000
  Fe  Fe49      1.0  0.37965  0.33298  0.85802  1.0000
  S   S99       1.0  0.36956  0.32361  0.80458  1.0000
  S   S100      1.0  0.38781  0.35356  0.95547  1.0000
  H   H881      1.0  0.48162  0.25548  0.62816  1.0000
  H   H882      1.0  0.37573  0.34482  0.63095  1.0000
  C   C487      1.0  0.51181  0.45136  0.84645  1.0000
  C   C488      1.0  0.43175  0.24135  0.02785  1.0000
  C   C489      1.0  0.36350  0.42272  0.80904  1.0000
  H   H883      1.0  0.50255  0.25884  0.95800  1.0000
  S   S101      1.0  0.40470  0.44856  0.72269  1.0000
  H   H884      1.0  0.43599  0.37990  0.95308  1.0000
  N   N31       1.0  0.33631  0.25074  0.82161  1.0000
  H   H885      1.0  0.51233  0.43530  0.85386  1.0000
  C   C490      1.0  0.48243  0.24822  0.69633  1.0000
  C   C491      1.0  0.47285  0.27571  0.84350  1.0000
  C   C492      1.0  0.45503  0.28851  0.83361  1.0000
  C   C493      1.0  0.44600  0.30491  0.85535  1.0000
  C   C494      1.0  0.45499  0.30881  0.88660  1.0000
  C   C495      1.0  0.47310  0.29631  0.89607  1.0000
  C   C496      1.0  0.48201  0.27968  0.87453  1.0000
  H   H886      1.0  0.44806  0.28555  0.80941  1.0000
  H   H887      1.0  0.43217  0.31465  0.84753  1.0000
  H   H888      1.0  0.48018  0.29942  0.92002  1.0000
  H   H889      1.0  0.49606  0.27013  0.88150  1.0000
  H   H890      1.0  0.40508  0.24479  0.83091  1.0000
  H   H891      1.0  0.43358  0.25195  0.08660  1.0000
  C   C497      1.0  0.37327  0.43287  0.77175  1.0000
  H   H892      1.0  0.34972  0.38353  0.81061  1.0000
  H   H893      1.0  0.33024  0.39075  0.77836  1.0000
  H   H894      1.0  0.51590  0.47822  0.59379  1.0000
  H   H895      1.0  0.39907  0.23815  0.78520  1.0000
  H   H896      1.0  0.36659  0.26964  0.90815  1.0000
  Fe  Fe50      1.0  0.42250  0.46884  0.73739  1.0000
  C   C498      1.0  0.47521  0.26095  0.00635  1.0000
  C   C499      1.0  0.52197  0.46038  0.86806  1.0000
  C   C500      1.0  0.39452  0.23785  0.82008  1.0000
  H   H897      1.0  0.41344  0.30352  0.07111  1.0000
  Fe  Fe51      1.0  0.46040  0.47192  0.76656  1.0000
  H   H898      1.0  0.38461  0.25292  0.24356  1.0000
  H   H899      1.0  0.37864  0.47809  0.79442  1.0000
  H   H900      1.0  0.40822  0.35940  0.65208  1.0000
  H   H901      1.0  0.33673  0.27181  0.18747  1.0000
  C   C501      1.0  0.40800  0.27233  0.73425  1.0000
  C   C502      1.0  0.38795  0.28011  0.72914  1.0000
  C   C503      1.0  0.37628  0.29578  0.75119  1.0000
  C   C504      1.0  0.38444  0.30338  0.77921  1.0000
  C   C505      1.0  0.40442  0.29547  0.78470  1.0000
  C   C506      1.0  0.41628  0.28018  0.76165  1.0000
  H   H902      1.0  0.38164  0.27438  0.70734  1.0000
  C   C507      1.0  0.40967  0.42235  0.62261  1.0000
  H   H903      1.0  0.41081  0.30131  0.80616  1.0000
  H   H904      1.0  0.43183  0.27425  0.76533  1.0000
  C   C508      1.0  0.37300  0.24961  0.83164  1.0000
  C   C509      1.0  0.37378  0.41434  0.84291  1.0000
  H   H905      1.0  0.63114  0.23845  0.76166  1.0000
  C   C510      1.0  0.43796  0.23794  0.07198  1.0000
  C   C511      1.0  0.48929  0.25928  0.65131  1.0000
  C   C512      1.0  0.32710  0.24958  0.74882  1.0000
  C   C513      1.0  0.56773  0.48577  0.73532  1.0000
  H   H906      1.0  0.45930  0.47084  0.86652  1.0000
  H   H907      1.0  0.45562  0.34109  0.72628  1.0000
  H   H908      1.0  0.41186  0.31741  0.01817  1.0000
  H   H909      1.0  0.35520  0.27034  0.13858  1.0000
  H   H910      1.0  0.38639  0.45868  0.85325  1.0000
  H   H911      1.0  0.41571  0.39036  0.62369  1.0000
  H   H912      1.0  0.36813  0.24860  0.29416  1.0000
  C   C514      1.0  0.36525  0.27031  0.94155  1.0000
  S   S102      1.0  0.35412  0.31394  0.01350  1.0000
  H   H913      1.0  0.36289  0.25299  0.77260  1.0000
  H   H914      1.0  0.44258  0.34505  0.77985  1.0000
  H   H915      1.0  0.48746  0.25486  0.71997  1.0000
  C   C515      1.0  0.34757  0.46099  0.88756  1.0000
  H   H916      1.0  0.32856  0.28499  0.09397  1.0000
  H   H917      1.0  0.35454  0.45123  0.86269  1.0000
  C   C516      1.0  0.49974  0.48396  0.80743  1.0000
  H   H918      1.0  0.40007  0.40604  0.71059  1.0000
  H   H919      1.0  0.44009  0.27802  0.03880  1.0000
  H   H920      1.0  0.58281  0.47631  0.72524  1.0000
  H   H921      1.0  0.36097  0.30217  0.74619  1.0000
  H   H922      1.0  0.34792  0.42153  0.81182  1.0000
  C   C517      1.0  0.39311  0.43515  0.76886  1.0000
  H   H923      1.0  0.36772  0.35099  0.70723  1.0000
  H   H924      1.0  0.41876  0.42848  0.80043  1.0000
  S   S103      1.0  0.36095  0.40332  0.89064  1.0000
  C   C518      1.0  0.41887  0.36652  0.71773  1.0000
  H   H925      1.0  0.40866  0.43357  0.64369  1.0000
  C   C519      1.0  0.36087  0.38700  0.74188  1.0000
  C   C520      1.0  0.41009  0.28578  0.02511  1.0000
  H   H926      1.0  0.42186  0.37521  0.74053  1.0000
  H   H927      1.0  0.36527  0.43948  0.74563  1.0000
  H   H928      1.0  0.40204  0.28888  0.99782  1.0000
  C   C521      1.0  0.41063  0.44518  0.91347  1.0000
  C   C522      1.0  0.65118  0.25595  0.02890  1.0000
  C   C523      1.0  0.38366  0.34617  0.69170  1.0000
  H   H929      1.0  0.65190  0.25561  0.09474  1.0000
  H   H930      1.0  0.40174  0.40956  0.86584  1.0000
  C   C524      1.0  0.52152  0.48112  0.85866  1.0000
  H   H931      1.0  0.48793  0.28983  0.61759  1.0000
  H   H932      1.0  0.35638  0.38402  0.71332  1.0000
  H   H933      1.0  0.41820  0.45814  0.90905  1.0000
  C   C525      1.0  0.43050  0.25991  0.95617  1.0000
  H   H934      1.0  0.46651  0.28679  0.65956  1.0000
  H   H935      1.0  0.41205  0.25516  0.89599  1.0000
  H   H936      1.0  0.42506  0.37520  0.91142  1.0000
  C   C526      1.0  0.35799  0.28881  0.95648  1.0000
  H   H937      1.0  0.47240  0.27767  0.99877  1.0000
  H   H938      1.0  0.48905  0.47972  0.61149  1.0000
  H   H939      1.0  0.43772  0.25326  0.86674  1.0000
  S   S104      1.0  0.35388  0.34874  0.90257  1.0000
  H   H940      1.0  0.37527  0.24092  0.03396  1.0000
  C   C527      1.0  0.35791  0.29019  0.99881  1.0000
  C   C528      1.0  0.49788  0.25350  0.99239  1.0000
  H   H941      1.0  0.47357  0.47008  0.90741  1.0000
  C   C529      1.0  0.36363  0.27282  0.02712  1.0000
  C   C530      1.0  0.42749  0.24555  0.89248  1.0000
  C   C531      1.0  0.34541  0.38124  0.78112  1.0000
  H   H942      1.0  0.38075  0.43907  0.92485  1.0000
  C   C532      1.0  0.50354  0.47879  0.62208  1.0000
  N   N32       1.0  0.47382  0.38020  0.81223  1.0000
  C   C533      1.0  0.46891  0.38609  0.76786  1.0000
  C   C534      1.0  0.48034  0.35746  0.82242  1.0000
  C   C535      1.0  0.45453  0.38662  0.84308  1.0000
  C   C536      1.0  0.48960  0.39078  0.81811  1.0000
  C   C537      1.0  0.51054  0.38617  0.78907  1.0000
  C   C538      1.0  0.46385  0.40901  0.75106  1.0000
  C   C539      1.0  0.45577  0.38082  0.89124  1.0000
  C   C540      1.0  0.49225  0.34581  0.78515  1.0000
  C   C541      1.0  0.49975  0.32355  0.80101  1.0000
  C   C542      1.0  0.52421  0.39994  0.79310  1.0000
  C   C543      1.0  0.45479  0.41263  0.71063  1.0000
  C   C544      1.0  0.43471  0.38440  0.91893  1.0000
  H   H943      1.0  0.45613  0.37919  0.76592  1.0000
  H   H944      1.0  0.48172  0.38002  0.74367  1.0000
  H   H945      1.0  0.48955  0.35350  0.84820  1.0000
  H   H946      1.0  0.46689  0.35035  0.83553  1.0000
  H   H947      1.0  0.44212  0.38019  0.83735  1.0000
  H   H948      1.0  0.44922  0.40324  0.83818  1.0000
  H   H949      1.0  0.48389  0.40742  0.81419  1.0000
  H   H950      1.0  0.49260  0.38659  0.85124  1.0000
  H   H951      1.0  0.50925  0.38820  0.75505  1.0000
  H   H952      1.0  0.51828  0.37047  0.79899  1.0000
  H   H953      1.0  0.45293  0.41779  0.77424  1.0000
  H   H954      1.0  0.47785  0.41530  0.74319  1.0000
  H   H955      1.0  0.46473  0.39021  0.90036  1.0000
  H   H956      1.0  0.46287  0.36477  0.89946  1.0000
  H   H957      1.0  0.48224  0.34642  0.76224  1.0000
  H   H958      1.0  0.50551  0.35212  0.76748  1.0000
  H   H959      1.0  0.48669  0.31608  0.81404  1.0000
  H   H960      1.0  0.50916  0.31590  0.77413  1.0000
  H   H961      1.0  0.50904  0.32167  0.82599  1.0000
  H   H962      1.0  0.53953  0.39543  0.77411  1.0000
  H   H963      1.0  0.51804  0.41583  0.78071  1.0000
  H   H964      1.0  0.52570  0.39889  0.82686  1.0000
  H   H965      1.0  0.44000  0.40781  0.71795  1.0000
  H   H966      1.0  0.45205  0.42891  0.69773  1.0000
  H   H967      1.0  0.46524  0.40434  0.68574  1.0000
  H   H968      1.0  0.42731  0.40055  0.91383  1.0000
  H   H969      1.0  0.50188  0.23680  0.99849  1.0000
  C   C545      1.0  0.38352  0.33470  0.65598  1.0000
  H   H970      1.0  0.38177  0.35995  0.76241  1.0000
  H   H971      1.0  0.64558  0.27250  0.02218  1.0000
  H   H972      1.0  0.37535  0.32216  0.66912  1.0000
  H   H973      1.0  0.41615  0.43733  0.88508  1.0000
  C   C546      1.0  0.39817  0.39730  0.68672  1.0000
  H   H974      1.0  0.43096  0.36774  0.68917  1.0000
  H   H975      1.0  0.39515  0.42507  0.61100  1.0000
  H   H976      1.0  0.35350  0.30224  0.93450  1.0000
  C   C547      1.0  0.41449  0.40090  0.64636  1.0000
  H   H977      1.0  0.50592  0.25553  0.64087  1.0000
  C   C548      1.0  0.38264  0.37552  0.74671  1.0000
  H   H978      1.0  0.41097  0.34014  0.76412  1.0000
  H   H979      1.0  0.42951  0.39888  0.65546  1.0000
  H   H980      1.0  0.38724  0.38247  0.77041  1.0000
  Fe  Fe52      1.0  0.36986  0.33062  0.95450  1.0000
  C   C549      1.0  0.50047  0.46314  0.81648  1.0000
  H   H981      1.0  0.34301  0.24893  0.73246  1.0000
  S   S105      1.0  0.48698  0.45147  0.79174  1.0000
  H   H982      1.0  0.42189  0.42460  0.59471  1.0000
  H   H983      1.0  0.42377  0.33455  0.71174  1.0000
  C   C550      1.0  0.39393  0.36461  0.67408  1.0000
  H   H984      1.0  0.39140  0.33542  0.71560  1.0000
  C   C551      1.0  0.38769  0.45251  0.91978  1.0000
  H   H985      1.0  0.44612  0.32092  0.76280  1.0000
  H   H986      1.0  0.36405  0.27393  0.05960  1.0000
  H   H987      1.0  0.45230  0.45787  0.91940  1.0000
  C   C552      1.0  0.44306  0.33748  0.75231  1.0000
  N   N33       1.0  0.39823  0.37553  0.70624  1.0000
  C   C553      1.0  0.39387  0.41599  0.83949  1.0000
  C   C554      1.0  0.46245  0.25236  0.98288  1.0000
  C   C555      1.0  0.42284  0.34386  0.73671  1.0000
  H   H988      1.0  0.34443  0.36519  0.78388  1.0000
  H   H989      1.0  0.46735  0.25768  0.94847  1.0000
  H   H990      1.0  0.43521  0.27261  0.93208  1.0000
  C   C556      1.0  0.43557  0.24086  0.93413  1.0000
  C   C557      1.0  0.40608  0.30558  0.04297  1.0000
  H   H991      1.0  0.40338  0.27472  0.05030  1.0000
  H   H992      1.0  0.45366  0.24114  0.76576  1.0000
  H   H993      1.0  0.50637  0.46474  0.64514  1.0000
  H   H994      1.0  0.39924  0.32813  0.64153  1.0000
  C   C558      1.0  0.38153  0.46743  0.88037  1.0000
  H   H995      1.0  0.52219  0.48320  0.68552  1.0000
  H   H996      1.0  0.55845  0.47634  0.75961  1.0000
  C   C559      1.0  0.35880  0.24511  0.80542  1.0000
  C   C560      1.0  0.45819  0.47122  0.90097  1.0000
  H   H997      1.0  0.63799  0.24842  0.03666  1.0000
  S   S106      1.0  0.42950  0.46833  0.80155  1.0000
  C   C561      1.0  0.38151  0.24159  0.27218  1.0000
  H   H998      1.0  0.41479  0.43455  0.94195  1.0000
  S   S107      1.0  0.45421  0.46926  0.70337  1.0000
  H   H999      1.0  0.55643  0.48145  0.68249  1.0000
  H   H1000     1.0  0.38304  0.45964  0.94912  1.0000
  N   N34       1.0  0.35941  0.47720  0.88399  1.0000
  C   C562      1.0  0.36218  0.48451  0.80177  1.0000
  H   H1001     1.0  0.41496  0.24379  0.03219  1.0000
  C   C563      1.0  0.32857  0.25813  0.14019  1.0000
  H   H1002     1.0  0.50975  0.48475  0.97483  1.0000
  H   H1003     1.0  0.35375  0.47269  0.80181  1.0000
  H   H1004     1.0  0.33679  0.24778  0.11700  1.0000
  H   H1005     1.0  0.33085  0.31360  0.80255  1.0000
  C   C564      1.0  0.34426  0.26243  0.16203  1.0000
  H   H1006     1.0  0.33680  0.24989  0.88859  1.0000
  H   H1007     1.0  0.48904  0.49729  0.67024  1.0000
  H   H1008     1.0  0.36530  0.51372  0.76377  1.0000
  N   N35       1.0  0.33215  0.65820  0.27669  1.0000
  S   S108      1.0  0.40320  0.51630  0.84435  1.0000
  Fe  Fe53      1.0  0.35474  0.73453  0.34295  1.0000
  C   C565      1.0  0.43684  0.61117  0.52686  1.0000
  H   H1009     1.0  0.33511  0.61027  0.20889  1.0000
  C   C566      1.0  0.33914  0.63574  0.34808  1.0000
  S   S109      1.0  0.45383  0.52027  0.63363  1.0000
  H   H1010     1.0  0.46611  0.66202  0.94492  1.0000
  S   S110      1.0  0.45306  0.50569  0.75740  1.0000
  H   H1011     1.0  0.48121  0.67200  0.97111  1.0000
  Fe  Fe54      1.0  0.54707  0.51849  0.85784  1.0000
  H   H1012     1.0  0.58940  0.60847  0.74022  1.0000
  H   H1013     1.0  0.36220  0.49528  0.73455  1.0000
  Fe  Fe55      1.0  0.54554  0.56309  0.84711  1.0000
  S   S111      1.0  0.57616  0.56119  0.80534  1.0000
  S   S112      1.0  0.52791  0.59324  0.86306  1.0000
  Fe  Fe56      1.0  0.56620  0.53989  0.77443  1.0000
  S   S113      1.0  0.57605  0.53927  0.70414  1.0000
  Fe  Fe57      1.0  0.58536  0.53424  0.85295  1.0000
  S   S114      1.0  0.53439  0.54431  0.81127  1.0000
  S   S115      1.0  0.55547  0.53763  0.89715  1.0000
  Fe  Fe58      1.0  0.47385  0.65445  0.55191  1.0000
  S   S116      1.0  0.49877  0.66384  0.57265  1.0000
  S   S117      1.0  0.46446  0.66195  0.48771  1.0000
  Fe  Fe59      1.0  0.46525  0.62634  0.63385  1.0000
  S   S118      1.0  0.48944  0.63256  0.66255  1.0000
  S   S119      1.0  0.44231  0.60859  0.67036  1.0000
  Fe  Fe60      1.0  0.47807  0.66470  0.63636  1.0000
  S   S120      1.0  0.47355  0.68985  0.67451  1.0000
  Fe  Fe61      1.0  0.50824  0.63099  0.59730  1.0000
  S   S121      1.0  0.54109  0.61644  0.58236  1.0000
  S   S122      1.0  0.45221  0.65863  0.61310  1.0000
  S   S123      1.0  0.48509  0.62151  0.57109  1.0000
  Fe  Fe62      1.0  0.41997  0.64891  0.89599  1.0000
  S   S124      1.0  0.41694  0.63849  0.96624  1.0000
  S   S125      1.0  0.43648  0.67451  0.87093  1.0000
  Fe  Fe63      1.0  0.39469  0.62036  0.88497  1.0000
  S   S126      1.0  0.38955  0.60742  0.95435  1.0000
  S   S127      1.0  0.38236  0.61115  0.83484  1.0000
  Fe  Fe64      1.0  0.38454  0.63958  0.96491  1.0000
  Fe  Fe65      1.0  0.42238  0.60758  0.94937  1.0000
  S   S128      1.0  0.44451  0.58257  0.97901  1.0000
  S   S129      1.0  0.38683  0.65265  0.89577  1.0000
  S   S130      1.0  0.42816  0.61773  0.87880  1.0000
  C   C567      1.0  0.43938  0.67510  0.48959  1.0000
  C   C568      1.0  0.43020  0.68792  0.51988  1.0000
  C   C569      1.0  0.35826  0.67588  0.73832  1.0000
  S   S131      1.0  0.37440  0.72878  0.11251  1.0000
  H   H1014     1.0  0.33361  0.68999  0.26328  1.0000
  C   C570      1.0  0.42872  0.67329  0.45904  1.0000
  H   H1015     1.0  0.43852  0.68966  0.54306  1.0000
  C   C571      1.0  0.52157  0.49645  0.65963  1.0000
  H   H1016     1.0  0.46112  0.68524  0.08486  1.0000
  H   H1017     1.0  0.43571  0.66321  0.43607  1.0000
  C   C572      1.0  0.46334  0.68481  0.72898  1.0000
  H   H1018     1.0  0.38698  0.70875  0.26401  1.0000
  H   H1019     1.0  0.52083  0.67600  0.77432  1.0000
  C   C573      1.0  0.44713  0.67786  0.81650  1.0000
  C   C574      1.0  0.45195  0.66210  0.79224  1.0000
  C   C575      1.0  0.45997  0.66562  0.74835  1.0000
  H   H1020     1.0  0.39101  0.68111  0.68643  1.0000
  H   H1021     1.0  0.44086  0.62531  0.50742  1.0000
  H   H1022     1.0  0.44934  0.64729  0.80711  1.0000
  H   H1023     1.0  0.46335  0.65355  0.72956  1.0000
  C   C576      1.0  0.56605  0.56118  0.67197  1.0000
  C   C577      1.0  0.57731  0.56671  0.63195  1.0000
  C   C578      1.0  0.56957  0.58387  0.60508  1.0000
  C   C579      1.0  0.55020  0.59516  0.61734  1.0000
  C   C580      1.0  0.53856  0.58922  0.65674  1.0000
  C   C581      1.0  0.54671  0.57253  0.68465  1.0000
  H   H1024     1.0  0.44793  0.57878  0.52577  1.0000
  H   H1025     1.0  0.57851  0.58828  0.57444  1.0000
  H   H1026     1.0  0.52330  0.59739  0.66541  1.0000
  H   H1027     1.0  0.53786  0.56805  0.71528  1.0000
  C   C582      1.0  0.50558  0.59078  0.89954  1.0000
  C   C583      1.0  0.48929  0.60721  0.90171  1.0000
  C   C584      1.0  0.47070  0.60491  0.92754  1.0000
  C   C585      1.0  0.46850  0.58633  0.95221  1.0000
  C   C586      1.0  0.48521  0.57037  0.95270  1.0000
  C   C587      1.0  0.50361  0.57240  0.92548  1.0000
  H   H1028     1.0  0.49079  0.62157  0.88260  1.0000
  H   H1029     1.0  0.45809  0.61756  0.92816  1.0000
  H   H1030     1.0  0.48371  0.55622  0.97283  1.0000
  H   H1031     1.0  0.51619  0.55974  0.92461  1.0000
  H   H1032     1.0  0.36345  0.51567  0.90176  1.0000
  C   C588      1.0  0.45047  0.54501  0.64234  1.0000
  C   C589      1.0  0.46190  0.55812  0.61504  1.0000
  C   C590      1.0  0.45969  0.57773  0.62363  1.0000
  C   C591      1.0  0.44555  0.58434  0.65849  1.0000
  C   C592      1.0  0.43369  0.57138  0.68477  1.0000
  C   C593      1.0  0.43641  0.55159  0.67723  1.0000
  H   H1033     1.0  0.47275  0.55298  0.58797  1.0000
  H   H1034     1.0  0.46893  0.58762  0.60341  1.0000
  H   H1035     1.0  0.42279  0.57649  0.71167  1.0000
  H   H1036     1.0  0.42746  0.54151  0.69819  1.0000
  C   C594      1.0  0.39729  0.54271  0.84026  1.0000
  C   C595      1.0  0.38839  0.55135  0.87723  1.0000
  C   C596      1.0  0.38430  0.57233  0.87585  1.0000
  C   C597      1.0  0.38812  0.58483  0.83699  1.0000
  C   C598      1.0  0.39624  0.57626  0.79964  1.0000
  C   C599      1.0  0.40122  0.55516  0.80132  1.0000
  H   H1037     1.0  0.38500  0.54180  0.90721  1.0000
  H   H1038     1.0  0.37776  0.57887  0.90468  1.0000
  H   H1039     1.0  0.39894  0.58600  0.76961  1.0000
  H   H1040     1.0  0.40791  0.54860  0.77257  1.0000
  C   C600      1.0  0.51056  0.49294  0.82793  1.0000
  H   H1041     1.0  0.41978  0.70779  0.69449  1.0000
  H   H1042     1.0  0.32681  0.65533  0.90208  1.0000
  C   C601      1.0  0.38830  0.70159  0.81933  1.0000
  H   H1043     1.0  0.42243  0.72203  0.98589  1.0000
  H   H1044     1.0  0.42072  0.66969  0.75336  1.0000
  H   H1045     1.0  0.34789  0.59849  0.25326  1.0000
  H   H1046     1.0  0.50992  0.50902  0.82102  1.0000
  S   S132      1.0  0.57805  0.51258  0.81841  1.0000
  N   N36       1.0  0.44173  0.68237  0.01734  1.0000
  C   C602      1.0  0.40506  0.66730  0.76367  1.0000
  H   H1047     1.0  0.40258  0.70786  0.00355  1.0000
  C   C603      1.0  0.40170  0.56037  0.59493  1.0000
  C   C604      1.0  0.47633  0.50498  0.93904  1.0000
  C   C605      1.0  0.35005  0.63423  0.38505  1.0000
  S   S133      1.0  0.38443  0.71944  0.36268  1.0000
  C   C606      1.0  0.35579  0.51148  0.96977  1.0000
  C   C607      1.0  0.49889  0.68666  0.31546  1.0000
  H   H1048     1.0  0.44427  0.71126  0.03004  1.0000
  H   H1049     1.0  0.52015  0.69223  0.35055  1.0000
  C   C608      1.0  0.36421  0.50281  0.92812  1.0000
  H   H1050     1.0  0.36634  0.50394  0.84172  1.0000
  H   H1051     1.0  0.44733  0.70906  0.81588  1.0000
  H   H1052     1.0  0.34093  0.50171  0.84832  1.0000
  S   S134      1.0  0.37558  0.71204  0.48606  1.0000
  H   H1053     1.0  0.46157  0.71518  0.73890  1.0000
  H   H1054     1.0  0.36317  0.72012  0.93774  1.0000
  C   C609      1.0  0.51103  0.66462  0.78192  1.0000
  C   C610      1.0  0.48090  0.70248  0.33406  1.0000
  H   H1055     1.0  0.38278  0.70658  0.69451  1.0000
  C   C611      1.0  0.45429  0.69708  0.02034  1.0000
  H   H1056     1.0  0.43203  0.70567  0.61872  1.0000
  H   H1057     1.0  0.42245  0.71989  0.91049  1.0000
  H   H1058     1.0  0.52081  0.70640  0.29732  1.0000
  C   C612      1.0  0.65174  0.52528  0.72894  1.0000
  H   H1059     1.0  0.33104  0.67997  0.21897  1.0000
  H   H1060     1.0  0.42556  0.63075  0.45088  1.0000
  H   H1061     1.0  0.33610  0.49624  0.92285  1.0000
  C   C613      1.0  0.49933  0.49577  0.99445  1.0000
  H   H1062     1.0  0.40252  0.66314  0.12825  1.0000
  H   H1063     1.0  0.49613  0.51505  0.72319  1.0000
  H   H1064     1.0  0.41862  0.57045  0.53423  1.0000
  Fe  Fe66      1.0  0.42144  0.50209  0.78763  1.0000
  C   C614      1.0  0.48663  0.63975  0.97900  1.0000
  H   H1065     1.0  0.38845  0.56599  0.61887  1.0000
  H   H1066     1.0  0.43321  0.67496  0.08569  1.0000
  C   C615      1.0  0.61518  0.56756  0.85785  1.0000
  C   C616      1.0  0.36076  0.71114  0.96885  1.0000
  C   C617      1.0  0.45083  0.69689  0.79716  1.0000
  H   H1067     1.0  0.34378  0.64753  0.40190  1.0000
  C   C618      1.0  0.49912  0.68059  0.84985  1.0000
  H   H1068     1.0  0.44406  0.70502  0.41357  1.0000
  C   C619      1.0  0.40919  0.63064  0.46078  1.0000
  H   H1069     1.0  0.40186  0.67336  0.03201  1.0000
  C   C620      1.0  0.50465  0.66089  0.83117  1.0000
  H   H1070     1.0  0.38599  0.68403  0.10200  1.0000
  H   H1071     1.0  0.33112  0.66460  0.74126  1.0000
  N   N37       1.0  0.52336  0.51500  0.67596  1.0000
  H   H1072     1.0  0.49708  0.67218  0.76883  1.0000
  H   H1073     1.0  0.47823  0.62735  0.98409  1.0000
  H   H1074     1.0  0.49818  0.63846  0.94943  1.0000
  N   N38       1.0  0.41416  0.61293  0.53703  1.0000
  C   C621      1.0  0.39865  0.65425  0.61196  1.0000
  H   H1075     1.0  0.40074  0.66739  0.58694  1.0000
  H   H1076     1.0  0.38227  0.65391  0.62131  1.0000
  H   H1077     1.0  0.40432  0.65605  0.64007  1.0000
  H   H1078     1.0  0.46406  0.64092  0.38608  1.0000
  C   C622      1.0  0.40388  0.64805  0.74759  1.0000
  C   C623      1.0  0.42084  0.63061  0.75962  1.0000
  H   H1079     1.0  0.40297  0.66353  0.79894  1.0000
  H   H1080     1.0  0.38940  0.64335  0.76290  1.0000
  C   C624      1.0  0.40131  0.62831  0.42196  1.0000
  H   H1081     1.0  0.43579  0.63343  0.74173  1.0000
  H   H1082     1.0  0.42088  0.62844  0.79421  1.0000
  H   H1083     1.0  0.41841  0.61644  0.75206  1.0000
  H   H1084     1.0  0.65541  0.53025  0.87776  1.0000
  H   H1085     1.0  0.43989  0.52027  0.87651  1.0000
  H   H1086     1.0  0.49841  0.51085  0.61951  1.0000
  C   C625      1.0  0.36881  0.68390  0.76738  1.0000
  H   H1087     1.0  0.50738  0.65602  0.70539  1.0000
  H   H1088     1.0  0.64049  0.55886  0.76816  1.0000
  C   C626      1.0  0.43213  0.68979  0.97826  1.0000
  C   C627      1.0  0.36168  0.67400  0.22955  1.0000
  H   H1089     1.0  0.42488  0.67818  0.97172  1.0000
  H   H1090     1.0  0.38033  0.49566  0.92852  1.0000
  H   H1091     1.0  0.63047  0.59762  0.75997  1.0000
  H   H1092     1.0  0.48099  0.67660  0.04266  1.0000
  C   C628      1.0  0.62632  0.54807  0.86751  1.0000
  H   H1093     1.0  0.62703  0.53142  0.78290  1.0000
  H   H1094     1.0  0.36001  0.65050  0.30216  1.0000
  H   H1095     1.0  0.36652  0.63341  0.37319  1.0000
  C   C629      1.0  0.53195  0.55550  0.57524  1.0000
  H   H1096     1.0  0.58410  0.62844  0.77213  1.0000
  H   H1097     1.0  0.35764  0.69127  0.16711  1.0000
  H   H1098     1.0  0.49052  0.70070  0.07752  1.0000
  H   H1099     1.0  0.49883  0.68581  0.28181  1.0000
  C   C630      1.0  0.64555  0.58119  0.84771  1.0000
  H   H1100     1.0  0.41119  0.59910  0.48457  1.0000
  H   H1101     1.0  0.63503  0.60191  0.70236  1.0000
  H   H1102     1.0  0.52226  0.52747  0.58410  1.0000
  C   C631      1.0  0.33862  0.67627  0.24723  1.0000
  H   H1103     1.0  0.48608  0.60500  0.75848  1.0000
  H   H1104     1.0  0.48147  0.70047  0.36864  1.0000
  H   H1105     1.0  0.44419  0.59315  0.47418  1.0000
  N   N39       1.0  0.46024  0.70120  0.32794  1.0000
  S   S135      1.0  0.36332  0.68113  0.40864  1.0000
  H   H1106     1.0  0.35887  0.69872  0.77335  1.0000
  H   H1107     1.0  0.41781  0.65197  0.05752  1.0000
  C   C632      1.0  0.39391  0.69252  0.70282  1.0000
  H   H1108     1.0  0.54859  0.52081  0.62596  1.0000
  H   H1109     1.0  0.45759  0.72517  0.39690  1.0000
  H   H1110     1.0  0.64028  0.53021  0.70776  1.0000
  C   C633      1.0  0.55912  0.62696  0.74235  1.0000
  H   H1111     1.0  0.57341  0.60616  0.79192  1.0000
  H   H1112     1.0  0.51692  0.65061  0.84643  1.0000
  C   C634      1.0  0.57762  0.61694  0.76301  1.0000
  C   C635      1.0  0.35723  0.50136  0.76527  1.0000
  H   H1113     1.0  0.46905  0.71973  0.06468  1.0000
  H   H1114     1.0  0.39877  0.54725  0.58385  1.0000
  Fe  Fe67      1.0  0.44393  0.50269  0.69690  1.0000
  H   H1115     1.0  0.39797  0.68836  0.83517  1.0000
  S   S136      1.0  0.61507  0.52700  0.87594  1.0000
  N   N40       1.0  0.39047  0.68631  0.75061  1.0000
  N   N41       1.0  0.45976  0.52018  0.92008  1.0000
  C   C636      1.0  0.63981  0.51897  0.77384  1.0000
  C   C637      1.0  0.46924  0.53707  0.89290  1.0000
  C   C638      1.0  0.53640  0.50801  0.70994  1.0000
  C   C639      1.0  0.44351  0.52791  0.95593  1.0000
  C   C640      1.0  0.42151  0.53444  0.94730  1.0000
  C   C641      1.0  0.48768  0.51299  0.96650  1.0000
  C   C642      1.0  0.45493  0.55481  0.87065  1.0000
  C   C643      1.0  0.46673  0.57026  0.84307  1.0000
  C   C644      1.0  0.40746  0.54549  0.98247  1.0000
  H   H1116     1.0  0.64946  0.51495  0.79855  1.0000
  H   H1117     1.0  0.33981  0.51955  0.97049  1.0000
  H   H1118     1.0  0.47621  0.54412  0.91229  1.0000
  H   H1119     1.0  0.48190  0.53096  0.86810  1.0000
  H   H1120     1.0  0.47195  0.70754  0.19375  1.0000
  H   H1121     1.0  0.40760  0.53585  0.01402  1.0000
  H   H1122     1.0  0.44738  0.54091  0.96591  1.0000
  H   H1123     1.0  0.34013  0.66743  0.32960  1.0000
  H   H1124     1.0  0.42066  0.54456  0.91674  1.0000
  H   H1125     1.0  0.47708  0.52306  0.98789  1.0000
  H   H1126     1.0  0.49885  0.52149  0.94547  1.0000
  H   H1127     1.0  0.44707  0.54965  0.84971  1.0000
  H   H1128     1.0  0.44363  0.56292  0.89469  1.0000
  H   H1129     1.0  0.47280  0.57770  0.86345  1.0000
  H   H1130     1.0  0.47952  0.56293  0.82042  1.0000
  H   H1131     1.0  0.45655  0.58202  0.82475  1.0000
  H   H1132     1.0  0.41222  0.55968  0.98334  1.0000
  H   H1133     1.0  0.39175  0.54948  0.97611  1.0000
  C   C645      1.0  0.45215  0.50989  0.89155  1.0000
  H   H1134     1.0  0.35435  0.68796  0.71165  1.0000
  H   H1135     1.0  0.36790  0.66274  0.72410  1.0000
  C   C646      1.0  0.45900  0.70305  0.28141  1.0000
  H   H1136     1.0  0.43751  0.68416  0.36361  1.0000
  C   C647      1.0  0.40916  0.68470  0.45776  1.0000
  H   H1137     1.0  0.49613  0.59462  0.80698  1.0000
  H   H1138     1.0  0.38868  0.61469  0.50714  1.0000
  H   H1139     1.0  0.41961  0.59107  0.59340  1.0000
  C   C648      1.0  0.35444  0.68799  0.04922  1.0000
  C   C649      1.0  0.39422  0.70304  0.77005  1.0000
  H   H1140     1.0  0.53174  0.67983  0.30469  1.0000
  H   H1141     1.0  0.64932  0.61171  0.73114  1.0000
  H   H1142     1.0  0.48394  0.71785  0.32114  1.0000
  H   H1143     1.0  0.43950  0.66214  0.23906  1.0000
  H   H1144     1.0  0.48012  0.58144  0.47518  1.0000
  H   H1145     1.0  0.44805  0.73332  0.32824  1.0000
  C   C650      1.0  0.52203  0.53891  0.60406  1.0000
  C   C651      1.0  0.45427  0.68185  0.35272  1.0000
  H   H1146     1.0  0.46086  0.67737  0.38239  1.0000
  H   H1147     1.0  0.55424  0.61513  0.73087  1.0000
  C   C652      1.0  0.39486  0.66846  0.10021  1.0000
  C   C653      1.0  0.43002  0.67637  0.22889  1.0000
  C   C654      1.0  0.33868  0.66959  0.76309  1.0000
  C   C655      1.0  0.45522  0.64425  0.35987  1.0000
  H   H1148     1.0  0.52150  0.68500  0.70207  1.0000
  H   H1149     1.0  0.44521  0.65115  0.00991  1.0000
  H   H1150     1.0  0.42688  0.68198  0.68491  1.0000
  S   S137      1.0  0.36150  0.65247  0.01802  1.0000
  H   H1151     1.0  0.43881  0.64636  0.37350  1.0000
  H   H1152     1.0  0.45937  0.63114  0.34227  1.0000
  H   H1153     1.0  0.53121  0.63979  0.69578  1.0000
  H   H1154     1.0  0.42685  0.63500  0.59125  1.0000
  H   H1155     1.0  0.45039  0.66562  0.30426  1.0000
  H   H1156     1.0  0.41544  0.52109  0.94602  1.0000
  H   H1157     1.0  0.59914  0.56995  0.85837  1.0000
  C   C656      1.0  0.64686  0.54526  0.86927  1.0000
  H   H1158     1.0  0.38239  0.68832  0.17991  1.0000
  H   H1159     1.0  0.40531  0.65027  0.71255  1.0000
  S   S138      1.0  0.41147  0.50233  0.72621  1.0000
  H   H1160     1.0  0.51249  0.68773  0.84394  1.0000
  C   C657      1.0  0.42536  0.73461  0.41091  1.0000
  H   H1161     1.0  0.59218  0.55786  0.62191  1.0000
  H   H1162     1.0  0.36814  0.65945  0.21739  1.0000
  C   C658      1.0  0.45970  0.66312  0.32935  1.0000
  C   C659      1.0  0.44500  0.71859  0.34571  1.0000
  H   H1163     1.0  0.36143  0.70557  0.20497  1.0000
  H   H1164     1.0  0.39516  0.72640  0.19219  1.0000
  C   C660      1.0  0.45454  0.66161  0.01348  1.0000
  C   C661      1.0  0.40538  0.57684  0.55706  1.0000
  C   C662      1.0  0.44922  0.59316  0.50430  1.0000
  H   H1165     1.0  0.49453  0.63797  0.00625  1.0000
  C   C663      1.0  0.53362  0.52895  0.64097  1.0000
  H   H1166     1.0  0.41522  0.55513  0.61024  1.0000
  H   H1167     1.0  0.46050  0.65488  0.04338  1.0000
  H   H1168     1.0  0.52964  0.60181  0.77064  1.0000
  H   H1169     1.0  0.54396  0.68665  0.63199  1.0000
  H   H1170     1.0  0.54825  0.65096  0.77986  1.0000
  H   H1171     1.0  0.48671  0.69121  0.83557  1.0000
  C   C664      1.0  0.41055  0.63467  0.59612  1.0000
  H   H1172     1.0  0.40959  0.64556  0.53048  1.0000
  C   C665      1.0  0.42589  0.68114  0.05734  1.0000
  H   H1173     1.0  0.47579  0.65993  0.31399  1.0000
  H   H1174     1.0  0.47804  0.59228  0.52238  1.0000
  H   H1175     1.0  0.54641  0.67025  0.70610  1.0000
  C   C666      1.0  0.41030  0.66797  0.05879  1.0000
  H   H1176     1.0  0.44294  0.51633  0.98500  1.0000
  C   C667      1.0  0.51597  0.61055  0.75802  1.0000
  H   H1177     1.0  0.49838  0.67162  0.33488  1.0000
  H   H1178     1.0  0.54862  0.65960  0.63501  1.0000
  C   C668      1.0  0.53241  0.67104  0.69388  1.0000
  H   H1179     1.0  0.33971  0.65289  0.94588  1.0000
  H   H1180     1.0  0.40307  0.64147  0.39668  1.0000
  S   S139      1.0  0.33610  0.72770  0.40784  1.0000
  C   C669      1.0  0.41254  0.68419  0.25662  1.0000
  H   H1181     1.0  0.34505  0.62147  0.33453  1.0000
  H   H1182     1.0  0.53723  0.54103  0.65447  1.0000
  H   H1183     1.0  0.48796  0.49827  0.91342  1.0000
  C   C670      1.0  0.40034  0.70242  0.24307  1.0000
  C   C671      1.0  0.39996  0.69759  0.48787  1.0000
  C   C672      1.0  0.41044  0.69912  0.51909  1.0000
  H   H1184     1.0  0.44292  0.60967  0.55659  1.0000
  H   H1185     1.0  0.61988  0.50422  0.75242  1.0000
  C   C673      1.0  0.41622  0.70980  0.97905  1.0000
  H   H1186     1.0  0.40314  0.70490  0.92781  1.0000
  C   C674      1.0  0.47221  0.66025  0.97471  1.0000
  Fe  Fe68      1.0  0.36571  0.71030  0.42562  1.0000
  H   H1187     1.0  0.46315  0.70187  0.98857  1.0000
  H   H1188     1.0  0.48911  0.71078  0.02250  1.0000
  H   H1189     1.0  0.46827  0.68970  0.26726  1.0000
  H   H1190     1.0  0.50657  0.62630  0.81102  1.0000
  H   H1191     1.0  0.38498  0.62774  0.43077  1.0000
  H   H1192     1.0  0.47404  0.60850  0.47280  1.0000
  H   H1193     1.0  0.44319  0.70323  0.27834  1.0000
  C   C675      1.0  0.40838  0.59597  0.57156  1.0000
  C   C676      1.0  0.33302  0.60597  0.24409  1.0000
  C   C677      1.0  0.48012  0.70630  0.05421  1.0000
  H   H1194     1.0  0.49292  0.63723  0.76911  1.0000
  H   H1195     1.0  0.44024  0.48950  0.94862  1.0000
  C   C678      1.0  0.52284  0.65237  0.71345  1.0000
  H   H1196     1.0  0.52412  0.56157  0.54763  1.0000
  C   C679      1.0  0.43526  0.68710  0.18798  1.0000
  H   H1197     1.0  0.38609  0.71932  0.86896  1.0000
  H   H1198     1.0  0.63698  0.56442  0.71465  1.0000
  H   H1199     1.0  0.41144  0.72923  0.41088  1.0000
  C   C680      1.0  0.44417  0.71982  0.39333  1.0000
  H   H1200     1.0  0.40990  0.61439  0.40893  1.0000
  H   H1201     1.0  0.41267  0.69234  0.61772  1.0000
  H   H1202     1.0  0.41734  0.69649  0.06324  1.0000
  H   H1203     1.0  0.50607  0.58282  0.75990  1.0000
  Fe  Fe69      1.0  0.33512  0.69912  0.38543  1.0000
  H   H1204     1.0  0.44396  0.69211  0.94950  1.0000
  C   C681      1.0  0.62477  0.58410  0.84810  1.0000
  H   H1205     1.0  0.51188  0.54248  0.73842  1.0000
  H   H1206     1.0  0.41058  0.70370  0.76266  1.0000
  C   C682      1.0  0.34337  0.65382  0.31353  1.0000
  H   H1207     1.0  0.54050  0.62836  0.80528  1.0000
  C   C683      1.0  0.45885  0.70036  0.75360  1.0000
  H   H1208     1.0  0.49384  0.67743  0.88478  1.0000
  C   C684      1.0  0.35327  0.70877  0.04555  1.0000
  H   H1209     1.0  0.35182  0.67914  0.08044  1.0000
  C   C685      1.0  0.64228  0.59883  0.73092  1.0000
  C   C686      1.0  0.53744  0.67301  0.64528  1.0000
  H   H1210     1.0  0.36778  0.67398  0.79894  1.0000
  H   H1211     1.0  0.37226  0.70039  0.83105  1.0000
  H   H1212     1.0  0.49194  0.52986  0.67430  1.0000
  C   C687      1.0  0.40949  0.71676  0.93595  1.0000
  H   H1213     1.0  0.42954  0.71810  0.34138  1.0000
  C   C688      1.0  0.41643  0.70354  0.63347  1.0000
  H   H1214     1.0  0.44886  0.68124  0.16680  1.0000
  H   H1215     1.0  0.34915  0.71589  0.07380  1.0000
  H   H1216     1.0  0.54819  0.54960  0.56316  1.0000
  C   C689      1.0  0.48063  0.55377  0.73503  1.0000
  H   H1217     1.0  0.47005  0.55581  0.71270  1.0000
  H   H1218     1.0  0.47986  0.56875  0.74367  1.0000
  H   H1219     1.0  0.44749  0.72415  0.20371  1.0000
  C   C690      1.0  0.64890  0.56077  0.73476  1.0000
  C   C691      1.0  0.50219  0.54518  0.71404  1.0000
  H   H1220     1.0  0.53069  0.56811  0.59299  1.0000
  H   H1221     1.0  0.38804  0.63544  0.55809  1.0000
  H   H1222     1.0  0.47566  0.54350  0.76421  1.0000
  H   H1223     1.0  0.50710  0.55688  0.68777  1.0000
  C   C692      1.0  0.50284  0.52559  0.69660  1.0000
  H   H1224     1.0  0.51943  0.61299  0.72294  1.0000
  H   H1225     1.0  0.38427  0.65843  0.10117  1.0000
  H   H1226     1.0  0.56415  0.63754  0.71386  1.0000
  C   C693      1.0  0.40489  0.63267  0.55373  1.0000
  H   H1227     1.0  0.40739  0.62206  0.62174  1.0000
  H   H1228     1.0  0.34068  0.50753  0.76945  1.0000
  H   H1229     1.0  0.39369  0.60134  0.59231  1.0000
  H   H1230     1.0  0.52349  0.67454  0.63216  1.0000
  C   C694      1.0  0.35940  0.67862  0.01276  1.0000
  C   C695      1.0  0.46920  0.68971  0.05226  1.0000
  H   H1231     1.0  0.36542  0.68332  0.94416  1.0000
  C   C696      1.0  0.40541  0.61340  0.49801  1.0000
  H   H1232     1.0  0.61613  0.59913  0.84017  1.0000
  C   C697      1.0  0.39127  0.72027  0.83403  1.0000
  H   H1233     1.0  0.40096  0.64544  0.47005  1.0000
  C   C698      1.0  0.51909  0.69167  0.31717  1.0000
  C   C699      1.0  0.35713  0.72027  0.00542  1.0000
  C   C700      1.0  0.42270  0.70533  0.17452  1.0000
  C   C701      1.0  0.49999  0.59750  0.77169  1.0000
  C   C702      1.0  0.36220  0.69029  0.97250  1.0000
  C   C703      1.0  0.36594  0.69083  0.19309  1.0000
  H   H1234     1.0  0.35336  0.63259  0.25303  1.0000
  C   C704      1.0  0.47170  0.59399  0.49300  1.0000
  H   H1235     1.0  0.49096  0.65410  0.83986  1.0000
  H   H1236     1.0  0.39187  0.58056  0.54150  1.0000
  C   C705      1.0  0.41540  0.69616  0.68119  1.0000
  Fe  Fe70      1.0  0.37945  0.69181  0.34371  1.0000
  H   H1237     1.0  0.40123  0.68351  0.43343  1.0000
  C   C706      1.0  0.44385  0.49059  0.91341  1.0000
  C   C707      1.0  0.50841  0.63069  0.77599  1.0000
  N   N42       1.0  0.52157  0.64622  0.76095  1.0000
  H   H1238     1.0  0.50616  0.54598  0.61580  1.0000
  S   S140      1.0  0.40590  0.67168  0.30842  1.0000
  H   H1239     1.0  0.40579  0.71819  0.62784  1.0000
  H   H1240     1.0  0.53951  0.52105  0.72110  1.0000
  C   C708      1.0  0.54207  0.63841  0.77402  1.0000
  H   H1241     1.0  0.32816  0.68242  0.77729  1.0000
  H   H1242     1.0  0.48236  0.72086  0.25100  1.0000
  H   H1243     1.0  0.40341  0.70927  0.54212  1.0000
  C   C709      1.0  0.40517  0.71269  0.20208  1.0000
  S   S141      1.0  0.35098  0.70744  0.31886  1.0000
  C   C710      1.0  0.35669  0.49273  0.84498  1.0000
  H   H1244     1.0  0.36989  0.67496  0.25469  1.0000
  H   H1245     1.0  0.46425  0.50614  0.86368  1.0000
  H   H1246     1.0  0.41931  0.73285  0.26125  1.0000
  H   H1247     1.0  0.38227  0.73421  0.81852  1.0000
  C   C711      1.0  0.46611  0.72149  0.25146  1.0000
  C   C712      1.0  0.46372  0.72184  0.20564  1.0000
  H   H1248     1.0  0.33690  0.64587  0.21772  1.0000
  S   S142      1.0  0.42889  0.71943  0.12413  1.0000
  H   H1249     1.0  0.49088  0.49308  0.78467  1.0000
  H   H1250     1.0  0.34787  0.62048  0.40821  1.0000
  H   H1251     1.0  0.45726  0.73598  0.26118  1.0000
  H   H1252     1.0  0.36485  0.52238  0.97243  1.0000
  C   C713      1.0  0.33739  0.64054  0.25220  1.0000
  H   H1253     1.0  0.38602  0.71792  0.75594  1.0000
  H   H1254     1.0  0.40753  0.72120  0.82664  1.0000
  H   H1255     1.0  0.65099  0.54652  0.64585  1.0000
  H   H1256     1.0  0.34204  0.65678  0.78883  1.0000
  H   H1257     1.0  0.50848  0.50192  0.01105  1.0000
  H   H1258     1.0  0.52821  0.49956  0.73849  1.0000
  H   H1259     1.0  0.56994  0.49817  0.74979  1.0000
  S   S143      1.0  0.65767  0.60184  0.83105  1.0000
  H   H1260     1.0  0.53467  0.49232  0.63391  1.0000
  C   C714      1.0  0.65645  0.56180  0.85939  1.0000
  H   H1261     1.0  0.46988  0.73449  0.18447  1.0000
  H   H1262     1.0  0.56755  0.50333  0.67335  1.0000
  C   C715      1.0  0.50196  0.49725  0.64303  1.0000
  H   H1263     1.0  0.35666  0.49929  0.99756  1.0000
  H   H1264     1.0  0.39767  0.73078  0.93730  1.0000
  C   C716      1.0  0.63088  0.50061  0.77456  1.0000
  S   S144      1.0  0.53283  0.49201  0.88941  1.0000
  H   H1265     1.0  0.47020  0.49217  0.95960  1.0000
  C   C717      1.0  0.55747  0.49443  0.69676  1.0000
  C   C718      1.0  0.35185  0.48758  0.92299  1.0000
  H   H1266     1.0  0.42931  0.49131  0.90322  1.0000
  H   H1267     1.0  0.48869  0.48786  0.01878  1.0000
  H   H1268     1.0  0.62284  0.49616  0.80732  1.0000
  H   H1269     1.0  0.65729  0.57016  0.64738  1.0000
  H   H1270     1.0  0.42569  0.73566  0.44443  1.0000
  H   H1271     1.0  0.64301  0.48762  0.76557  1.0000
  H   H1272     1.0  0.36154  0.80935  0.22420  1.0000
  Fe  Fe71      1.0  0.36790  0.75248  0.05713  1.0000
  H   H1273     1.0  0.33511  0.94311  0.12271  1.0000
  H   H1274     1.0  0.34505  0.91519  0.16638  1.0000
  Fe  Fe72      1.0  0.37660  0.78496  0.09666  1.0000
  S   S145      1.0  0.38348  0.76437  0.15593  1.0000
  S   S146      1.0  0.37770  0.81772  0.08836  1.0000
  C   C719      1.0  0.32940  0.92070  0.06832  1.0000
  H   H1275     1.0  0.35272  0.90084  0.12270  1.0000
  Fe  Fe73      1.0  0.35670  0.75227  0.15219  1.0000
  H   H1276     1.0  0.33411  0.88540  0.21444  1.0000
  S   S147      1.0  0.39629  0.76408  0.05191  1.0000
  S   S148      1.0  0.34791  0.77511  0.09708  1.0000
  H   H1277     1.0  0.38449  0.78219  0.23170  1.0000
  H   H1278     1.0  0.43865  0.80361  0.33664  1.0000
  H   H1279     1.0  0.33521  0.84063  0.23254  1.0000
  C   C720      1.0  0.34156  0.90323  0.15234  1.0000
  H   H1280     1.0  0.39325  0.74426  0.26009  1.0000
  S   S149      1.0  0.35415  0.76429  0.29976  1.0000
  H   H1281     1.0  0.40534  0.74832  0.30099  1.0000
  H   H1282     1.0  0.34454  0.82971  0.28132  1.0000
  H   H1283     1.0  0.39041  0.83527  0.23572  1.0000
  H   H1284     1.0  0.34405  0.92539  0.06570  1.0000
  H   H1285     1.0  0.36045  0.88004  0.18966  1.0000
  C   C721      1.0  0.32773  0.86115  0.08021  1.0000
  H   H1286     1.0  0.41635  0.76208  0.20491  1.0000
  H   H1287     1.0  0.42475  0.74985  0.39180  1.0000
  C   C722      1.0  0.42790  0.79901  0.10719  1.0000
  H   H1288     1.0  0.43833  0.80889  0.15557  1.0000
  H   H1289     1.0  0.34211  0.87104  0.17032  1.0000
  H   H1290     1.0  0.33074  0.81749  0.03446  1.0000
  H   H1291     1.0  0.33342  0.90400  0.06934  1.0000
  H   H1292     1.0  0.41671  0.78904  0.30582  1.0000
  C   C723      1.0  0.42789  0.79907  0.15416  1.0000
  H   H1293     1.0  0.42217  0.81445  0.09141  1.0000
  H   H1294     1.0  0.38110  0.81714  0.27755  1.0000
  N   N43       1.0  0.40312  0.80416  0.22647  1.0000
  H   H1295     1.0  0.33091  0.77486  0.38031  1.0000
  H   H1296     1.0  0.33276  0.92992  0.95738  1.0000
  H   H1297     1.0  0.34489  0.90794  0.98926  1.0000
  C   C724      1.0  0.36620  0.82372  0.22331  1.0000
  H   H1298     1.0  0.43529  0.79581  0.22904  1.0000
  H   H1299     1.0  0.35280  0.85170  0.24969  1.0000
  H   H1300     1.0  0.34424  0.81301  0.15859  1.0000
  H   H1301     1.0  0.39522  0.80096  0.16750  1.0000
  H   H1302     1.0  0.35118  0.93225  0.98689  1.0000
  C   C725      1.0  0.42157  0.80656  0.24128  1.0000
  H   H1303     1.0  0.33161  0.98076  0.11479  1.0000
  C   C726      1.0  0.42017  0.80393  0.29029  1.0000
  C   C727      1.0  0.32524  0.79718  0.27959  1.0000
  C   C728      1.0  0.40637  0.80730  0.17826  1.0000
  H   H1304     1.0  0.42497  0.82176  0.22754  1.0000
  H   H1305     1.0  0.32946  0.73871  0.12578  1.0000
  C   C729      1.0  0.34865  0.83731  0.24821  1.0000
  H   H1306     1.0  0.33147  0.79528  0.24673  1.0000
  H   H1307     1.0  0.41825  0.78877  0.10394  1.0000
  S   S150      1.0  0.35816  0.74579  0.00045  1.0000
  C   C730      1.0  0.33310  0.78333  0.31244  1.0000
  H   H1308     1.0  0.40828  0.81593  0.30433  1.0000
  Fe  Fe74      1.0  0.40077  0.74231  0.11173  1.0000
  C   C731      1.0  0.44015  0.80527  0.30147  1.0000
  H   H1309     1.0  0.45255  0.79304  0.28967  1.0000
  C   C732      1.0  0.41398  0.76496  0.23823  1.0000
  H   H1310     1.0  0.44416  0.82012  0.28733  1.0000
  C   C733      1.0  0.33875  0.92443  0.98753  1.0000
  H   H1311     1.0  0.40322  0.82371  0.16548  1.0000
  C   C734      1.0  0.40756  0.74649  0.26700  1.0000
  H   H1312     1.0  0.39127  0.78344  0.27981  1.0000
  C   C735      1.0  0.39735  0.78406  0.24501  1.0000
  S   S151      1.0  0.33261  0.96726  0.21557  1.0000
  H   H1313     1.0  0.44354  0.79358  0.09061  1.0000
  H   H1314     1.0  0.32597  0.92683  0.23950  1.0000
  C   C736      1.0  0.35330  0.83223  0.10023  1.0000
  C   C737      1.0  0.34736  0.84967  0.07225  1.0000
  H   H1315     1.0  0.36861  0.83112  0.18960  1.0000
  H   H1316     1.0  0.43429  0.78357  0.16788  1.0000
  H   H1317     1.0  0.42852  0.76605  0.24570  1.0000
  C   C738      1.0  0.33973  0.82661  0.13705  1.0000
  H   H1318     1.0  0.35777  0.85391  0.04364  1.0000
  S   S152      1.0  0.33411  0.74351  0.20895  1.0000
  C   C739      1.0  0.38571  0.82041  0.24229  1.0000
  C   C740      1.0  0.34468  0.88372  0.18366  1.0000
  H   H1319     1.0  0.33012  0.98637  0.48534  1.0000
  H   H1320     1.0  0.90414  0.00729  0.23336  1.0000
  S   S153      1.0  0.98904  0.14016  0.22610  1.0000
  H   H1321     1.0  0.90765  0.03652  0.61333  1.0000
  Fe  Fe75      1.0  0.95106  0.15347  0.14954  1.0000
  S   S154      1.0  0.94101  0.15388  0.21991  1.0000
  S   S155      1.0  0.92906  0.15991  0.10419  1.0000
  Fe  Fe76      1.0  0.96713  0.16895  0.21317  1.0000
  S   S156      1.0  0.96586  0.19490  0.24656  1.0000
  Fe  Fe77      1.0  0.96399  0.12511  0.22579  1.0000
  S   S157      1.0  0.96075  0.09938  0.27834  1.0000
  S   S158      1.0  0.97569  0.17084  0.14210  1.0000
  S   S159      1.0  0.97216  0.12325  0.15602  1.0000
  H   H1322     1.0  0.75050  0.16454  0.05907  1.0000
  S   S160      1.0  0.95377  0.08713  0.52211  1.0000
  Fe  Fe78      1.0  0.94175  0.14354  0.47167  1.0000
  S   S161      1.0  0.95326  0.13390  0.53311  1.0000
  S   S162      1.0  0.93733  0.17649  0.44562  1.0000
  Fe  Fe79      1.0  0.97444  0.10938  0.50013  1.0000
  H   H1323     1.0  0.87344  0.23359  0.48146  1.0000
  Fe  Fe80      1.0  0.93151  0.11287  0.54929  1.0000
  S   S163      1.0  0.90970  0.10769  0.61048  1.0000
  S   S164      1.0  0.96424  0.12034  0.43754  1.0000
  S   S165      1.0  0.91780  0.12502  0.49075  1.0000
  Fe  Fe81      1.0  0.81981  0.15844  0.14054  1.0000
  S   S166      1.0  0.81886  0.13369  0.10571  1.0000
  S   S167      1.0  0.83858  0.15555  0.19075  1.0000
  Fe  Fe82      1.0  0.79367  0.19057  0.08728  1.0000
  S   S168      1.0  0.79087  0.16900  0.04666  1.0000
  H   H1324     1.0  0.83425  0.12441  0.81898  1.0000
  Fe  Fe83      1.0  0.78594  0.14810  0.10796  1.0000
  S   S169      1.0  0.76239  0.12902  0.11961  1.0000
  Fe  Fe84      1.0  0.82374  0.15641  0.04737  1.0000
  S   S170      1.0  0.84476  0.14759  0.98813  1.0000
  S   S171      1.0  0.78628  0.17061  0.14921  1.0000
  S   S172      1.0  0.82719  0.18016  0.08177  1.0000
  Fe  Fe85      1.0  0.82825  0.21606  0.78282  1.0000
  S   S173      1.0  0.83621  0.18564  0.76240  1.0000
  S   S174      1.0  0.82545  0.22214  0.84874  1.0000
  H   H1325     1.0  0.89238  0.06045  0.41255  1.0000
  S   S175      1.0  0.83420  0.21006  0.66512  1.0000
  H   H1326     1.0  0.84040  0.03955  0.62825  1.0000
  Fe  Fe86      1.0  0.81241  0.19890  0.72202  1.0000
  S   S176      1.0  0.78976  0.18162  0.71541  1.0000
  Fe  Fe87      1.0  0.85707  0.19976  0.70844  1.0000
  S   S177      1.0  0.89030  0.18756  0.69107  1.0000
  S   S178      1.0  0.80261  0.22833  0.74722  1.0000
  H   H1327     1.0  0.90633  0.23353  0.15960  1.0000
  C   C741      1.0  0.84209  0.16863  0.94877  1.0000
  C   C742      1.0  0.84811  0.16648  0.90568  1.0000
  C   C743      1.0  0.84361  0.18306  0.87435  1.0000
  C   C744      1.0  0.83338  0.20173  0.88627  1.0000
  C   C745      1.0  0.82863  0.20414  0.92918  1.0000
  C   C746      1.0  0.83270  0.18753  0.96042  1.0000
  H   H1328     1.0  0.85549  0.15186  0.89664  1.0000
  H   H1329     1.0  0.84771  0.18127  0.84121  1.0000
  H   H1330     1.0  0.82079  0.21863  0.93841  1.0000
  H   H1331     1.0  0.82795  0.18929  0.99351  1.0000
  C   C747      1.0  0.90448  0.12875  0.63673  1.0000
  C   C748      1.0  0.88473  0.13602  0.65698  1.0000
  C   C749      1.0  0.88028  0.15389  0.67487  1.0000
  C   C750      1.0  0.89569  0.16420  0.67312  1.0000
  C   C751      1.0  0.91557  0.15635  0.65477  1.0000
  C   C752      1.0  0.91992  0.13880  0.63613  1.0000
  H   H1332     1.0  0.87276  0.12821  0.65770  1.0000
  H   H1333     1.0  0.86493  0.15980  0.68953  1.0000
  H   H1334     1.0  0.92756  0.16409  0.65417  1.0000
  H   H1335     1.0  0.93528  0.13289  0.62176  1.0000
  H   H1336     1.0  0.98081  0.10165  0.35423  1.0000
  H   H1337     1.0  0.93505  0.00129  0.18578  1.0000
  S   S179      1.0  0.70931  0.14390  0.97633  1.0000
  H   H1338     1.0  0.82897  0.12420  0.31394  1.0000
  C   C753      1.0  0.93883  0.03670  0.58885  1.0000
  C   C754      1.0  0.89894  0.18305  0.81334  1.0000
  C   C755      1.0  0.90383  0.15920  0.12840  1.0000
  C   C756      1.0  0.89103  0.15437  0.10558  1.0000
  C   C757      1.0  0.87095  0.15333  0.12458  1.0000
  C   C758      1.0  0.86351  0.15738  0.16630  1.0000
  C   C759      1.0  0.87611  0.16282  0.18868  1.0000
  C   C760      1.0  0.89624  0.16366  0.16979  1.0000
  H   H1339     1.0  0.89676  0.15101  0.07345  1.0000
  H   H1340     1.0  0.86141  0.14892  0.10719  1.0000
  H   H1341     1.0  0.87030  0.16642  0.22058  1.0000
  H   H1342     1.0  0.90570  0.16823  0.18693  1.0000
  C   C761      1.0  0.95798  0.18941  0.30176  1.0000
  C   C762      1.0  0.95459  0.17020  0.32068  1.0000
  C   C763      1.0  0.94828  0.16609  0.36496  1.0000
  C   C764      1.0  0.94529  0.18119  0.39027  1.0000
  C   C765      1.0  0.94868  0.20037  0.37128  1.0000
  C   C766      1.0  0.95514  0.20443  0.32713  1.0000
  H   H1343     1.0  0.95673  0.15854  0.30122  1.0000
  H   H1344     1.0  0.94531  0.15138  0.37929  1.0000
  H   H1345     1.0  0.94635  0.21208  0.39072  1.0000
  H   H1346     1.0  0.95773  0.21929  0.31253  1.0000
  H   H1347     1.0  0.92012  0.02857  0.14891  1.0000
  N   N44       1.0  0.88916  0.06208  0.54347  1.0000
  C   C767      1.0  0.95123  0.01595  0.42886  1.0000
  C   C768      1.0  0.74445  0.15240  0.05364  1.0000
  H   H1348     1.0  0.73658  0.15359  0.82294  1.0000
  C   C769      1.0  0.96095  0.07694  0.26100  1.0000
  C   C770      1.0  0.96290  0.05908  0.28971  1.0000
  C   C771      1.0  0.95870  0.07669  0.21942  1.0000
  H   H1349     1.0  0.96469  0.05931  0.32186  1.0000
  H   H1350     1.0  0.95660  0.09049  0.19749  1.0000
  H   H1351     1.0  0.87539  0.20773  0.14910  1.0000
  H   H1352     1.0  0.79627  0.09909  0.01583  1.0000
  C   C772      1.0  0.72867  0.19309  0.74273  1.0000
  H   H1353     1.0  0.88248  0.99847  0.22887  1.0000
  H   H1354     1.0  0.94185  0.02201  0.57697  1.0000
  H   H1355     1.0  0.94279  0.03392  0.62111  1.0000
  Fe  Fe88      1.0  0.96651  0.99302  0.27294  1.0000
  H   H1356     1.0  0.66733  0.20290  0.76428  1.0000
  C   C773      1.0  0.72411  0.20271  0.77879  1.0000
  S   S180      1.0  0.69860  0.21002  0.80236  1.0000
  H   H1357     1.0  0.92089  0.04323  0.28960  1.0000
  C   C774      1.0  0.89927  0.99422  0.22619  1.0000
  H   H1358     1.0  0.83691  0.14811  0.83023  1.0000
  C   C775      1.0  0.85337  0.03953  0.64336  1.0000
  Fe  Fe89      1.0  0.69339  0.20731  0.87355  1.0000
  H   H1359     1.0  0.86008  0.05305  0.55611  1.0000
  C   C776      1.0  0.95855  0.05851  0.20646  1.0000
  H   H1360     1.0  0.88366  0.00842  0.15464  1.0000
  Fe  Fe90      1.0  0.69864  0.17652  0.95248  1.0000
  S   S181      1.0  0.93179  0.08429  0.41914  1.0000
  H   H1361     1.0  0.77226  0.20297  0.78855  1.0000
  H   H1362     1.0  0.76322  0.20456  0.98424  1.0000
  H   H1363     1.0  0.69282  0.22368  0.11546  1.0000
  H   H1364     1.0  0.88699  0.08231  0.58862  1.0000
  H   H1365     1.0  0.90420  0.04419  0.34068  1.0000
  H   H1366     1.0  0.67352  0.11122  0.95500  1.0000
  H   H1367     1.0  0.66727  0.17228  0.83088  1.0000
  H   H1368     1.0  0.72942  0.17054  0.00328  1.0000
  H   H1369     1.0  0.67627  0.17327  0.74618  1.0000
  H   H1370     1.0  0.85172  0.20876  0.02654  1.0000
  S   S182      1.0  0.72119  0.23434  0.97624  1.0000
  H   H1371     1.0  0.89812  0.03342  0.30000  1.0000
  C   C777      1.0  0.76014  0.20033  0.77555  1.0000
  H   H1372     1.0  0.90716  0.20676  0.17643  1.0000
  H   H1373     1.0  0.76099  0.21902  0.93219  1.0000
  S   S183      1.0  0.77657  0.22271  0.08078  1.0000
  H   H1374     1.0  0.91191  0.20155  0.84245  1.0000
  H   H1375     1.0  0.90225  0.22577  0.61412  1.0000
  C   C778      1.0  0.87916  0.19537  0.98924  1.0000
  H   H1376     1.0  0.87235  0.19745  0.96031  1.0000
  H   H1377     1.0  0.89526  0.19675  0.97921  1.0000
  H   H1378     1.0  0.87838  0.17996  0.00669  1.0000
  C   C779      1.0  0.89487  0.04454  0.11967  1.0000
  H   H1379     1.0  0.94385  0.19128  0.60638  1.0000
  H   H1380     1.0  0.69802  0.13823  0.80456  1.0000
  C   C780      1.0  0.87379  0.05037  0.57088  1.0000
  H   H1381     1.0  0.87129  0.07223  0.49334  1.0000
  S   S184      1.0  0.67445  0.18566  0.91262  1.0000
  H   H1382     1.0  0.94871  0.04643  0.56739  1.0000
  H   H1383     1.0  0.96337  0.02743  0.29984  1.0000
  H   H1384     1.0  0.86922  0.22181  0.41758  1.0000
  C   C781      1.0  0.88486  0.04878  0.43427  1.0000
  C   C782      1.0  0.90375  0.02845  0.15377  1.0000
  H   H1385     1.0  0.87569  0.22526  0.62622  1.0000
  H   H1386     1.0  0.71976  0.19397  0.13344  1.0000
  H   H1387     1.0  0.98877  0.02540  0.36073  1.0000
  H   H1388     1.0  0.78177  0.23435  0.85793  1.0000
  H   H1389     1.0  0.91181  0.17013  0.81703  1.0000
  H   H1390     1.0  0.90763  0.20266  0.10181  1.0000
  H   H1391     1.0  0.66583  0.17584  0.11069  1.0000
  C   C783      1.0  0.89133  0.04474  0.47773  1.0000
  C   C784      1.0  0.88228  0.21418  0.43349  1.0000
  C   C785      1.0  0.89719  0.19702  0.84593  1.0000
  H   H1392     1.0  0.70812  0.14887  0.75121  1.0000
  H   H1393     1.0  0.90225  0.04105  0.08725  1.0000
  H   H1394     1.0  0.75075  0.15024  0.92906  1.0000
  H   H1395     1.0  0.67262  0.13795  0.94406  1.0000
  S   S185      1.0  0.71880  0.19584  0.90979  1.0000
  H   H1396     1.0  0.92902  0.21817  0.55335  1.0000
  H   H1397     1.0  0.90157  0.19099  0.78018  1.0000
  H   H1398     1.0  0.70257  0.16390  0.09387  1.0000
  C   C786      1.0  0.74058  0.14768  0.85497  1.0000
  H   H1399     1.0  0.90648  0.00488  0.11717  1.0000
  H   H1400     1.0  0.72525  0.19388  0.07632  1.0000
  H   H1401     1.0  0.92956  0.05702  0.36593  1.0000
  H   H1402     1.0  0.74241  0.10335  0.09184  1.0000
  H   H1403     1.0  0.75226  0.17886  0.69639  1.0000
  H   H1404     1.0  0.89703  0.07439  0.47691  1.0000
  H   H1405     1.0  0.72704  0.15212  0.87937  1.0000
  C   C787      1.0  0.91122  0.21843  0.14919  1.0000
  C   C788      1.0  0.67164  0.15927  0.11351  1.0000
  C   C789      1.0  0.83344  0.22594  0.14836  1.0000
  H   H1406     1.0  0.70163  0.22652  0.05997  1.0000
  C   C790      1.0  0.88750  0.23229  0.60368  1.0000
  H   H1407     1.0  0.91076  0.22269  0.77972  1.0000
  H   H1408     1.0  0.85002  0.19925  0.12128  1.0000
  H   H1409     1.0  0.87799  0.05481  0.63430  1.0000
  H   H1410     1.0  0.91427  0.06113  0.60444  1.0000
  C   C791      1.0  0.88648  0.08292  0.55455  1.0000
  H   H1411     1.0  0.88005  0.03387  0.57232  1.0000
  N   N45       1.0  0.89195  0.20740  0.55013  1.0000
  C   C792      1.0  0.91033  0.19484  0.56714  1.0000
  C   C793      1.0  0.87371  0.19884  0.57349  1.0000
  H   H1412     1.0  0.81666  0.21953  0.02901  1.0000
  C   C794      1.0  0.69345  0.15543  0.12055  1.0000
  H   H1413     1.0  0.96174  0.01700  0.48604  1.0000
  C   C795      1.0  0.90031  0.00736  0.15062  1.0000
  H   H1414     1.0  0.88494  0.17696  0.81858  1.0000
  C   C796      1.0  0.87280  0.17781  0.56456  1.0000
  C   C797      1.0  0.85272  0.17197  0.58741  1.0000
  C   C798      1.0  0.89538  0.20683  0.50297  1.0000
  H   H1415     1.0  0.75318  0.17306  0.85470  1.0000
  H   H1416     1.0  0.90139  0.21869  0.90403  1.0000
  H   H1417     1.0  0.91313  0.17910  0.56035  1.0000
  H   H1418     1.0  0.90764  0.19348  0.60236  1.0000
  H   H1419     1.0  0.87296  0.19711  0.60849  1.0000
  H   H1420     1.0  0.85945  0.20950  0.56725  1.0000
  H   H1421     1.0  0.70039  0.13910  0.12301  1.0000
  C   C799      1.0  0.73986  0.20639  0.79520  1.0000
  C   C800      1.0  0.69732  0.15222  0.78089  1.0000
  C   C801      1.0  0.89602  0.23348  0.77910  1.0000
  H   H1422     1.0  0.84734  0.04347  0.67593  1.0000
  H   H1423     1.0  0.96184  0.19455  0.55754  1.0000
  H   H1424     1.0  0.87514  0.12426  0.55845  1.0000
  C   C802      1.0  0.87804  0.22104  0.12454  1.0000
  Fe  Fe91      1.0  0.70213  0.21940  0.95038  1.0000
  H   H1425     1.0  0.90032  0.19099  0.49651  1.0000
  H   H1426     1.0  0.87391  0.17749  0.53017  1.0000
  H   H1427     1.0  0.88526  0.16610  0.57615  1.0000
  H   H1428     1.0  0.79019  0.12330  0.03364  1.0000
  H   H1429     1.0  0.85253  0.15667  0.58206  1.0000
  H   H1430     1.0  0.89552  0.99619  0.31262  1.0000
  C   C803      1.0  0.94740  0.18955  0.57211  1.0000
  H   H1431     1.0  0.70211  0.16384  0.79365  1.0000
  H   H1432     1.0  0.91344  0.03580  0.53680  1.0000
  C   C804      1.0  0.76456  0.14845  0.90381  1.0000
  H   H1433     1.0  0.68104  0.13690  0.07044  1.0000
  H   H1434     1.0  0.90631  0.22921  0.08501  1.0000
  H   H1435     1.0  0.74523  0.19339  0.10439  1.0000
  C   C805      1.0  0.88695  0.06448  0.49737  1.0000
  H   H1436     1.0  0.93536  0.20102  0.51487  1.0000
  H   H1437     1.0  0.96841  0.99885  0.13710  1.0000
  H   H1438     1.0  0.89466  0.18791  0.87812  1.0000
  H   H1439     1.0  0.77732  0.15396  0.98300  1.0000
  H   H1440     1.0  0.79367  0.16803  0.84902  1.0000
  H   H1441     1.0  0.76969  0.13197  0.90420  1.0000
  H   H1442     1.0  0.93960  0.01987  0.37085  1.0000
  C   C806      1.0  0.87924  0.21548  0.84337  1.0000
  H   H1443     1.0  0.84201  0.22412  0.17449  1.0000
  C   C807      1.0  0.86240  0.11609  0.56785  1.0000
  H   H1444     1.0  0.79445  0.18270  0.95287  1.0000
  C   C808      1.0  0.73247  0.15579  0.02209  1.0000
  C   C809      1.0  0.72812  0.12119  0.04028  1.0000
  C   C810      1.0  0.94235  0.02728  0.39479  1.0000
  S   S186      1.0  0.98850  0.99101  0.31580  1.0000
  S   S187      1.0  0.68404  0.19904  0.99664  1.0000
  S   S188      1.0  0.67807  0.23280  0.91060  1.0000
  H   H1445     1.0  0.71658  0.19037  0.72970  1.0000
  N   N46       1.0  0.89191  0.10454  0.27968  1.0000
  C   C811      1.0  0.90211  0.08349  0.29632  1.0000
  C   C812      1.0  0.90425  0.11919  0.28389  1.0000
  C   C813      1.0  0.87076  0.10897  0.30520  1.0000
  C   C814      1.0  0.89041  0.10652  0.23334  1.0000
  C   C815      1.0  0.91053  0.10004  0.20267  1.0000
  C   C816      1.0  0.89317  0.06611  0.28859  1.0000
  C   C817      1.0  0.85917  0.13116  0.29800  1.0000
  C   C818      1.0  0.90618  0.12018  0.33012  1.0000
  C   C819      1.0  0.91684  0.13702  0.33153  1.0000
  C   C820      1.0  0.90681  0.10015  0.15802  1.0000
  C   C821      1.0  0.90484  0.04553  0.30588  1.0000
  C   C822      1.0  0.83767  0.13364  0.32379  1.0000
  H   H1446     1.0  0.90134  0.08181  0.33136  1.0000
  H   H1447     1.0  0.91860  0.08070  0.28303  1.0000
  H   H1448     1.0  0.91998  0.11519  0.26630  1.0000
  H   H1449     1.0  0.89833  0.13464  0.26822  1.0000
  H   H1450     1.0  0.87084  0.10448  0.33995  1.0000
  H   H1451     1.0  0.86123  0.09963  0.29769  1.0000
  H   H1452     1.0  0.87916  0.09809  0.22953  1.0000
  H   H1453     1.0  0.88441  0.12243  0.22075  1.0000
  H   H1454     1.0  0.91830  0.08457  0.21358  1.0000
  H   H1455     1.0  0.92082  0.11058  0.19997  1.0000
  H   H1456     1.0  0.87715  0.06739  0.30481  1.0000
  H   H1457     1.0  0.89390  0.06622  0.25413  1.0000
  H   H1458     1.0  0.85791  0.13609  0.26407  1.0000
  H   H1459     1.0  0.86685  0.14151  0.30776  1.0000
  H   H1460     1.0  0.89123  0.12294  0.35126  1.0000
  H   H1461     1.0  0.91531  0.10581  0.34355  1.0000
  H   H1462     1.0  0.90853  0.15190  0.31812  1.0000
  H   H1463     1.0  0.91759  0.13745  0.36512  1.0000
  H   H1464     1.0  0.93256  0.13418  0.31344  1.0000
  H   H1465     1.0  0.92151  0.09624  0.13636  1.0000
  H   H1466     1.0  0.89748  0.08898  0.15861  1.0000
  H   H1467     1.0  0.89891  0.11530  0.14521  1.0000
  C   C823      1.0  0.75815  0.15652  0.85967  1.0000
  H   H1468     1.0  0.81371  0.11607  0.99787  1.0000
  C   C824      1.0  0.87720  0.21713  0.48037  1.0000
  H   H1469     1.0  0.83795  0.12940  0.35843  1.0000
  H   H1470     1.0  0.89627  0.03315  0.18512  1.0000
  Fe  Fe92      1.0  0.94149  0.10062  0.46219  1.0000
  H   H1471     1.0  0.92797  0.21529  0.13947  1.0000
  H   H1472     1.0  0.89947  0.08998  0.53707  1.0000
  C   C825      1.0  0.86695  0.09792  0.54442  1.0000
  H   H1473     1.0  0.87965  0.19358  0.07244  1.0000
  H   H1474     1.0  0.95321  0.05434  0.47889  1.0000
  C   C826      1.0  0.86740  0.21120  0.01743  1.0000
  H   H1475     1.0  0.67699  0.16183  0.04506  1.0000
  S   S189      1.0  0.96090  0.01789  0.21898  1.0000
  H   H1476     1.0  0.81843  0.14743  0.79869  1.0000
  H   H1477     1.0  0.82977  0.14965  0.31780  1.0000
  H   H1478     1.0  0.89268  0.21244  0.04374  1.0000
  C   C827      1.0  0.74886  0.18658  0.72387  1.0000
  H   H1479     1.0  0.80533  0.21841  0.14207  1.0000
  N   N47       1.0  0.86596  0.22308  0.08965  1.0000
  C   C828      1.0  0.87725  0.20958  0.05689  1.0000
  H   H1480     1.0  0.95670  0.05837  0.17432  1.0000
  S   S190      1.0  0.85084  0.22925  0.73214  1.0000
  C   C829      1.0  0.72510  0.22253  0.09511  1.0000
  H   H1481     1.0  0.87048  0.21583  0.87618  1.0000
  C   C830      1.0  0.82586  0.13956  0.82614  1.0000
  H   H1482     1.0  0.80268  0.14903  0.95577  1.0000
  H   H1483     1.0  0.85066  0.17187  0.62226  1.0000
  H   H1484     1.0  0.87274  0.23439  0.14164  1.0000
  C   C831      1.0  0.84657  0.21581  0.10998  1.0000
  C   C832      1.0  0.88835  0.22905  0.55725  1.0000
  H   H1485     1.0  0.90811  0.21430  0.48598  1.0000
  H   H1486     1.0  0.79468  0.11562  0.94148  1.0000
  H   H1487     1.0  0.90778  0.03815  0.47254  1.0000
  H   H1488     1.0  0.83644  0.21824  0.08644  1.0000
  H   H1489     1.0  0.66721  0.23398  0.07212  1.0000
  C   C833      1.0  0.81484  0.21652  0.16667  1.0000
  H   H1490     1.0  0.74484  0.13097  0.85834  1.0000
  H   H1491     1.0  0.81828  0.12911  0.89280  1.0000
  H   H1492     1.0  0.88935  0.03468  0.41981  1.0000
  C   C834      1.0  0.86572  0.05491  0.61730  1.0000
  H   H1493     1.0  0.73553  0.22704  0.06542  1.0000
  H   H1494     1.0  0.94944  0.17337  0.56921  1.0000
  C   C835      1.0  0.93047  0.20228  0.54926  1.0000
  C   C836      1.0  0.67036  0.15159  0.07246  1.0000
  H   H1495     1.0  0.80951  0.16537  0.88629  1.0000
  C   C837      1.0  0.79743  0.11516  0.00612  1.0000
  H   H1496     1.0  0.73641  0.21400  0.82281  1.0000
  H   H1497     1.0  0.72190  0.10904  0.03512  1.0000
  C   C838      1.0  0.70287  0.23164  0.08957  1.0000
  H   H1498     1.0  0.69382  0.16070  0.15053  1.0000
  C   C839      1.0  0.81008  0.13737  0.86676  1.0000
  H   H1499     1.0  0.87829  0.04557  0.12365  1.0000
  C   C840      1.0  0.78694  0.12424  0.96790  1.0000
  H   H1500     1.0  0.98398  0.09055  0.09951  1.0000
  C   C841      1.0  0.91050  0.05092  0.54668  1.0000
  H   H1501     1.0  0.78191  0.21918  0.95694  1.0000
  H   H1502     1.0  0.88563  0.19787  0.43068  1.0000
  C   C842      1.0  0.72897  0.19951  0.10287  1.0000
  C   C843      1.0  0.90145  0.21778  0.11168  1.0000
  H   H1503     1.0  0.65959  0.14938  0.83138  1.0000
  C   C844      1.0  0.76465  0.19027  0.73997  1.0000
  H   H1504     1.0  0.83981  0.18271  0.57511  1.0000
  C   C845      1.0  0.78423  0.19172  0.93125  1.0000
  C   C846      1.0  0.79829  0.15820  0.87818  1.0000
  H   H1505     1.0  0.79363  0.19759  0.90132  1.0000
  H   H1506     1.0  0.77103  0.12206  0.97712  1.0000
  C   C847      1.0  0.78714  0.14705  0.95542  1.0000
  C   C848      1.0  0.73970  0.11797  0.07235  1.0000
  N   N48       1.0  0.78037  0.15779  0.91401  1.0000
  C   C849      1.0  0.91652  0.04695  0.59115  1.0000
  H   H1507     1.0  0.85564  0.07002  0.61732  1.0000
  H   H1508     1.0  0.86854  0.21221  0.82564  1.0000
  H   H1509     1.0  0.89566  0.22068  0.41672  1.0000
  C   C850      1.0  0.77053  0.17927  0.92032  1.0000
  C   C851      1.0  0.77178  0.20971  0.95245  1.0000
  H   H1510     1.0  0.79989  0.12819  0.86156  1.0000
  C   C852      1.0  0.96259  0.04096  0.27695  1.0000
  C   C853      1.0  0.96067  0.04062  0.23521  1.0000
  H   H1511     1.0  0.85365  0.09060  0.55318  1.0000
  N   N49       1.0  0.88481  0.23559  0.82398  1.0000
  H   H1512     1.0  0.75686  0.17941  0.94593  1.0000
  H   H1513     1.0  0.76507  0.18815  0.89131  1.0000
  H   H1514     1.0  0.86888  0.10370  0.50971  1.0000
  H   H1515     1.0  0.85998  0.11127  0.60292  1.0000
  C   C854      1.0  0.94041  0.05812  0.42243  1.0000
  C   C855      1.0  0.74801  0.13352  0.07897  1.0000
  H   H1516     1.0  0.77094  0.15238  0.83352  1.0000
  H   H1517     1.0  0.84845  0.12654  0.55955  1.0000
  H   H1518     1.0  0.86818  0.05394  0.43767  1.0000
  H   H1519     1.0  0.88321  0.03336  0.49869  1.0000
  H   H1520     1.0  0.88741  0.22679  0.76212  1.0000
  C   C856      1.0  0.93666  0.04829  0.39203  1.0000
  H   H1521     1.0  0.92140  0.05936  0.52431  1.0000
  H   H1522     1.0  0.80555  0.22402  0.19382  1.0000
  H   H1523     1.0  0.86355  0.21080  0.49527  1.0000
  H   H1524     1.0  0.89750  0.05946  0.12254  1.0000
  H   H1525     1.0  0.86725  0.22628  0.99781  1.0000
  C   C857      1.0  0.95476  0.02572  0.45973  1.0000
  C   C858      1.0  0.94985  0.04684  0.45586  1.0000
  C   C859      1.0  0.72439  0.14012  0.01531  1.0000
  H   H1526     1.0  0.86303  0.02416  0.64619  1.0000
  C   C860      1.0  0.67590  0.15996  0.77119  1.0000
  H   H1527     1.0  0.81946  0.20019  0.17831  1.0000
  H   H1528     1.0  0.67784  0.12292  0.01822  1.0000
  C   C861      1.0  0.80863  0.23490  0.02337  1.0000
  S   S191      1.0  0.95835  0.98965  0.43254  1.0000
  H   H1529     1.0  0.93955  0.99481  0.10742  1.0000
  H   H1530     1.0  0.67194  0.14809  0.75764  1.0000
  H   H1531     1.0  0.72913  0.22760  0.12190  1.0000
  Fe  Fe93      1.0  0.66135  0.21002  0.95324  1.0000
  N   N50       1.0  0.90902  0.98991  0.18161  1.0000
  H   H1532     1.0  0.66250  0.15199  0.14210  1.0000
  C   C862      1.0  0.66038  0.16453  0.81229  1.0000
  H   H1533     1.0  0.98830  0.13599  0.35312  1.0000
  H   H1534     1.0  0.98648  0.18890  0.41732  1.0000
  H   H1535     1.0  0.99094  0.03696  0.40456  1.0000
  H   H1536     1.0  0.98750  0.15295  0.41561  1.0000
  H   H1537     1.0  0.66630  0.10842  0.08919  1.0000
  C   C863      1.0  0.66455  0.12605  0.96301  1.0000
  H   H1538     1.0  0.66533  0.11894  0.13578  1.0000
  H   H1539     1.0  0.91440  0.23634  0.83583  1.0000
  C   C864      1.0  0.66242  0.12636  0.01071  1.0000
  C   C865      1.0  0.89497  0.23504  0.89705  1.0000
  C   C866      1.0  0.93155  0.98778  0.17748  1.0000
  Fe  Fe94      1.0  0.87856  0.45724  0.78592  1.0000
  H   H1540     1.0  0.88594  0.25869  0.06677  1.0000
  S   S192      1.0  0.89796  0.45036  0.72326  1.0000
  Fe  Fe95      1.0  0.86383  0.43871  0.87700  1.0000
  S   S193      1.0  0.84421  0.46783  0.89511  1.0000
  S   S194      1.0  0.86330  0.40889  0.91903  1.0000
  Fe  Fe96      1.0  0.83549  0.47105  0.83109  1.0000
  C   C867      1.0  0.90831  0.48258  0.60587  1.0000
  Fe  Fe97      1.0  0.87064  0.48150  0.85854  1.0000
  C   C868      1.0  0.81829  0.24958  0.99605  1.0000
  S   S195      1.0  0.85334  0.44118  0.81549  1.0000
  S   S196      1.0  0.89117  0.45189  0.84600  1.0000
  Fe  Fe98      1.0  0.78193  0.35740  0.90611  1.0000
  S   S197      1.0  0.76853  0.35513  0.85093  1.0000
  S   S198      1.0  0.77864  0.38860  0.92080  1.0000
  Fe  Fe99      1.0  0.79907  0.31259  0.92159  1.0000
  S   S199      1.0  0.78690  0.30642  0.86774  1.0000
  C   C869      1.0  0.69796  0.25556  0.16497  1.0000
  Fe  Fe100     1.0  0.79761  0.33404  0.83125  1.0000
  S   S200      1.0  0.81305  0.33863  0.76276  1.0000
  Fe  Fe101     1.0  0.75884  0.32793  0.89208  1.0000
  S   S201      1.0  0.72796  0.32300  0.89129  1.0000
  S   S202      1.0  0.81206  0.33867  0.88292  1.0000
  S   S203      1.0  0.76985  0.33178  0.94968  1.0000
  C   C870      1.0  0.70902  0.29098  0.91296  1.0000
  C   C871      1.0  0.75051  0.26102  0.82027  1.0000
  S   S204      1.0  0.82024  0.28795  0.95596  1.0000
  H   H1541     1.0  0.72490  0.26054  0.09027  1.0000
  H   H1542     1.0  0.82466  0.31071  0.63043  1.0000
  C   C872      1.0  0.89575  0.46959  0.67932  1.0000
  C   C873      1.0  0.90942  0.46729  0.64111  1.0000
  H   H1543     1.0  0.91157  0.48587  0.74371  1.0000
  H   H1544     1.0  0.92099  0.45372  0.63881  1.0000
  H   H1545     1.0  0.80495  0.48045  0.60366  1.0000
  H   H1546     1.0  0.68607  0.25495  0.80323  1.0000
  H   H1547     1.0  0.71057  0.26383  0.15557  1.0000
  C   C874      1.0  0.72303  0.26750  0.78026  1.0000
  C   C875      1.0  0.75804  0.44048  0.81367  1.0000
  H   H1548     1.0  0.74234  0.29005  0.69719  1.0000
  C   C876      1.0  0.81386  0.29944  0.75392  1.0000
  C   C877      1.0  0.73178  0.42602  0.02775  1.0000
  C   C878      1.0  0.74432  0.43208  0.98425  1.0000
  C   C879      1.0  0.74893  0.44757  0.89010  1.0000
  H   H1549     1.0  0.67445  0.27763  0.05519  1.0000
  C   C880      1.0  0.81965  0.32289  0.68905  1.0000
  H   H1550     1.0  0.85653  0.24684  0.80133  1.0000
  H   H1551     1.0  0.89686  0.41211  0.78416  1.0000
  C   C881      1.0  0.75766  0.26604  0.74211  1.0000
  H   H1552     1.0  0.73893  0.41070  0.04171  1.0000
  H   H1553     1.0  0.90747  0.26175  0.76674  1.0000
  C   C882      1.0  0.83966  0.40306  0.92128  1.0000
  C   C883      1.0  0.82423  0.41791  0.90595  1.0000
  C   C884      1.0  0.80568  0.41322  0.90548  1.0000
  C   C885      1.0  0.80226  0.39377  0.92097  1.0000
  C   C886      1.0  0.81766  0.37879  0.93626  1.0000
  C   C887      1.0  0.83638  0.38346  0.93645  1.0000
  H   H1554     1.0  0.82649  0.43309  0.89448  1.0000
  H   H1555     1.0  0.79416  0.42458  0.89216  1.0000
  H   H1556     1.0  0.81502  0.36373  0.94855  1.0000
  H   H1557     1.0  0.84829  0.37192  0.94828  1.0000
  C   C888      1.0  0.72583  0.29850  0.91526  1.0000
  C   C889      1.0  0.82014  0.28799  0.68512  1.0000
  H   H1558     1.0  0.93735  0.47270  0.78977  1.0000
  C   C890      1.0  0.74096  0.28636  0.93645  1.0000
  H   H1559     1.0  0.83653  0.40090  0.76051  1.0000
  H   H1560     1.0  0.69820  0.29467  0.08878  1.0000
  H   H1561     1.0  0.70493  0.28614  0.82876  1.0000
  C   C891      1.0  0.77785  0.26002  0.03503  1.0000
  H   H1562     1.0  0.76257  0.27704  0.63088  1.0000
  C   C892      1.0  0.90068  0.25311  0.75018  1.0000
  H   H1563     1.0  0.70416  0.23917  0.17189  1.0000
  C   C893      1.0  0.81556  0.31894  0.73359  1.0000
  H   H1564     1.0  0.67401  0.27214  0.84087  1.0000
  C   C894      1.0  0.72282  0.25894  0.95204  1.0000
  H   H1565     1.0  0.75797  0.43256  0.90078  1.0000
  C   C895      1.0  0.73455  0.45328  0.96312  1.0000
  N   N51       1.0  0.69580  0.25435  0.08694  1.0000
  H   H1566     1.0  0.69501  0.25890  0.23119  1.0000
  H   H1567     1.0  0.88484  0.35906  0.74846  1.0000
  H   H1568     1.0  0.82099  0.33793  0.67318  1.0000
  H   H1569     1.0  0.91741  0.39700  0.80912  1.0000
  H   H1570     1.0  0.86344  0.38704  0.84796  1.0000
  H   H1571     1.0  0.71657  0.27632  0.75218  1.0000
  C   C896      1.0  0.89807  0.24201  0.84808  1.0000
  C   C897      1.0  0.75049  0.27410  0.69879  1.0000
  H   H1572     1.0  0.75838  0.47540  0.69980  1.0000
  H   H1573     1.0  0.76594  0.25075  0.89426  1.0000
  C   C898      1.0  0.90073  0.40037  0.81133  1.0000
  H   H1574     1.0  0.77213  0.29741  0.77080  1.0000
  C   C899      1.0  0.83904  0.37476  0.81197  1.0000
  H   H1575     1.0  0.84722  0.33291  0.81531  1.0000
  H   H1576     1.0  0.89366  0.40632  0.84163  1.0000
  H   H1577     1.0  0.85289  0.34707  0.74273  1.0000
  C   C900      1.0  0.76826  0.27256  0.66146  1.0000
  C   C901      1.0  0.80767  0.26948  0.98811  1.0000
  C   C902      1.0  0.82171  0.30751  0.66487  1.0000
  C   C903      1.0  0.70761  0.27108  0.93099  1.0000
  C   C904      1.0  0.76716  0.46353  0.92629  1.0000
  H   H1578     1.0  0.76064  0.30666  0.72492  1.0000
  H   H1579     1.0  0.81074  0.29632  0.78819  1.0000
  C   C905      1.0  0.86563  0.25133  0.82095  1.0000
  C   C906      1.0  0.73926  0.26671  0.95549  1.0000
  H   H1580     1.0  0.72534  0.25130  0.77660  1.0000
  C   C907      1.0  0.68102  0.26123  0.05638  1.0000
  H   H1581     1.0  0.70957  0.25932  0.84731  1.0000
  C   C908      1.0  0.78731  0.27460  0.00696  1.0000
  C   C909      1.0  0.70622  0.27111  0.81986  1.0000
  H   H1582     1.0  0.86491  0.29885  0.84161  1.0000
  H   H1583     1.0  0.76229  0.26407  0.05046  1.0000
  H   H1584     1.0  0.69462  0.26531  0.92924  1.0000
  H   H1585     1.0  0.72699  0.30372  0.76467  1.0000
  H   H1586     1.0  0.69717  0.30054  0.89708  1.0000
  C   C910      1.0  0.86813  0.31228  0.85080  1.0000
  H   H1587     1.0  0.74198  0.44216  0.81080  1.0000
  C   C911      1.0  0.73971  0.29535  0.78115  1.0000
  H   H1588     1.0  0.84150  0.37281  0.72781  1.0000
  H   H1589     1.0  0.72155  0.25985  0.03875  1.0000
  C   C912      1.0  0.86344  0.33057  0.81690  1.0000
  C   C913      1.0  0.87013  0.38512  0.81420  1.0000
  H   H1590     1.0  0.88431  0.30913  0.85391  1.0000
  C   C914      1.0  0.68559  0.26994  0.81164  1.0000
  H   H1591     1.0  0.75096  0.25738  0.97222  1.0000
  H   H1592     1.0  0.76713  0.33428  0.75359  1.0000
  H   H1593     1.0  0.79869  0.39450  0.82780  1.0000
  H   H1594     1.0  0.83408  0.37328  0.84725  1.0000
  C   C915      1.0  0.75979  0.45408  0.84408  1.0000
  C   C916      1.0  0.77053  0.26477  0.82805  1.0000
  H   H1595     1.0  0.90141  0.37562  0.77977  1.0000
  H   H1596     1.0  0.79506  0.45875  0.98106  1.0000
  H   H1597     1.0  0.80000  0.41425  0.78263  1.0000
  H   H1598     1.0  0.83078  0.40732  0.81345  1.0000
  H   H1599     1.0  0.80420  0.38836  0.77428  1.0000
  N   N52       1.0  0.86184  0.36935  0.80079  1.0000
  H   H1600     1.0  0.79129  0.25391  0.87259  1.0000
  H   H1601     1.0  0.75220  0.24454  0.82018  1.0000
  H   H1602     1.0  0.77616  0.45266  0.84361  1.0000
  H   H1603     1.0  0.79999  0.47752  0.93519  1.0000
  C   C917      1.0  0.77780  0.24999  0.86546  1.0000
  C   C918      1.0  0.83387  0.47188  0.66777  1.0000
  H   H1604     1.0  0.88110  0.34958  0.68093  1.0000
  C   C919      1.0  0.94174  0.47421  0.75449  1.0000
  H   H1605     1.0  0.87164  0.38417  0.73682  1.0000
  C   C920      1.0  0.83808  0.45819  0.71004  1.0000
  C   C921      1.0  0.86028  0.24476  0.06969  1.0000
  H   H1606     1.0  0.86960  0.37577  0.66581  1.0000
  H   H1607     1.0  0.68912  0.25929  0.02342  1.0000
  C   C922      1.0  0.85618  0.36205  0.72854  1.0000
  C   C923      1.0  0.85196  0.43804  0.70127  1.0000
  H   H1608     1.0  0.85663  0.35600  0.66532  1.0000
  H   H1609     1.0  0.82784  0.24225  0.13846  1.0000
  C   C924      1.0  0.68489  0.25979  0.12990  1.0000
  C   C925      1.0  0.86662  0.36081  0.68232  1.0000
  H   H1610     1.0  0.84838  0.47640  0.65084  1.0000
  H   H1611     1.0  0.83061  0.46198  0.64792  1.0000
  H   H1612     1.0  0.79744  0.46863  0.68183  1.0000
  N   N53       1.0  0.74638  0.46190  0.92159  1.0000
  C   C926      1.0  0.78852  0.24022  0.04352  1.0000
  C   C927      1.0  0.80663  0.39845  0.79471  1.0000
  C   C928      1.0  0.86952  0.36892  0.75359  1.0000
  C   C929      1.0  0.87791  0.25483  0.04428  1.0000
  H   H1613     1.0  0.82388  0.45507  0.73122  1.0000
  H   H1614     1.0  0.84594  0.46547  0.72732  1.0000
  H   H1615     1.0  0.77261  0.26989  0.73971  1.0000
  H   H1616     1.0  0.86561  0.40006  0.79501  1.0000
  H   H1617     1.0  0.91903  0.48077  0.57650  1.0000
  N   N54       1.0  0.74297  0.27289  0.78072  1.0000
  H   H1618     1.0  0.87258  0.32664  0.78594  1.0000
  H   H1619     1.0  0.75270  0.32689  0.80493  1.0000
  H   H1620     1.0  0.70023  0.29351  0.03291  1.0000
  H   H1621     1.0  0.74513  0.42035  0.96455  1.0000
  C   C930      1.0  0.75414  0.32714  0.77017  1.0000
  H   H1622     1.0  0.74014  0.33639  0.75952  1.0000
  S   S205      1.0  0.82304  0.26893  0.65412  1.0000
  H   H1623     1.0  0.85594  0.42903  0.73150  1.0000
  H   H1624     1.0  0.84431  0.42926  0.68683  1.0000
  H   H1625     1.0  0.86625  0.44057  0.67949  1.0000
  H   H1626     1.0  0.77901  0.28991  0.00088  1.0000
  C   C931      1.0  0.71337  0.26493  0.06939  1.0000
  C   C932      1.0  0.88238  0.25472  0.60767  1.0000
  C   C933      1.0  0.82921  0.39645  0.79379  1.0000
  H   H1627     1.0  0.76416  0.42443  0.82536  1.0000
  H   H1628     1.0  0.83195  0.36400  0.80200  1.0000
  C   C934      1.0  0.70803  0.28834  0.06077  1.0000
  H   H1629     1.0  0.84905  0.24628  0.04871  1.0000
  C   C935      1.0  0.81633  0.28391  0.72973  1.0000
  H   H1630     1.0  0.67249  0.25129  0.14261  1.0000
  H   H1631     1.0  0.75390  0.29214  0.93866  1.0000
  C   C936      1.0  0.72702  0.29739  0.05024  1.0000
  H   H1632     1.0  0.88582  0.34571  0.82283  1.0000
  C   C937      1.0  0.89353  0.38122  0.81004  1.0000
  H   H1633     1.0  0.75977  0.43170  0.98934  1.0000
  S   S206      1.0  0.80479  0.47907  0.81327  1.0000
  H   H1634     1.0  0.77832  0.28282  0.66246  1.0000
  H   H1635     1.0  0.75351  0.46985  0.83121  1.0000
  H   H1636     1.0  0.89857  0.26242  0.91607  1.0000
  H   H1637     1.0  0.86344  0.35038  0.86161  1.0000
  H   H1638     1.0  0.83413  0.28586  0.84232  1.0000
  H   H1639     1.0  0.89838  0.36991  0.83708  1.0000
  H   H1640     1.0  0.71618  0.42569  0.02450  1.0000
  H   H1641     1.0  0.76686  0.44473  0.78161  1.0000
  H   H1642     1.0  0.73939  0.26462  0.84943  1.0000
  H   H1643     1.0  0.73147  0.46341  0.98743  1.0000
  H   H1644     1.0  0.73387  0.44483  0.88828  1.0000
  H   H1645     1.0  0.66117  0.25066  0.99979  1.0000
  H   H1646     1.0  0.85845  0.31488  0.88216  1.0000
  H   H1647     1.0  0.73107  0.43671  0.04987  1.0000
  H   H1648     1.0  0.86909  0.26609  0.80436  1.0000
  C   C938      1.0  0.75794  0.30570  0.76009  1.0000
  H   H1649     1.0  0.87883  0.23748  0.91238  1.0000
  H   H1650     1.0  0.77645  0.44836  0.93460  1.0000
  H   H1651     1.0  0.71935  0.45227  0.95818  1.0000
  H   H1652     1.0  0.73733  0.29184  0.02182  1.0000
  H   H1653     1.0  0.72274  0.31408  0.04300  1.0000
  H   H1654     1.0  0.73517  0.29347  0.07759  1.0000
  C   C939      1.0  0.86905  0.34938  0.82701  1.0000
  H   H1655     1.0  0.73479  0.29865  0.81457  1.0000
  C   C940      1.0  0.68532  0.26224  0.20651  1.0000
  H   H1656     1.0  0.82517  0.26500  0.83182  1.0000
  H   H1657     1.0  0.81517  0.26884  0.74561  1.0000
  H   H1658     1.0  0.78289  0.26306  0.80015  1.0000
  H   H1659     1.0  0.83110  0.48102  0.58225  1.0000
  H   H1660     1.0  0.88159  0.25656  0.64125  1.0000
  H   H1661     1.0  0.68097  0.28191  0.78540  1.0000
  H   H1662     1.0  0.77557  0.46978  0.89530  1.0000
  H   H1663     1.0  0.86737  0.26188  0.59878  1.0000
  H   H1664     1.0  0.85232  0.25440  0.09444  1.0000
  H   H1665     1.0  0.73997  0.26497  0.69452  1.0000
  C   C941      1.0  0.87004  0.27440  0.01633  1.0000
  H   H1666     1.0  0.88285  0.28173  0.99943  1.0000
  H   H1667     1.0  0.76796  0.28013  0.83640  1.0000
  H   H1668     1.0  0.91769  0.26269  0.68807  1.0000
  H   H1669     1.0  0.85903  0.28505  0.03603  1.0000
  H   H1670     1.0  0.95711  0.47774  0.74458  1.0000
  H   H1671     1.0  0.83387  0.24549  0.98060  1.0000
  H   H1672     1.0  0.86248  0.27125  0.99210  1.0000
  H   H1673     1.0  0.94211  0.45953  0.74470  1.0000
  H   H1674     1.0  0.88888  0.24499  0.02315  1.0000
  H   H1675     1.0  0.89413  0.26255  0.58695  1.0000
  H   H1676     1.0  0.88659  0.26276  0.74059  1.0000
  H   H1677     1.0  0.85889  0.26405  0.88077  1.0000
  H   H1678     1.0  0.67712  0.27593  0.12708  1.0000
  H   H1679     1.0  0.67907  0.27873  0.20173  1.0000
  H   H1680     1.0  0.82053  0.27048  0.88490  1.0000
  H   H1681     1.0  0.89619  0.25875  0.84219  1.0000
  H   H1682     1.0  0.67268  0.25402  0.21831  1.0000
  C   C942      1.0  0.91528  0.24840  0.70904  1.0000
  C   C943      1.0  0.85162  0.25622  0.86338  1.0000
  C   C944      1.0  0.83176  0.27028  0.85486  1.0000
  C   C945      1.0  0.73471  0.48221  0.90393  1.0000
  H   H1683     1.0  0.90465  0.23969  0.95284  1.0000
  C   C946      1.0  0.90575  0.24613  0.91861  1.0000
  H   H1684     1.0  0.84772  0.24257  0.88454  1.0000
  H   H1685     1.0  0.79512  0.48098  0.72599  1.0000
  H   H1686     1.0  0.72440  0.48027  0.88362  1.0000
  H   H1687     1.0  0.75850  0.47350  0.98981  1.0000
  C   C947      1.0  0.78964  0.47440  0.96581  1.0000
  C   C948      1.0  0.76800  0.47708  0.95836  1.0000
  H   H1688     1.0  0.79015  0.48504  0.98701  1.0000
  H   H1689     1.0  0.92204  0.24440  0.90389  1.0000
  C   C949      1.0  0.79717  0.48356  0.69051  1.0000
  C   C950      1.0  0.66263  0.25064  0.06619  1.0000
  H   H1690     1.0  0.77719  0.25686  0.66256  1.0000
  H   H1691     1.0  0.76084  0.24926  0.74524  1.0000
  Fe  Fe102     1.0  0.82622  0.23852  0.69396  1.0000
  H   H1692     1.0  0.90894  0.23967  0.69165  1.0000
  H   H1693     1.0  0.89998  0.23689  0.53584  1.0000
  H   H1694     1.0  0.87369  0.23755  0.54822  1.0000
  H   H1695     1.0  0.93015  0.23958  0.71614  1.0000
  C   C951      1.0  0.90134  0.61737  0.95686  1.0000
  Fe  Fe103     1.0  0.72439  0.57167  0.74610  1.0000
  S   S207      1.0  0.70450  0.60245  0.74092  1.0000
  S   S208      1.0  0.72704  0.55115  0.69832  1.0000
  Fe  Fe104     1.0  0.73231  0.57406  0.83212  1.0000
  S   S209      1.0  0.71331  0.60516  0.83502  1.0000
  C   C952      1.0  0.96648  0.65361  0.24870  1.0000
  Fe  Fe105     1.0  0.69133  0.59353  0.80938  1.0000
  C   C953      1.0  0.93773  0.61486  0.17256  1.0000
  Fe  Fe106     1.0  0.72804  0.61173  0.76669  1.0000
  S   S210      1.0  0.73500  0.64246  0.73858  1.0000
  S   S211      1.0  0.70911  0.56190  0.81224  1.0000
  S   S212      1.0  0.74930  0.58154  0.76587  1.0000
  Fe  Fe107     1.0  0.85732  0.59195  0.53788  1.0000
  S   S213      1.0  0.87420  0.57512  0.59010  1.0000
  S   S214      1.0  0.86353  0.61966  0.49240  1.0000
  Fe  Fe108     1.0  0.82567  0.56591  0.56142  1.0000
  S   S215      1.0  0.83926  0.54728  0.61627  1.0000
  S   S216      1.0  0.79866  0.55916  0.54344  1.0000
  Fe  Fe109     1.0  0.84325  0.57661  0.62956  1.0000
  S   S217      1.0  0.83575  0.58340  0.69618  1.0000
  H   H1696     1.0  0.90682  0.62329  0.98065  1.0000
  Fe  Fe110     1.0  0.96992  0.65464  0.08252  1.0000
  S   S218      1.0  0.82655  0.59539  0.57920  1.0000
  S   S219      1.0  0.85497  0.56400  0.51528  1.0000
  Fe  Fe111     1.0  0.86327  0.63656  0.81714  1.0000
  S   S220      1.0  0.84888  0.66731  0.83497  1.0000
  S   S221      1.0  0.88681  0.63148  0.75771  1.0000
  Fe  Fe112     1.0  0.83718  0.61511  0.89087  1.0000
  S   S222      1.0  0.82018  0.64404  0.91358  1.0000
  Fe  Fe113     1.0  0.81960  0.65671  0.84504  1.0000
  S   S223      1.0  0.79242  0.67710  0.82079  1.0000
  Fe  Fe114     1.0  0.85071  0.65200  0.90188  1.0000
  S   S224      1.0  0.85558  0.66430  0.95713  1.0000
  S   S225      1.0  0.83358  0.62706  0.82357  1.0000
  S   S226      1.0  0.86788  0.62210  0.88323  1.0000
  C   C954      1.0  0.87927  0.66993  0.95506  1.0000
  C   C955      1.0  0.89338  0.67106  0.91706  1.0000
  C   C956      1.0  0.91214  0.67583  0.91659  1.0000
  C   C957      1.0  0.91682  0.67918  0.95419  1.0000
  C   C958      1.0  0.90282  0.67768  0.99219  1.0000
  C   C959      1.0  0.88405  0.67316  0.99255  1.0000
  H   H1697     1.0  0.88972  0.66855  0.88805  1.0000
  H   H1698     1.0  0.92296  0.67699  0.88714  1.0000
  H   H1699     1.0  0.87314  0.67234  0.02196  1.0000
  C   C960      1.0  0.88632  0.62679  0.49225  1.0000
  C   C961      1.0  0.81601  0.49051  0.59225  1.0000
  H   H1700     1.0  0.87824  0.67189  0.51456  1.0000
  H   H1701     1.0  0.78481  0.58978  0.00041  1.0000
  C   C962      1.0  0.89839  0.61732  0.52271  1.0000
  H   H1702     1.0  0.90769  0.64704  0.67491  1.0000
  H   H1703     1.0  0.87149  0.57521  0.89606  1.0000
  H   H1704     1.0  0.89418  0.60496  0.54592  1.0000
  C   C963      1.0  0.85346  0.59409  0.71058  1.0000
  C   C964      1.0  0.85436  0.59198  0.75371  1.0000
  C   C965      1.0  0.86776  0.60071  0.76688  1.0000
  C   C966      1.0  0.87861  0.61359  0.73771  1.0000
  C   C967      1.0  0.87880  0.61492  0.69403  1.0000
  C   C968      1.0  0.86634  0.60489  0.68033  1.0000
  H   H1705     1.0  0.84441  0.58393  0.77737  1.0000
  H   H1706     1.0  0.86838  0.59880  0.80042  1.0000
  H   H1707     1.0  0.88725  0.62476  0.67121  1.0000
  H   H1708     1.0  0.86572  0.60662  0.64685  1.0000
  H   H1709     1.0  0.76301  0.49316  0.94530  1.0000
  C   C969      1.0  0.92617  0.63843  0.61765  1.0000
  H   H1710     1.0  0.91532  0.62980  0.61306  1.0000
  S   S227      1.0  0.90223  0.70264  0.33918  1.0000
  H   H1711     1.0  0.89353  0.54269  0.87939  1.0000
  H   H1712     1.0  0.82202  0.63461  0.00974  1.0000
  H   H1713     1.0  0.75132  0.65792  0.97015  1.0000
  H   H1714     1.0  0.80221  0.54767  0.74244  1.0000
  H   H1715     1.0  0.86154  0.70511  0.72116  1.0000
  C   C970      1.0  0.74783  0.55195  0.65681  1.0000
  C   C971      1.0  0.74701  0.54666  0.61788  1.0000
  C   C972      1.0  0.76275  0.54875  0.58308  1.0000
  C   C973      1.0  0.77966  0.55544  0.58764  1.0000
  C   C974      1.0  0.78096  0.55972  0.62711  1.0000
  C   C975      1.0  0.76490  0.55829  0.66160  1.0000
  H   H1716     1.0  0.73389  0.54158  0.61421  1.0000
  H   H1717     1.0  0.76181  0.54530  0.55257  1.0000
  H   H1718     1.0  0.79421  0.56451  0.63074  1.0000
  H   H1719     1.0  0.76585  0.56190  0.69188  1.0000
  C   C976      1.0  0.75046  0.65110  0.76455  1.0000
  C   C977      1.0  0.74536  0.67109  0.77231  1.0000
  C   C978      1.0  0.75827  0.67881  0.78990  1.0000
  C   C979      1.0  0.77650  0.66668  0.79942  1.0000
  C   C980      1.0  0.78167  0.64673  0.79138  1.0000
  C   C981      1.0  0.76852  0.63883  0.77461  1.0000
  H   H1720     1.0  0.73131  0.68060  0.76506  1.0000
  H   H1721     1.0  0.75411  0.69424  0.79610  1.0000
  H   H1722     1.0  0.79569  0.63731  0.79847  1.0000
  H   H1723     1.0  0.77248  0.62338  0.76878  1.0000
  H   H1724     1.0  0.87053  0.68073  0.24076  1.0000
  C   C982      1.0  0.91320  0.54814  0.73838  1.0000
  H   H1725     1.0  0.90702  0.51630  0.67528  1.0000
  C   C983      1.0  0.94789  0.61225  0.21121  1.0000
  C   C984      1.0  0.92532  0.51149  0.74605  1.0000
  H   H1726     1.0  0.93374  0.54839  0.65644  1.0000
  H   H1727     1.0  0.88821  0.62859  0.94722  1.0000
  H   H1728     1.0  0.67215  0.55955  0.86157  1.0000
  H   H1729     1.0  0.82782  0.53910  0.71657  1.0000
  H   H1730     1.0  0.74279  0.62001  0.89011  1.0000
  C   C985      1.0  0.71183  0.51637  0.91417  1.0000
  S   S228      1.0  0.93124  0.70516  0.06549  1.0000
  H   H1731     1.0  0.71491  0.58026  0.60269  1.0000
  H   H1732     1.0  0.91343  0.61072  0.89208  1.0000
  H   H1733     1.0  0.69758  0.61180  0.97371  1.0000
  H   H1734     1.0  0.76655  0.63132  0.67038  1.0000
  H   H1735     1.0  0.90622  0.68046  0.02122  1.0000
  S   S229      1.0  0.88493  0.50476  0.87443  1.0000
  C   C986      1.0  0.76979  0.61535  0.61611  1.0000
  C   C987      1.0  0.73759  0.60641  0.61632  1.0000
  C   C988      1.0  0.76784  0.60843  0.52999  1.0000
  C   C989      1.0  0.76903  0.61563  0.66414  1.0000
  C   C990      1.0  0.70602  0.59293  0.61964  1.0000
  C   C991      1.0  0.77149  0.61409  0.48153  1.0000
  C   C992      1.0  0.78892  0.60456  0.67818  1.0000
  H   H1736     1.0  0.78105  0.62448  0.59794  1.0000
  H   H1737     1.0  0.77651  0.59967  0.61007  1.0000
  H   H1738     1.0  0.74586  0.59206  0.60482  1.0000
  H   H1739     1.0  0.78295  0.60376  0.53940  1.0000
  H   H1740     1.0  0.76032  0.59531  0.53789  1.0000
  H   H1741     1.0  0.75680  0.60857  0.68467  1.0000
  H   H1742     1.0  0.70478  0.58806  0.65454  1.0000
  C   C993      1.0  0.81712  0.50233  0.62752  1.0000
  H   H1743     1.0  0.77962  0.62682  0.47159  1.0000
  H   H1744     1.0  0.99160  0.62317  0.27331  1.0000
  H   H1745     1.0  0.78804  0.60524  0.71237  1.0000
  H   H1746     1.0  0.79214  0.58842  0.67439  1.0000
  H   H1747     1.0  0.80165  0.61157  0.65958  1.0000
  H   H1748     1.0  0.81062  0.49586  0.52726  1.0000
  H   H1749     1.0  0.88645  0.51082  0.74485  1.0000
  H   H1750     1.0  0.91970  0.64594  0.26918  1.0000
  N   N55       1.0  0.66358  0.54152  0.72543  1.0000
  H   H1751     1.0  0.92952  0.54879  0.72805  1.0000
  H   H1752     1.0  0.89746  0.70378  0.59822  1.0000
  C   C994      1.0  0.67791  0.53596  0.75683  1.0000
  H   H1753     1.0  0.70202  0.51396  0.72421  1.0000
  C   C995      1.0  0.94223  0.62339  0.63960  1.0000
  C   C996      1.0  0.75996  0.52729  0.83109  1.0000
  H   H1754     1.0  0.88281  0.56173  0.97189  1.0000
  H   H1755     1.0  0.91665  0.59709  0.03353  1.0000
  S   S230      1.0  0.93930  0.65551  0.06883  1.0000
  S   S231      1.0  0.93050  0.70192  0.42554  1.0000
  S   S232      1.0  0.89307  0.51946  0.56449  1.0000
  H   H1756     1.0  0.90776  0.62701  0.07181  1.0000
  C   C997      1.0  0.79011  0.50102  0.83170  1.0000
  H   H1757     1.0  0.84872  0.52795  0.79229  1.0000
  H   H1758     1.0  0.94386  0.52163  0.66405  1.0000
  S   S233      1.0  0.82841  0.58608  0.92567  1.0000
  H   H1759     1.0  0.80155  0.60037  0.79438  1.0000
  C   C998      1.0  0.70629  0.51109  0.78859  1.0000
  H   H1760     1.0  0.70156  0.66637  0.64514  1.0000
  N   N56       1.0  0.79831  0.67436  0.63533  1.0000
  C   C999      1.0  0.80325  0.66344  0.67780  1.0000
  C   C1000     1.0  0.77559  0.68081  0.63973  1.0000
  C   C1001     1.0  0.80545  0.65934  0.60416  1.0000
  C   C1002     1.0  0.80853  0.69218  0.61844  1.0000
  C   C1003     1.0  0.81249  0.70357  0.65182  1.0000
  C   C1004     1.0  0.82581  0.65313  0.67732  1.0000
  C   C1005     1.0  0.79972  0.66665  0.55928  1.0000
  C   C1006     1.0  0.76514  0.69706  0.66868  1.0000
  C   C1007     1.0  0.74213  0.70092  0.67313  1.0000
  C   C1008     1.0  0.81022  0.50472  0.55266  1.0000
  C   C1009     1.0  0.83070  0.64866  0.72207  1.0000
  C   C1010     1.0  0.81189  0.65259  0.52753  1.0000
  H   H1761     1.0  0.79425  0.65139  0.69048  1.0000
  H   H1762     1.0  0.79853  0.67363  0.70230  1.0000
  H   H1763     1.0  0.77116  0.68734  0.60833  1.0000
  H   H1764     1.0  0.76843  0.66743  0.65189  1.0000
  H   H1765     1.0  0.79962  0.64528  0.61762  1.0000
  H   H1766     1.0  0.82226  0.65459  0.59897  1.0000
  H   H1767     1.0  0.82357  0.68747  0.59838  1.0000
  H   H1768     1.0  0.79967  0.70339  0.59636  1.0000
  H   H1769     1.0  0.82442  0.69419  0.66923  1.0000
  H   H1770     1.0  0.79888  0.70761  0.67607  1.0000
  H   H1771     1.0  0.82910  0.63853  0.66488  1.0000
  H   H1772     1.0  0.83622  0.66248  0.65663  1.0000
  H   H1773     1.0  0.80257  0.68202  0.54642  1.0000
  H   H1774     1.0  0.78347  0.66678  0.56077  1.0000
  H   H1775     1.0  0.76879  0.69252  0.70111  1.0000
  H   H1776     1.0  0.76976  0.71161  0.65447  1.0000
  H   H1777     1.0  0.73750  0.70733  0.64185  1.0000
  H   H1778     1.0  0.73648  0.68673  0.68580  1.0000
  H   H1779     1.0  0.96917  0.62677  0.94691  1.0000
  H   H1780     1.0  0.68769  0.55278  0.67893  1.0000
  H   H1781     1.0  0.93519  0.61624  0.67120  1.0000
  C   C1011     1.0  0.91605  0.62389  0.52319  1.0000
  H   H1782     1.0  0.82494  0.66192  0.73922  1.0000
  H   H1783     1.0  0.82399  0.63574  0.74019  1.0000
  H   H1784     1.0  0.84727  0.64463  0.72038  1.0000
  H   H1785     1.0  0.80734  0.65804  0.49588  1.0000
  H   H1786     1.0  0.82836  0.65223  0.52357  1.0000
  H   H1787     1.0  0.80915  0.63704  0.53834  1.0000
  C   C1012     1.0  0.78178  0.60436  0.87728  1.0000
  C   C1013     1.0  0.76657  0.64196  0.91658  1.0000
  C   C1014     1.0  0.78271  0.58732  0.85137  1.0000
  C   C1015     1.0  0.76499  0.65782  0.94478  1.0000
  C   C1016     1.0  0.80116  0.58574  0.81551  1.0000
  H   H1788     1.0  0.78695  0.61735  0.94653  1.0000
  H   H1789     1.0  0.79745  0.60449  0.88045  1.0000
  H   H1790     1.0  0.77675  0.61859  0.85674  1.0000
  H   H1791     1.0  0.90460  0.58254  0.07965  1.0000
  H   H1792     1.0  0.77905  0.64392  0.88915  1.0000
  H   H1793     1.0  0.75222  0.64532  0.90428  1.0000
  S   S234      1.0  0.94018  0.68520  0.95372  1.0000
  H   H1794     1.0  0.75031  0.65083  0.61979  1.0000
  H   H1795     1.0  0.76377  0.67297  0.92503  1.0000
  H   H1796     1.0  0.77858  0.65484  0.95981  1.0000
  H   H1797     1.0  0.85658  0.56940  0.99492  1.0000
  H   H1798     1.0  0.81521  0.58084  0.82932  1.0000
  H   H1799     1.0  0.80072  0.57433  0.79601  1.0000
  H   H1800     1.0  0.76588  0.57217  0.94170  1.0000
  H   H1801     1.0  0.93205  0.70023  0.26145  1.0000
  H   H1802     1.0  0.72058  0.68171  0.62730  1.0000
  H   H1803     1.0  0.77772  0.55971  0.05085  1.0000
  H   H1804     1.0  0.86866  0.51633  0.64936  1.0000
  H   H1805     1.0  0.88110  0.62271  0.03722  1.0000
  C   C1017     1.0  0.80627  0.52197  0.70981  1.0000
  H   H1806     1.0  0.96128  0.59978  0.20720  1.0000
  H   H1807     1.0  0.85998  0.54047  0.05351  1.0000
  H   H1808     1.0  0.79064  0.57635  0.93421  1.0000
  H   H1809     1.0  0.73269  0.59363  0.97733  1.0000
  H   H1810     1.0  0.70797  0.59705  0.93109  1.0000
  H   H1811     1.0  0.93371  0.64462  0.58604  1.0000
  H   H1812     1.0  0.94070  0.51502  0.73564  1.0000
  H   H1813     1.0  0.94178  0.64463  0.20841  1.0000
  H   H1814     1.0  0.86780  0.57324  0.06299  1.0000
  C   C1018     1.0  0.77100  0.62025  0.94142  1.0000
  C   C1019     1.0  0.73022  0.60776  0.95457  1.0000
  C   C1020     1.0  0.90795  0.61145  0.08925  1.0000
  H   H1815     1.0  0.88279  0.65021  0.43841  1.0000
  C   C1021     1.0  0.91826  0.61593  0.91783  1.0000
  Fe  Fe115     1.0  0.92793  0.67793  0.11465  1.0000
  H   H1816     1.0  0.89324  0.56598  0.03826  1.0000
  C   C1022     1.0  0.67584  0.54397  0.68092  1.0000
  H   H1817     1.0  0.83682  0.50701  0.68611  1.0000
  H   H1818     1.0  0.78670  0.53214  0.90368  1.0000
  H   H1819     1.0  0.76154  0.62043  0.97364  1.0000
  H   H1820     1.0  0.79378  0.55263  0.00218  1.0000
  H   H1821     1.0  0.75829  0.58909  0.01063  1.0000
  S   S235      1.0  0.74861  0.55583  0.88384  1.0000
  H   H1822     1.0  0.70576  0.62421  0.92081  1.0000
  C   C1023     1.0  0.78271  0.52601  0.87915  1.0000
  H   H1823     1.0  0.74502  0.59393  0.89929  1.0000
  H   H1824     1.0  0.73325  0.66502  0.56225  1.0000
  H   H1825     1.0  0.99166  0.61667  0.22281  1.0000
  C   C1024     1.0  0.70913  0.61039  0.94420  1.0000
  N   N57       1.0  0.76821  0.60359  0.92051  1.0000
  Fe  Fe116     1.0  0.93231  0.69483  0.36034  1.0000
  H   H1826     1.0  0.76889  0.59046  0.83702  1.0000
  H   H1827     1.0  0.93300  0.60068  0.17161  1.0000
  H   H1828     1.0  0.85237  0.68306  0.53295  1.0000
  C   C1025     1.0  0.66367  0.55401  0.64477  1.0000
  H   H1829     1.0  0.92646  0.73416  0.26703  1.0000
  H   H1830     1.0  0.91683  0.68390  0.53764  1.0000
  S   S236      1.0  0.90000  0.67680  0.16450  1.0000
  H   H1831     1.0  0.71649  0.52207  0.78032  1.0000
  H   H1832     1.0  0.68769  0.54727  0.75116  1.0000
  C   C1026     1.0  0.91848  0.69636  0.25679  1.0000
  H   H1833     1.0  0.70098  0.68428  0.59682  1.0000
  C   C1027     1.0  0.92155  0.64015  0.49357  1.0000
  H   H1834     1.0  0.73556  0.60268  0.65158  1.0000
  H   H1835     1.0  0.98312  0.67083  0.94383  1.0000
  H   H1836     1.0  0.89062  0.59190  0.94795  1.0000
  H   H1837     1.0  0.71626  0.61579  0.57107  1.0000
  H   H1838     1.0  0.78102  0.60093  0.46681  1.0000
  H   H1839     1.0  0.76292  0.63917  0.54153  1.0000
  N   N58       1.0  0.74990  0.62264  0.60023  1.0000
  C   C1028     1.0  0.71604  0.61122  0.60573  1.0000
  H   H1840     1.0  0.75694  0.61829  0.46961  1.0000
  N   N59       1.0  0.96260  0.63257  0.25259  1.0000
  C   C1029     1.0  0.77832  0.56012  0.01628  1.0000
  H   H1841     1.0  0.93982  0.71111  0.56456  1.0000
  H   H1842     1.0  0.85702  0.54843  0.80534  1.0000
  H   H1843     1.0  0.69053  0.59689  0.61201  1.0000
  C   C1030     1.0  0.75472  0.62643  0.55210  1.0000
  H   H1844     1.0  0.71430  0.65008  0.57934  1.0000
  H   H1845     1.0  0.92975  0.65926  0.29973  1.0000
  C   C1031     1.0  0.91058  0.53001  0.68251  1.0000
  H   H1846     1.0  0.73013  0.62077  0.97007  1.0000
  H   H1847     1.0  0.74075  0.63128  0.53818  1.0000
  H   H1848     1.0  0.73088  0.63853  0.65064  1.0000
  H   H1849     1.0  0.78386  0.57231  0.87125  1.0000
  C   C1032     1.0  0.89207  0.64278  0.46203  1.0000
  C   C1033     1.0  0.72441  0.65727  0.59079  1.0000
  C   C1034     1.0  0.73913  0.64201  0.61741  1.0000
  C   C1035     1.0  0.71110  0.67338  0.61669  1.0000
  H   H1850     1.0  0.70631  0.62332  0.62341  1.0000
  C   C1036     1.0  0.85903  0.60736  0.00110  1.0000
  H   H1851     1.0  0.91301  0.53838  0.80728  1.0000
  C   C1037     1.0  0.88433  0.69110  0.28368  1.0000
  C   C1038     1.0  0.77459  0.58307  0.94617  1.0000
  C   C1039     1.0  0.74670  0.60651  0.91395  1.0000
  C   C1040     1.0  0.77345  0.58199  0.99476  1.0000
  C   C1041     1.0  0.91234  0.63818  0.33713  1.0000
  C   C1042     1.0  0.90958  0.64953  0.46286  1.0000
  H   H1852     1.0  0.80292  0.53194  0.68028  1.0000
  H   H1853     1.0  0.92307  0.60543  0.09827  1.0000
  C   C1043     1.0  0.86483  0.56248  0.89632  1.0000
  C   C1044     1.0  0.87257  0.68048  0.57742  1.0000
  H   H1854     1.0  0.87734  0.69482  0.76087  1.0000
  H   H1855     1.0  0.74635  0.53424  0.81848  1.0000
  H   H1856     1.0  0.94554  0.53629  0.58768  1.0000
  S   S237      1.0  0.96039  0.70709  0.33105  1.0000
  H   H1857     1.0  0.80743  0.61783  0.04591  1.0000
  H   H1858     1.0  0.93211  0.60537  0.92641  1.0000
  H   H1859     1.0  0.85909  0.68341  0.60273  1.0000
  H   H1860     1.0  0.91347  0.66231  0.44028  1.0000
  C   C1045     1.0  0.84390  0.56403  0.90815  1.0000
  H   H1861     1.0  0.85940  0.62358  0.99085  1.0000
  C   C1046     1.0  0.82081  0.61854  0.02004  1.0000
  N   N60       1.0  0.87891  0.59609  0.01371  1.0000
  H   H1862     1.0  0.92668  0.66134  0.65453  1.0000
  H   H1863     1.0  0.93021  0.69232  0.19171  1.0000
  H   H1864     1.0  0.69029  0.56011  0.59813  1.0000
  H   H1865     1.0  0.92550  0.61631  0.54635  1.0000
  H   H1866     1.0  0.82297  0.73048  0.65464  1.0000
  C   C1047     1.0  0.88306  0.60607  0.04744  1.0000
  C   C1048     1.0  0.83989  0.60633  0.03623  1.0000
  H   H1867     1.0  0.83131  0.50832  0.61665  1.0000
  C   C1049     1.0  0.86598  0.67262  0.54292  1.0000
  H   H1868     1.0  0.90090  0.67293  0.71404  1.0000
  H   H1869     1.0  0.84093  0.61267  0.06434  1.0000
  H   H1870     1.0  0.98666  0.68548  0.24023  1.0000
  H   H1871     1.0  0.94380  0.61382  0.29766  1.0000
  H   H1872     1.0  0.81842  0.61230  0.99294  1.0000
  H   H1873     1.0  0.86241  0.65739  0.55450  1.0000
  H   H1874     1.0  0.92998  0.51761  0.60315  1.0000
  C   C1050     1.0  0.90180  0.69618  0.28995  1.0000
  C   C1051     1.0  0.91763  0.69137  0.21746  1.0000
  C   C1052     1.0  0.87186  0.56243  0.00232  1.0000
  N   N61       1.0  0.90949  0.52869  0.72974  1.0000
  H   H1875     1.0  0.90525  0.56147  0.71878  1.0000
  H   H1876     1.0  0.80792  0.73352  0.61412  1.0000
  C   C1053     1.0  0.87977  0.50255  0.64669  1.0000
  C   C1054     1.0  0.72093  0.49568  0.93650  1.0000
  S   S238      1.0  0.97977  0.72027  0.09536  1.0000
  C   C1055     1.0  0.93117  0.53284  0.60750  1.0000
  S   S239      1.0  0.94289  0.64916  0.49618  1.0000
  C   C1056     1.0  0.87204  0.69148  0.73357  1.0000
  C   C1057     1.0  0.83540  0.54738  0.90870  1.0000
  C   C1058     1.0  0.92418  0.68742  0.56167  1.0000
  H   H1877     1.0  0.89826  0.64997  0.33992  1.0000
  C   C1059     1.0  0.69231  0.51499  0.75604  1.0000
  H   H1878     1.0  0.82102  0.51506  0.54037  1.0000
  H   H1879     1.0  0.87453  0.66684  0.67637  1.0000
  C   C1060     1.0  0.88315  0.67909  0.66208  1.0000
  H   H1880     1.0  0.90832  0.62371  0.33559  1.0000
  H   H1881     1.0  0.91790  0.69392  0.62558  1.0000
  H   H1882     1.0  0.85652  0.60217  0.97265  1.0000
  H   H1883     1.0  0.87730  0.69494  0.56296  1.0000
  Fe  Fe117     1.0  0.94526  0.68249  0.02075  1.0000
  H   H1884     1.0  0.96641  0.63383  0.18437  1.0000
  H   H1885     1.0  0.88643  0.53267  0.03032  1.0000
  C   C1061     1.0  0.77758  0.49769  0.67763  1.0000
  H   H1886     1.0  0.76814  0.50380  0.79197  1.0000
  N   N62       1.0  0.89966  0.67228  0.62590  1.0000
  C   C1062     1.0  0.76489  0.53503  0.86331  1.0000
  Fe  Fe118     1.0  0.86887  0.54737  0.57167  1.0000
  C   C1063     1.0  0.89015  0.68544  0.69892  1.0000
  Fe  Fe119     1.0  0.96251  0.69969  0.08044  1.0000
  H   H1887     1.0  0.87203  0.69236  0.65037  1.0000
  C   C1064     1.0  0.88990  0.66495  0.59606  1.0000
  H   H1888     1.0  0.90127  0.65948  0.56879  1.0000
  H   H1889     1.0  0.88345  0.65157  0.61279  1.0000
  H   H1890     1.0  0.86373  0.67894  0.74522  1.0000
  N   N63       1.0  0.81699  0.49028  0.67157  1.0000
  H   H1891     1.0  0.87170  0.60430  0.07717  1.0000
  C   C1065     1.0  0.91532  0.56954  0.79223  1.0000
  C   C1066     1.0  0.90714  0.55187  0.78541  1.0000
  H   H1892     1.0  0.87136  0.69106  0.30925  1.0000
  H   H1893     1.0  0.91900  0.63659  0.36611  1.0000
  H   H1894     1.0  0.83771  0.59060  0.04668  1.0000
  C   C1067     1.0  0.98241  0.61769  0.25532  1.0000
  H   H1895     1.0  0.83934  0.55306  0.76966  1.0000
  C   C1068     1.0  0.91503  0.65527  0.64487  1.0000
  H   H1896     1.0  0.86522  0.53756  0.71436  1.0000
  H   H1897     1.0  0.81922  0.54847  0.91781  1.0000
  H   H1898     1.0  0.90929  0.57289  0.82523  1.0000
  C   C1069     1.0  0.93105  0.53340  0.65429  1.0000
  C   C1070     1.0  0.79557  0.50921  0.86264  1.0000
  C   C1071     1.0  0.84781  0.52924  0.89729  1.0000
  C   C1072     1.0  0.85294  0.54267  0.77944  1.0000
  H   H1899     1.0  0.76715  0.55164  0.01244  1.0000
  C   C1073     1.0  0.89532  0.59662  0.97455  1.0000
  H   H1900     1.0  0.94259  0.73412  0.98894  1.0000
  Fe  Fe120     1.0  0.95972  0.71198  0.39780  1.0000
  H   H1901     1.0  0.96203  0.64450  0.98349  1.0000
  Fe  Fe121     1.0  0.94961  0.67119  0.43741  1.0000
  H   H1902     1.0  0.68449  0.52904  0.67268  1.0000
  C   C1074     1.0  0.90058  0.68521  0.21186  1.0000
  C   C1075     1.0  0.77234  0.51006  0.81597  1.0000
  C   C1076     1.0  0.87813  0.57437  0.03154  1.0000
  H   H1903     1.0  0.96777  0.61611  0.04365  1.0000
  H   H1904     1.0  0.81724  0.52488  0.76592  1.0000
  H   H1905     1.0  0.89757  0.69858  0.68735  1.0000
  C   C1077     1.0  0.90927  0.69003  0.60422  1.0000
  H   H1906     1.0  0.98698  0.70133  0.83432  1.0000
  C   C1078     1.0  0.88384  0.68529  0.24496  1.0000
  H   H1907     1.0  0.73499  0.71187  0.69573  1.0000
  H   H1908     1.0  0.94967  0.61139  0.61959  1.0000
  H   H1909     1.0  0.82373  0.49373  0.73161  1.0000
  H   H1910     1.0  0.77715  0.49762  0.64375  1.0000
  H   H1911     1.0  0.92276  0.50938  0.78153  1.0000
  H   H1912     1.0  0.97464  0.70165  0.88915  1.0000
  C   C1079     1.0  0.88898  0.52487  0.75251  1.0000
  H   H1913     1.0  0.75786  0.49120  0.73867  1.0000
  C   C1080     1.0  0.87729  0.54409  0.88677  1.0000
  H   H1914     1.0  0.79212  0.51799  0.72947  1.0000
  H   H1915     1.0  0.89054  0.72691  0.16040  1.0000
  H   H1916     1.0  0.89868  0.54263  0.67113  1.0000
  S   S240      1.0  0.95803  0.67425  0.13266  1.0000
  H   H1917     1.0  0.89041  0.55558  0.79454  1.0000
  H   H1918     1.0  0.93685  0.60801  0.23986  1.0000
  H   H1919     1.0  0.93753  0.67540  0.56703  1.0000
  H   H1920     1.0  0.92199  0.63104  0.90553  1.0000
  S   S241      1.0  0.94901  0.66309  0.37456  1.0000
  H   H1921     1.0  0.91055  0.58327  0.76971  1.0000
  H   H1922     1.0  0.90928  0.58537  0.98033  1.0000
  H   H1923     1.0  0.72393  0.52435  0.89594  1.0000
  C   C1081     1.0  0.90402  0.59791  0.06113  1.0000
  C   C1082     1.0  0.81394  0.53408  0.73527  1.0000
  C   C1083     1.0  0.98598  0.68096  0.20966  1.0000
  H   H1924     1.0  0.91152  0.73507  0.20652  1.0000
  H   H1925     1.0  0.88830  0.52207  0.78758  1.0000
  H   H1926     1.0  0.97244  0.69038  0.19743  1.0000
  H   H1927     1.0  0.91944  0.71928  0.53414  1.0000
  H   H1928     1.0  0.89631  0.61204  0.11881  1.0000
  H   H1929     1.0  0.80479  0.51593  0.62748  1.0000
  H   H1930     1.0  0.96230  0.72186  0.23689  1.0000
  H   H1931     1.0  0.70227  0.52574  0.93820  1.0000
  H   H1932     1.0  0.83386  0.71959  0.60654  1.0000
  H   H1933     1.0  0.95322  0.66511  0.24001  1.0000
  H   H1934     1.0  0.95431  0.62904  0.32110  1.0000
  H   H1935     1.0  0.91838  0.54416  0.59606  1.0000
  H   H1936     1.0  0.66182  0.51155  0.71733  1.0000
  H   H1937     1.0  0.95399  0.63104  0.64380  1.0000
  H   H1938     1.0  0.94313  0.70422  0.51243  1.0000
  C   C1084     1.0  0.98090  0.69192  0.86386  1.0000
  C   C1085     1.0  0.87050  0.54121  0.74141  1.0000
  S   S242      1.0  0.97694  0.67977  0.03083  1.0000
  C   C1086     1.0  0.81976  0.72296  0.63027  1.0000
  H   H1939     1.0  0.69728  0.51230  0.82106  1.0000
  C   C1087     1.0  0.75857  0.49090  0.70436  1.0000
  H   H1940     1.0  0.94844  0.61839  0.14260  1.0000
  H   H1941     1.0  0.94919  0.61377  0.01469  1.0000
  C   C1088     1.0  0.87129  0.54074  0.02344  1.0000
  H   H1942     1.0  0.93211  0.56577  0.78753  1.0000
  H   H1943     1.0  0.79468  0.51377  0.56017  1.0000
  H   H1944     1.0  0.87439  0.55617  0.73116  1.0000
  C   C1089     1.0  0.67718  0.55294  0.60095  1.0000
  C   C1090     1.0  0.94747  0.62897  0.29303  1.0000
  S   S243      1.0  0.97901  0.68165  0.41642  1.0000
  H   H1945     1.0  0.84118  0.51649  0.89745  1.0000
  C   C1091     1.0  0.89353  0.50027  0.60863  1.0000
  H   H1946     1.0  0.70806  0.48859  0.95420  1.0000
  H   H1947     1.0  0.97631  0.65666  0.91168  1.0000
  H   H1948     1.0  0.92407  0.62722  0.17448  1.0000
  H   H1949     1.0  0.70220  0.51486  0.89217  1.0000
  H   H1950     1.0  0.96843  0.68592  0.85744  1.0000
  C   C1092     1.0  0.86882  0.52749  0.88687  1.0000
  H   H1951     1.0  0.68284  0.53700  0.59562  1.0000
  H   H1952     1.0  0.97019  0.58951  0.26893  1.0000
  H   H1953     1.0  0.77646  0.51351  0.68130  1.0000
  H   H1954     1.0  0.74530  0.49128  0.88240  1.0000
  C   C1093     1.0  0.95467  0.63177  0.21330  1.0000
  Fe  Fe122     1.0  0.97715  0.67571  0.35216  1.0000
  C   C1094     1.0  0.82197  0.50267  0.69998  1.0000
  H   H1955     1.0  0.80951  0.50245  0.87430  1.0000
  H   H1956     1.0  0.96819  0.65656  0.28005  1.0000
  C   C1095     1.0  0.92711  0.64439  0.29700  1.0000
  H   H1957     1.0  0.86688  0.53265  0.00155  1.0000
  C   C1096     1.0  0.93205  0.70674  0.54225  1.0000
  H   H1958     1.0  0.98597  0.65434  0.18440  1.0000
  H   H1959     1.0  0.74492  0.50132  0.69442  1.0000
  H   H1960     1.0  0.72930  0.49806  0.95991  1.0000
  H   H1961     1.0  0.66834  0.56098  0.57575  1.0000
  H   H1962     1.0  0.66653  0.57795  0.75709  1.0000
  S   S244      1.0  0.85980  0.48748  0.79632  1.0000
  C   C1097     1.0  0.96552  0.61351  0.01251  1.0000
  H   H1963     1.0  0.68364  0.50272  0.76395  1.0000
  C   C1098     1.0  0.98956  0.66111  0.91850  1.0000
  H   H1964     1.0  0.97434  0.59840  0.00600  1.0000
  C   C1099     1.0  0.98537  0.65854  0.21583  1.0000
  C   C1100     1.0  0.97206  0.62990  0.97686  1.0000
  H   H1965     1.0  0.98805  0.63356  0.87006  1.0000
  C   C1101     1.0  0.92633  0.49061  0.73343  1.0000
  H   H1966     1.0  0.98646  0.72985  0.96668  1.0000
  H   H1967     1.0  0.71582  0.49570  0.78859  1.0000
  H   H1968     1.0  0.97675  0.59629  0.31376  1.0000
  H   H1969     1.0  0.66945  0.53682  0.78988  1.0000
  H   H1970     1.0  0.66950  0.58137  0.70018  1.0000
  H   H1971     1.0  0.87007  0.48904  0.71080  1.0000
  C   C1102     1.0  0.98129  0.59603  0.27884  1.0000
  H   H1972     1.0  0.93091  0.49087  0.69844  1.0000
  C   C1103     1.0  0.65848  0.57947  0.73020  1.0000
  H   H1973     1.0  0.95730  0.72817  0.93809  1.0000
  C   C1104     1.0  0.88083  0.48720  0.68189  1.0000
  H   H1974     1.0  0.94185  0.74529  0.18703  1.0000
  H   H1975     1.0  0.89284  0.77934  0.31687  1.0000
  C   C1105     1.0  0.94507  0.78401  0.10986  1.0000
  C   C1106     1.0  0.98724  0.77570  0.99122  1.0000
  C   C1107     1.0  0.94807  0.78072  0.40766  1.0000
  C   C1108     1.0  0.90262  0.96796  0.13010  1.0000
  C   C1109     1.0  0.96212  0.75520  0.95699  1.0000
  H   H1976     1.0  0.97153  0.78767  0.12963  1.0000
  H   H1977     1.0  0.87227  0.79371  0.24882  1.0000
  C   C1110     1.0  0.96613  0.74466  0.10101  1.0000
  H   H1978     1.0  0.96437  0.89786  0.33610  1.0000
  S   S245      1.0  0.97835  0.96167  0.25804  1.0000
  S   S246      1.0  0.92614  0.84563  0.19443  1.0000
  Fe  Fe123     1.0  0.95146  0.86230  0.17061  1.0000
  S   S247      1.0  0.94712  0.89565  0.14880  1.0000
  Fe  Fe124     1.0  0.94614  0.82226  0.15622  1.0000
  S   S248      1.0  0.93154  0.80822  0.11730  1.0000
  H   H1979     1.0  0.86035  0.76845  0.35042  1.0000
  H   H1980     1.0  0.91582  0.93580  0.13493  1.0000
  Fe  Fe125     1.0  0.94358  0.82957  0.24596  1.0000
  C   C1111     1.0  0.94091  0.90760  0.19399  1.0000
  C   C1112     1.0  0.92942  0.89949  0.23147  1.0000
  C   C1113     1.0  0.92608  0.90819  0.26865  1.0000
  H   H1981     1.0  0.88873  0.96879  0.19502  1.0000
  H   H1982     1.0  0.95271  0.87629  0.29571  1.0000
  H   H1983     1.0  0.92332  0.88634  0.23197  1.0000
  S   S249      1.0  0.96710  0.84867  0.22594  1.0000
  C   C1114     1.0  0.90162  0.94627  0.12803  1.0000
  H   H1984     1.0  0.92100  0.77593  0.08855  1.0000
  H   H1985     1.0  0.94675  0.76653  0.20472  1.0000
  H   H1986     1.0  0.98516  0.80248  0.04755  1.0000
  H   H1987     1.0  0.97549  0.87560  0.36734  1.0000
  H   H1988     1.0  0.97803  0.88369  0.24999  1.0000
  H   H1989     1.0  0.88961  0.82259  0.23956  1.0000
  H   H1990     1.0  0.94137  0.78453  0.29089  1.0000
  C   C1115     1.0  0.90261  0.75081  0.20599  1.0000
  C   C1116     1.0  0.88543  0.81802  0.21219  1.0000
  C   C1117     1.0  0.93516  0.92425  0.26889  1.0000
  H   H1991     1.0  0.91607  0.78509  0.19914  1.0000
  H   H1992     1.0  0.87455  0.76242  0.27639  1.0000
  C   C1118     1.0  0.89020  0.75585  0.28181  1.0000
  N   N64       1.0  0.90561  0.76010  0.24227  1.0000
  S   S250      1.0  0.92917  0.82462  0.31504  1.0000
  C   C1119     1.0  0.90395  0.97681  0.26317  1.0000
  C   C1120     1.0  0.90511  0.78239  0.22917  1.0000
  H   H1993     1.0  0.87041  0.82724  0.20709  1.0000
  H   H1994     1.0  0.93646  0.81280  0.40025  1.0000
  H   H1995     1.0  0.88867  0.97794  0.12053  1.0000
  Fe  Fe126     1.0  0.95488  0.95357  0.31417  1.0000
  C   C1121     1.0  0.88006  0.74170  0.16363  1.0000
  C   C1122     1.0  0.95021  0.76454  0.34661  1.0000
  H   H1996     1.0  0.95292  0.94509  0.23084  1.0000
  H   H1997     1.0  0.88051  0.79202  0.19251  1.0000
  C   C1123     1.0  0.94663  0.75116  0.09152  1.0000
  H   H1998     1.0  0.98368  0.82053  0.32700  1.0000
  C   C1124     1.0  0.96683  0.98371  0.13303  1.0000
  H   H1999     1.0  0.95738  0.93100  0.16429  1.0000
  Fe  Fe127     1.0  0.98390  0.82496  0.18584  1.0000
  S   S251      1.0  0.97602  0.94743  0.36069  1.0000
  H   H2000     1.0  0.95242  0.76734  0.97466  1.0000
  C   C1125     1.0  0.99040  0.80796  0.01340  1.0000
  H   H2001     1.0  0.89982  0.94502  0.09557  1.0000
  H   H2002     1.0  0.91475  0.95727  0.18869  1.0000
  C   C1126     1.0  0.88451  0.79567  0.22100  1.0000
  H   H2003     1.0  0.90657  0.75440  0.33396  1.0000
  C   C1127     1.0  0.99043  0.93662  0.47115  1.0000
  H   H2004     1.0  0.95016  0.77979  0.44007  1.0000
  H   H2005     1.0  0.97915  0.77277  0.02472  1.0000
  H   H2006     1.0  0.92020  0.97364  0.26540  1.0000
  C   C1128     1.0  0.94033  0.79938  0.38515  1.0000
  H   H2007     1.0  0.98607  0.77096  0.29015  1.0000
  C   C1129     1.0  0.88082  0.74885  0.20485  1.0000
  H   H2008     1.0  0.88860  0.94159  0.15134  1.0000
  H   H2009     1.0  0.88430  0.75288  0.13552  1.0000
  H   H2010     1.0  0.89667  0.82121  0.18299  1.0000
  H   H2011     1.0  0.96734  0.76187  0.92369  1.0000
  C   C1130     1.0  0.98027  0.74436  0.97944  1.0000
  C   C1131     1.0  0.93614  0.77091  0.09567  1.0000
  C   C1132     1.0  0.94857  0.92468  0.19336  1.0000
  S   S252      1.0  0.97032  0.84022  0.12812  1.0000
  H   H2012     1.0  0.97604  0.94580  0.48603  1.0000
  H   H2013     1.0  0.93749  0.97528  0.20117  1.0000
  S   S253      1.0  0.96154  0.80464  0.21003  1.0000
  H   H2014     1.0  0.90013  0.96264  0.25907  1.0000
  H   H2015     1.0  0.86985  0.76330  0.20728  1.0000
  H   H2016     1.0  0.91735  0.90175  0.29771  1.0000
  C   C1133     1.0  0.90388  0.97052  0.17587  1.0000
  C   C1134     1.0  0.95290  0.76324  0.38863  1.0000
  C   C1135     1.0  0.94604  0.93271  0.23101  1.0000
  S   S254      1.0  0.93395  0.93267  0.31714  1.0000
  C   C1136     1.0  0.94309  0.78340  0.32352  1.0000
  C   C1137     1.0  0.97520  0.75793  0.11422  1.0000
  H   H2017     1.0  0.93165  0.88537  0.36508  1.0000
  C   C1138     1.0  0.96461  0.77754  0.11894  1.0000
  H   H2018     1.0  0.98936  0.78500  0.34960  1.0000
  C   C1139     1.0  0.93804  0.80082  0.34293  1.0000
  H   H2019     1.0  0.91040  0.78856  0.25303  1.0000
  Fe  Fe128     1.0  0.96457  0.98008  0.36776  1.0000
  C   C1140     1.0  0.93979  0.86971  0.36127  1.0000
  C   C1141     1.0  0.89251  0.76304  0.32261  1.0000
  H   H2020     1.0  0.94430  0.86178  0.39191  1.0000
  H   H2021     1.0  0.97283  0.97229  0.15876  1.0000
  C   C1142     1.0  0.98775  0.81090  0.30154  1.0000
  C   C1143     1.0  0.95833  0.86980  0.32570  1.0000
  H   H2022     1.0  0.94423  0.96815  0.12868  1.0000
  C   C1144     1.0  0.94869  0.74062  0.95603  1.0000
  S   S255      1.0  0.94150  0.98533  0.32579  1.0000
  H   H2023     1.0  0.97371  0.81005  0.29142  1.0000
  H   H2024     1.0  0.91568  0.97185  0.10610  1.0000
  H   H2025     1.0  0.92924  0.86169  0.35316  1.0000
  H   H2026     1.0  0.97553  0.78461  0.97264  1.0000
  H   H2027     1.0  0.93963  0.74106  0.08094  1.0000
  H   H2028     1.0  0.97634  0.73863  0.19981  1.0000
  H   H2029     1.0  0.98824  0.89795  0.17297  1.0000
  H   H2030     1.0  0.97911  0.90732  0.26217  1.0000
  H   H2031     1.0  0.87537  0.98479  0.30646  1.0000
  H   H2032     1.0  0.90869  0.75909  0.17467  1.0000
  H   H2033     1.0  0.89590  0.96984  0.33184  1.0000
  H   H2034     1.0  0.96593  0.85393  0.32346  1.0000
  C   C1145     1.0  0.94430  0.75087  0.21484  1.0000
  C   C1146     1.0  0.98789  0.89164  0.26044  1.0000
  C   C1147     1.0  0.87493  0.75960  0.35900  1.0000
  H   H2035     1.0  0.93571  0.74876  0.94027  1.0000
  H   H2036     1.0  0.92983  0.75733  0.27713  1.0000
  H   H2037     1.0  0.97709  0.81662  0.99924  1.0000
  H   H2038     1.0  0.97394  0.74017  0.01363  1.0000
  H   H2039     1.0  0.99036  0.75296  0.12122  1.0000
  C   C1148     1.0  0.97282  0.88206  0.33452  1.0000
  C   C1149     1.0  0.94466  0.98345  0.13400  1.0000
  C   C1150     1.0  0.89188  0.98236  0.30604  1.0000
  C   C1151     1.0  0.92627  0.75019  0.25266  1.0000
  H   H2040     1.0  0.98667  0.92670  0.45216  1.0000
  H   H2041     1.0  0.97604  0.98008  0.10193  1.0000
  H   H2042     1.0  0.96757  0.74328  0.25422  1.0000
  H   H2043     1.0  0.95408  0.75112  0.33165  1.0000
  H   H2044     1.0  0.87718  0.76448  0.38797  1.0000
  H   H2045     1.0  0.86449  0.73980  0.16407  1.0000
  H   H2046     1.0  0.87428  0.74332  0.36649  1.0000
  H   H2047     1.0  0.87577  0.73745  0.23175  1.0000
  H   H2048     1.0  0.89074  0.73936  0.28957  1.0000
  S   S256      1.0  0.96330  0.74029  0.41751  1.0000
  C   C1152     1.0  0.96381  0.73784  0.22751  1.0000
