data_image0
_chemical_formula_structural       SC2HCH5CSH3CFeS2FeS2FeSFeS3FeS2FeSHFeSFeS3H5C2H2C3H4C3HCH5C6H4C3H4C6H8SHC2HC5H2CH3C2H5CHC6H4CH5CHSCH3C2H3CHCHNC8SHC2H28CHCH5C2H2NC8HC3H28CHNC3H3C2H3NH2CHNHCHCH2C2H2CNCHCHCH5CH2C2H3CH12C2H2CH2CH5CHCH4FeCHCHCH9CH2NC5H2C2HCHCHCHC2H3C2H2C3H4CHCHCHCHCH2CH2CH6CH6FeS2FeS2FeSFeS3FeS2FeSFeSFeS3FeS2FeS2FeSHS2FeS2FeCHFeHC2SH4SC2H5C6H4C2HC6H4C4H3C6H4C6H4C5H4NC11H9CHFeH15CHC2HCH2C3H3CSH8CHCH2CFeH3SHCH2CH2SH2CH6CH8SHCSHCH2CHC2H2C3HCH6C2H2C2HC2H8NC6HC3FeH2CH5CH4CHCHCH3CH3NH4C2HCHCHC2H4CHCHNC11H25NC12H30CHC4HC2H2SC4H4C3SNC9H3NHCH13NCH3C2H8CHCH2CFeH2FeNH2CH4CH4SH3NHC2H9CH4SHC2H2C2HCHCH9CHCH3CH2CH2C2SHFeCSH2SH7CHCNH2CHC2HCHCHC2SFeS2FeS2FeSH2S2FeS2FeS2FeSFeCS2FeS2FeS2FeSFeS3HC3SC2HCH2C2H3CSH2CHC2H3C6H4C4H3C6H4FeC2H2C6H5C2H2FeH2CH2C6H7SH6C2H2NHFeC2HCH3CHC2H4C3HCHCH3CH2CH5CHC2H2C2H2C3SHCH2CHNC9H25SCHNCHC5H2FeH3CH11CH3C2HFeCH3NCH2C2HC3HCH3C2SC2HCH2CHCH2FeHCSH3CH7CH5CH3CH5CHSH2CHCH4CH4CSH4CH5CH2CHCH3C2HNCHC7H2NH5NH11CHC3HCH4CH2CH5C3H4CH6C2H3CH4CH2CSC2H4CSFeHSHCH2NCHCH10CH2CSH2CH2CH4NH3CH2CHC3HCHSCH6FeS2HCHFeSHSCFeS2FeS2FeSFeS3FeSFeS2FeSFeS3C4HCH4C2HC6H4C6H5SC2HCNH8C7H4CH6CHCHCH2CFeH7CH5CHCHCHCH2C2FeH2CHCH2NC4HC4H2CH6CH2SH10FeNHCHNCHC4HNFeCH3C3H3CH4CHC2H4CHCH3CH3FeHCSH2C2H7NC10HSH13CH11CHCSC2HC2H6CHCNH2CSH4NC12H20CH3CSH3CHCH5CHCHC2HCHC2H4CH4CH2CH7CH5CHC2HC2H3SH2CHCH2CH5CHC2HFeS2FeS2Fe2S3FeSCFeCSFeS2FeS2FeS2Fe2S3HSHC3FeS2FeS3HFeCS3HSHSCH3CH6C2HCSH4CFeHC3H2C6H4C3H3NH2C5HC6H6CHC2HSHCH2CHCH4CH8NC9H21CHCH6SCNC12H19CH8NHC3HCHC2H3CHNH5CH5CH3CH2NC8HC3H18CH9CHCH4CH2C4HC3H3SHCH3CHFeNH2CFeCH6CHC2HCH6CHCSCHC2H3FeCH5CNHFeCHCH2SHCH2CH4C2SCHSH2CH10C2HCH2C3HC2H2C3HC3HC3HCH2CHSH6CSCH3CHC2H2CH2CHCHCH2C2H3CSC2H2C2H2CHCHCH6CH2CH10CHSFe2SCFeSFeS3H4CHCHCH2C2FeS2FeSHFeSFeCS2FeS2CSHFeHSH2CH2SC4SNHC3H3CH2CH4CH3C2HC2H2C2H2C3H9C2H2CH2FeHC6H5SHCH5C2FeCHCH3CHCHSC3HSCH4C3H4CH3NCH3C2H2C2H2SH4C2H6CH5C3SHCH6CHCHCHCHCSH11SH4SHFeSCH2C3H3CSH2C2H6CHSHCH5CH2SH3CH5C2HC2FeH2CH2CH2CH5CH3FeSH3CH2NC12H7C3H6CH2SCH7CFeHNC9SC2H2CHCH3CH6NCH9C2HCSH2FeC2HCH7C3HCNHFeS2HSFeHS4H4SH2SCH3FeS2FeS2FeSFeS3NCNCHC3H3NH5CHC3H4C6FeCH3CHC6H5CH2C6H2C2H3CH2CH6NHC2HCH3CH9CHCHFeH2C2H5CHCH2CH2SH9CH2C2H6NC12H16CH11CHCH2CH5CHCH2CS2HC2HCHCH2C2HCH3CH5C2HS2H3CSH3NHC4HC5H4CH5SCH10CH2NCHCH4FeC3H2CH2SCHCHCHCHCH3NHC2HC3HCFeHCH2CH6NH2C2FeC2SH2C2FeC4HCH2Fe2H7CH2C2H3CHSH3C3HCHCSHC2HCFeC2H2CH2CHCH4CH9C3HCHC4H4C4H2CH2CHCHSNCHCH3CH3S2HCHFe2SH2CHFeSHSFeHSH2SNCFeS2FeS2FeSFeS3HCH2C4H3C6H4Fe2CH2C3H2CSCH2C6H6C7H6C2H3C2H2SCH2NH3C2H3CH2CH5SN2SH2C2HCH3CH2CSH2C2HC2H2C2H2FeHFeH2CH5NC12H31C2H2CHCHCH2CHNH3CH5CH4CHSH3CH6NCFeCH5CH6C2H2FeHSH7CSH2CH2NH2SHC2H3C2HSC5HCHCSC2H5CH3CH2C4HC4H6SH2CHCHCHSH2CHCHCH5C2H3FeH2CHCH3CH7C4HNCSH2CHCH2CHSC3HC2HCH2CHSC2SHCH2CH3SC2HC2HCNH3FeS2FeS2FeSFeS3FeCFeS2FeS3CFeS2FeS2FeSFeCS2FeS2FeHFeSCS2FeSHFeS2FeH3S2H2CHCH6CHC6H6CH2CH3C7H5C2H4C6H4C6H4C6H5CH2CH9CH3CHC3HCHSC6HCHCHCH5C2HNCH2CHNC12H30CH3FeH2CNHNC3SH3CH5CH11C3HC2H7CH2FeH7CH2CH2CH4CHSH3CH2C3H8SHC2HCH3FeHCH4CH6SH3CHSCHCHC4HSCH2CH2CH3NCH3CH3CHCH2CHCH4C2H2C2SHC3H3CH2CH3CH3C2HNCH3C2H4CH4SHNSH2CHCFeHC2FeS2CH4CH2SHCHFeS2FeS2FeSFeS3CSHSFeSH3FeH3CH2C8H4CHC2HCH4C6H5FeH2CHCH6CHC2HCH10FeHC2HNCHC8H8CSHCH2CHC2H2CH3C3SH2SHCHCNC2H4CH2CH4CHCHCHCH3NH7FeCNC12H16C2H10NCSC8H13CH2SH5CH3C2HCH2C3H2CH6CH7CHCH2CHCH2C2H3CH4NH2SH2C2H2C4H4CHCH2C2H6CH12CH2SH5SCH3CFe2HSHFeS2HFeHFeS2FeSHFeSCFeSFeHS2H3CH2C3H2C3SH2C6H4CHC3H2CHCH2SHC2HCH4C7H4SH6CH5CH2CH5NH11C2HSC2HCHCH5NH2CHC2H2CH2C2FeH2C3HFeCH2CH3C2HCH5C3H2SHC3H6CH3CHCH4CH5C2H4CHCHSHSHCH3CS2CHCH5CHCSCHCH4C2NHC3HC2H2FeHSC2HN2H2CHCH6CH3NH3CHCH10CH2CSCHC2HCSH6C2H12FeS2FeS2FeSFeS3FeS2FeS2FeSFeS3FeCSFeS2CFeS3FeS2FeSHFeSFeS3H5CH2C4FeH3C2H6C6H4C6H4C3HCH4C6H4C6H7CHCH2C2HC2HCH4C3H6CH2C3H2CH5C3H10CHCH2C4H3C2SH4NH4CNCH3NCHC2HCH2C2HC2H3CH7CHCHCH3CHCHC2HC2H2CHCH3CH2C2H3CHCHCHCNHC5HC5H5CH6C2H5CH2CH5NC10HCH31CH3CHCH2CHCHCH2CH5CNH4CH2C2H6CHCH2NC2H5CH2CH4C2NC2H2CSHCH2CH4CHCH2CH6CH4C3H3CNCH4CNCH2CSCH2CH4CH2CHC2H3CH7CHSH2C2H2CSHSFeSFeC2SCFeSFeSHSCH2FeS2FeSCSFeSHFeS2FeSFeS3FeS2FeHSFeCHSH2CH2CHC6H5C2HCHC6H4CHCSH3CSHC6H3C7H4CSHCH4C3SCH2CHCSFeHC2HCHCHCH5CHCSHC2HCHSNH2CNH3CSH4CSHNH3FeH2SFeH3FeHC2HCH2CHC2HCNC11H25NC7HC4H14CHNH7CH3C2H7CH3CH5CHCSCH2CH3CH6NC9HC2H23C4H2CHCH3FeCH2CH2S2C2H2FeCHSFeH3NSHSH2CHCHCH4SC2H3CH4NH5CH5C3HCHCH3CHCH2CH2CH4FeS2FeSHFeSFeS3FeS2FeSHFeSFeS3CH2C7H4C6H3C2H3C3H2SH2CH3CH4C3H4CHNC12H29CH2CHC2HCH2C3H3CH4NC3H2CH3CHSCH2SHC2H2CHC2H2C2H5CH2CH2CH5NH2CHC2HC2H2C2H6CHCH2CH6C2H2NH2CH6CH3C4HCNHCFeSCFeSH3SHSHC3H3C2HFeS2FeS2FeSFeS3FeS2FeS2FeSFeS2C4H4C3H2CH2C8H4C6H3SHC2HC6H5SH4C3H4C6H4C3HC2H3C2H2C2H2CH5CH4CHCH2CH3CHCHCHCH7CH3NHS2HC2HCHCH3CHSCH3CHCHSH2CHCH2CSC2H2CH4CHCH2C4HCHCH4C3HNHCSHCH2CHCNC8HC3H16CH12CH2CH3CHFeH10CH2NC8H3CH17C3H2CH5CHC2H2C3HNHCHC3H16SH2CH9CHFeH2CH4CFeH7CH2CFeH5CH5CHC2H4NH3CH2FeH4SH3FeSFeS2FeS2FeSFeS3FeSHFeS2FeSFeS3HCHFeSHFeSHFeSFeS3C2H2SC2H3C6H5CHFeCHC2H2C2H3C6H4C6H4CH2C2H2C6H6CH4FeNC12H32C2SHC2H2C2HNHCHCSCHCH4CH3C3H2SHC2FeCHC2HCH7CHCH3CHCH3C2H6C2H3CH6C2H2SNH8NH2CHCH2C2H2C3HCHCH2C2H2CH2C2HCHCHNCHSHCH3CH2CH2CH6NC9H16SH3NC3HC3H2C2H7NH4NC2FeH2CH2C2H2CH7CH2CH4CH2CHC2SC2H2CH2CH4CH2CH7CH2CHS2H2C3H4C3HCH2CHCH2CHCH2CHCH4CHSHCHCH3CH2CHSCH3C2HCH2NH6C2HSHCH5C2H6C3HCHFeSCFeS2FeSFeS2HC2HC2HCH2FeS2FeS2FeSFeS3CFeS2H4CH2C8H4C3HCH4C2HCH2CHC6H4C5H3C2HCHCH2C3H3CHCH2CHCH2CSHC4H2CSH4CFeH4CHCH3CH2CHCH5C3SC3HNSCH7CH6C3HC2HNC12H30FeH3CH3CH6CH2CH7CH5C2H2CNH3C3H2C3H7CH2CSH2CH3CH5CH2CH3CH2C3HC4H4NH3CH7SCHCHCHCH3FeHCSCH3CHCH4C2H2NHCH7CH8CH3NCH3NH3CHC2H4NCHCH3CH3CHCH2C2HCH2CHCHFeSHFeS2FeSFeS3FeSHFeSHFeSFeSHSFeCSFeSFeS2FeS2FeS2FeHFeS5FeSFeSCH2C5H2C6H4C6H4CH3C2SC3H2C6HCH2C6H6CHC2H4CH5C2H3NSCHFeNHC2H7CHCH3CH4FeCH5NHC3HCH5CH4C2H3CHCHC2HCH4C5H4CSC2SCH2NSHCSC2H2CH5C2H8CHCHC2H3CHNC12H28C2H3FeC2H5CH3CHCH4CHCH2C3HCHC2H2CHC4H9NC4HCNC2HCH2CH5CH3CHCH5CHCH3CHSHCH2CH6CNCSH5CH6CH2CH4S2C2H2CH2SCH2CHCHC2H3CHC2H4CSHCNHNC8H8CH13SHCH2CH7CHCH5CH3CHCHC3H2CHCSH2CH2CHFeS2FeSHFeSFeS3H2CH2CH4CH2FeH2FeHSHSFe2S2FeS2FeCSHFeSHS2CSHFeS2FeHSFeSCS2C2HC2H7C6H4C6H4C3H2CHC6H4CHS2HC2HCHC2H2CH3CH2SCHCHCHCH3C6H4CHC2HC2H2CFeH3CH6C2H4C2HCHCH4S2HCHSH2NC12H29NFeH4NC12H28CH2CNCHSH2CHCH3C2H2CH2C2H2C4H5CH2CFeC2NC2H4SH3CH7CH4C2SHCHNHCNHCHCH3C2H3CHFeH4CH2CHCH2CSHC2SH2CFe2CSH5SCFeH3SHCH3CFeHCHCSHSH10CH3CSH3CHCH4CH2CH2C2H3C2FeS2FeS2FeSFeHS2HCFeSH2CSH2CH2FeSHC2HCHFeSCFeS2FeSFeS2CHCHCH3CHCH6C6H4S2C2H2C6H5C6H4CNSC3HCH3CHC5H5C3H4NH2C3HCHSFeCH4CHS2H4CH7CH2C2H3CFeHC2HC6H2CHFeSH3CHC2HCH9SH2CH10CH3C3HNH9C2HCH3C2HCH5C5FeHCH3SC3FeCH5CH2CHCH9CH3CH2C2FeH2C3H3CH4SH11C3H4C3H2CHSC2HCFeCH2CH3C2H6CH2CSH14C2HCH2CH3CH2C2H2C2HCSCHNHNHCHCHNSH3SH3CHCH5CNH2C2HCFeCHSHCHCH2CHCHCHCH2CHCH2CHSH4CHC2H5CSH4CH3CH5SC4FeHSHSH3SFeSCFeSHFeSFeS3FeS2FeS2FeSFeS3FeS2FeSFeSCHC2H7CH3SHC7H5C6H4CHCH4CH10SH3C4SH2NHC6H4CS2H3CHC3H2CH4CHCHC2H2C2HCH2CHCSH4SH2CNCHCHC3H2CH12CHCHCHC3H6CH9CH2CHC2H2CH3CH2CH2C2H4CH2CH5CH5CH3C3HCHCH2NCH2C2HCNC8SC3H17FeHSH11C2HC2HCH6C3H3C2HCH2FeNH2FeCH3C2H8C2HCH2NC11H25NC6HC2H3SHCHCH3CH4CHCHC2SHCH4CH2C5H4NHCHFeHSHCFeHCHCHFeS2FeS2FeSFeS3FeSHFeS2FeS2FeSFeS3FeS2HFeHFeS3HFeC2FeSH4S2H2SHC3HCH5FeCHFeCHC7H5C3FeH3C7H4C6H4C6H4C6H4C2SH5C2HCH8CHCH4CH5NC7H2C2H9CH5NHCH8NCSHSFeH2CH2CH5C3H2CHCH5SHCH3CHC2SHC3HC4H8CH3CH2CHNHCH6CHCSC2H3NH6C3H2CH3SH4CH2NH3CH2CH2C2HC3H2NC12H19CH9CHCH5CH5CH8CSH2CH4C2HSCHC4H3FeC2H7C2H3CH5CH5CH2CH3SH2C2HCHCHNH4NC2H2C2SH2CH4C2HC3H4CH2CH2CHCH5C3SHCH3CH2CH9SCSHFeHSFeNSFeHCHS3FeS2FeSHFeSFeS3FeS2FeSCFe2S3HCHSHCHCH3C3H2CHC2HCHC6H4C4H2C6H4C7H5CH3C6H3C2H7NC8HC3H16C2H10CNC8HC3H14SH3CH4SCH4C2SCH6SH2CH5CHCH2NC4H2SH2CH6CHCH2CH4C3HSCHCSHNC11H23C3SC5NC8HCH16CH6C2NH2CHFeC3HFeH6CHC2H2SH4CHC2H3CNCH3FeH3SHSHSC3HFeCH7C3H7SCH2CH6CHCH3CHC2H2CH4CH3CH3CH2NH2C2H2FeCH2CHCH6FeH9C2H3FeSHFeS2FeSFeS3FeS2FeS2FeSFeS3FeSHFeSHFeSFeCS2NH5CH4CHCHC2H7C6H4C6H4C4H2C2H2C4H4CH5SHC6H6NH3CH4C2H7CHC2HC2H4CHC2H4C2H2C3H5CHNH3CH6CHCHC2HCHCH6C2SH3CH5SH2C2H4NCH2CH5C10HCH3CH6CHC2H4C3SH5CH2C2H3CNC2H3NSH3CH4CHC2H10CH3CHCHCHCHC2H3CH6CH2CH2CHCH6CHC2H3CH2C3H3CHCHCS2HCHCH2CH3CH2C5H2CHCH2
_chemical_formula_sum              "S768 C3456 H6144 Fe384 N192"
_cell_length_a       69.5431
_cell_length_b       69.5495
_cell_length_c       75.4234
_cell_angle_alpha    73.9704
_cell_angle_beta     73.8995
_cell_angle_gamma    74.402

_space_group_name_H-M_alt    "P 1"
_space_group_IT_number       1

loop_
  _space_group_symop_operation_xyz
  'x, y, z'

loop_
  _atom_site_type_symbol
  _atom_site_label
  _atom_site_symmetry_multiplicity
  _atom_site_fract_x
  _atom_site_fract_y
  _atom_site_fract_z
  _atom_site_occupancy
  S   S1        1.0  0.05528  0.01028  0.14354  1.0000
  C   C1        1.0  0.02219  0.10398  0.15510  1.0000
  C   C2        1.0  0.45927  0.07969  0.14083  1.0000
  H   H1        1.0  0.01553  0.14628  0.14241  1.0000
  C   C3        1.0  0.45250  0.06255  0.13661  1.0000
  H   H2        1.0  0.22053  0.30244  0.11861  1.0000
  H   H3        1.0  0.32004  0.20924  0.03225  1.0000
  H   H4        1.0  0.02982  0.08882  0.11398  1.0000
  H   H5        1.0  0.01619  0.00840  0.20275  1.0000
  H   H6        1.0  0.44954  0.05125  0.15002  1.0000
  C   C4        1.0  0.00459  0.03945  0.15558  1.0000
  S   S2        1.0  0.30177  0.28818  0.08084  1.0000
  H   H7        1.0  0.45344  0.01499  0.15662  1.0000
  H   H8        1.0  0.12486  0.00811  0.10236  1.0000
  H   H9        1.0  0.16082  0.09991  0.16804  1.0000
  C   C5        1.0  0.35728  0.02737  0.18742  1.0000
  Fe  Fe1       1.0  0.17974  0.25166  0.04746  1.0000
  S   S3        1.0  0.19610  0.24808  0.07042  1.0000
  S   S4        1.0  0.15262  0.27677  0.04153  1.0000
  Fe  Fe2       1.0  0.20954  0.21598  0.03219  1.0000
  S   S5        1.0  0.22838  0.20972  0.05369  1.0000
  S   S6        1.0  0.21941  0.19617  0.01090  1.0000
  Fe  Fe3       1.0  0.19786  0.21444  0.07405  1.0000
  S   S7        1.0  0.19117  0.19109  0.10124  1.0000
  Fe  Fe4       1.0  0.22481  0.24384  0.04793  1.0000
  S   S8        1.0  0.24958  0.26237  0.03786  1.0000
  S   S9        1.0  0.17937  0.21846  0.05278  1.0000
  S   S10       1.0  0.20825  0.24956  0.02466  1.0000
  Fe  Fe5       1.0  0.10201  0.13473  0.13275  1.0000
  S   S11       1.0  0.12716  0.10813  0.14012  1.0000
  S   S12       1.0  0.10685  0.16521  0.11364  1.0000
  Fe  Fe6       1.0  0.06829  0.11186  0.15583  1.0000
  S   S13       1.0  0.09062  0.08342  0.16503  1.0000
  H   H10       1.0  0.99644  0.00071  0.08941  1.0000
  Fe  Fe7       1.0  0.10752  0.10432  0.16945  1.0000
  S   S14       1.0  0.12299  0.09358  0.19405  1.0000
  Fe  Fe8       1.0  0.10824  0.08955  0.13509  1.0000
  S   S15       1.0  0.12292  0.06264  0.12166  1.0000
  S   S16       1.0  0.08371  0.13258  0.16270  1.0000
  S   S17       1.0  0.08441  0.11641  0.12524  1.0000
  H   H11       1.0  0.33645  0.25646  0.05913  1.0000
  H   H12       1.0  0.45899  0.32137  0.05824  1.0000
  H   H13       1.0  0.29198  0.26026  0.02252  1.0000
  H   H14       1.0  0.42466  0.01427  0.22398  1.0000
  H   H15       1.0  0.09623  0.06309  0.20415  1.0000
  C   C6        1.0  0.22081  0.30982  0.10344  1.0000
  C   C7        1.0  0.34729  0.01693  0.23117  1.0000
  H   H16       1.0  0.29588  0.07852  0.20827  1.0000
  H   H17       1.0  0.13009  0.25084  0.00328  1.0000
  C   C8        1.0  0.45551  0.06455  0.20253  1.0000
  C   C9        1.0  0.47323  0.07069  0.19064  1.0000
  C   C10       1.0  0.38421  0.04324  0.18825  1.0000
  H   H18       1.0  0.39619  0.02913  0.18704  1.0000
  H   H19       1.0  0.00066  0.12450  0.09227  1.0000
  H   H20       1.0  0.47539  0.08594  0.18914  1.0000
  H   H21       1.0  0.07657  0.10113  0.23481  1.0000
  C   C11       1.0  0.99898  0.02346  0.14862  1.0000
  C   C12       1.0  0.36308  0.99722  0.17228  1.0000
  C   C13       1.0  0.34631  0.26687  0.04938  1.0000
  H   H22       1.0  0.26050  0.32049  0.13355  1.0000
  C   C14       1.0  0.30948  0.22040  0.04044  1.0000
  H   H23       1.0  0.33487  0.22641  0.00414  1.0000
  H   H24       1.0  0.18532  0.29897  0.00745  1.0000
  H   H25       1.0  0.00611  0.17066  0.14774  1.0000
  H   H26       1.0  0.36067  0.24856  0.02852  1.0000
  H   H27       1.0  0.46747  0.06515  0.10754  1.0000
  C   C15       1.0  0.13059  0.17192  0.10988  1.0000
  C   C16       1.0  0.14792  0.15724  0.11388  1.0000
  C   C17       1.0  0.16655  0.16316  0.11110  1.0000
  C   C18       1.0  0.16799  0.18372  0.10403  1.0000
  C   C19       1.0  0.15077  0.19831  0.09963  1.0000
  C   C20       1.0  0.13211  0.19243  0.10263  1.0000
  H   H28       1.0  0.14702  0.14136  0.11913  1.0000
  H   H29       1.0  0.17989  0.15178  0.11433  1.0000
  H   H30       1.0  0.15172  0.21423  0.09422  1.0000
  H   H31       1.0  0.11879  0.20386  0.09941  1.0000
  C   C21       1.0  0.47805  0.01521  0.13071  1.0000
  C   C22       1.0  0.15360  0.15543  0.22152  1.0000
  C   C23       1.0  0.35137  0.26410  0.02906  1.0000
  H   H32       1.0  0.46608  0.01540  0.19825  1.0000
  H   H33       1.0  0.02591  0.00051  0.22407  1.0000
  H   H34       1.0  0.18092  0.22499  0.00762  1.0000
  H   H35       1.0  0.18965  0.30481  0.10880  1.0000
  C   C24       1.0  0.28527  0.28223  0.06997  1.0000
  C   C25       1.0  0.27589  0.26540  0.07875  1.0000
  C   C26       1.0  0.26380  0.25969  0.06962  1.0000
  C   C27       1.0  0.26105  0.27085  0.05166  1.0000
  C   C28       1.0  0.26995  0.28798  0.04321  1.0000
  C   C29       1.0  0.28206  0.29358  0.05224  1.0000
  H   H36       1.0  0.27837  0.25648  0.09246  1.0000
  H   H37       1.0  0.25721  0.24631  0.07617  1.0000
  H   H38       1.0  0.26801  0.29667  0.02930  1.0000
  H   H39       1.0  0.28945  0.30630  0.04512  1.0000
  H   H40       1.0  0.99976  0.04005  0.08356  1.0000
  H   H41       1.0  0.49435  0.01606  0.12794  1.0000
  H   H42       1.0  0.36152  0.27481  0.02037  1.0000
  H   H43       1.0  0.35321  0.22851  0.01508  1.0000
  S   S18       1.0  0.03450  0.11310  0.16761  1.0000
  H   H44       1.0  0.36064  0.26375  0.05442  1.0000
  C   C30       1.0  0.12609  0.10220  0.22601  1.0000
  C   C31       1.0  0.20352  0.20188  0.99483  1.0000
  H   H45       1.0  0.46311  0.31968  0.10745  1.0000
  C   C32       1.0  0.00092  0.09290  0.13397  1.0000
  C   C33       1.0  0.37218  0.00756  0.18251  1.0000
  C   C34       1.0  0.27308  0.21046  0.00446  1.0000
  C   C35       1.0  0.15599  0.29022  0.07109  1.0000
  C   C36       1.0  0.15025  0.29572  0.05373  1.0000
  H   H46       1.0  0.34934  0.06227  0.21443  1.0000
  H   H47       1.0  0.30184  0.29210  0.00358  1.0000
  C   C37       1.0  0.21187  0.30956  0.04362  1.0000
  H   H48       1.0  0.15898  0.27436  0.07824  1.0000
  H   H49       1.0  0.03422  0.16119  0.11028  1.0000
  H   H50       1.0  0.46165  0.09205  0.12797  1.0000
  C   C38       1.0  0.11665  0.10891  0.21062  1.0000
  C   C39       1.0  0.10250  0.12751  0.20876  1.0000
  H   H51       1.0  0.23390  0.31770  0.06508  1.0000
  H   H52       1.0  0.29693  0.19629  0.06199  1.0000
  H   H53       1.0  0.44738  0.08626  0.15208  1.0000
  H   H54       1.0  0.19762  0.27603  0.09384  1.0000
  H   H55       1.0  0.09503  0.13267  0.19702  1.0000
  C   C40       1.0  0.04511  0.04677  0.18086  1.0000
  H   H56       1.0  0.35960  0.00771  0.15896  1.0000
  C   C41       1.0  0.07446  0.02428  0.13777  1.0000
  C   C42       1.0  0.06899  0.04564  0.13338  1.0000
  C   C43       1.0  0.08393  0.05734  0.12858  1.0000
  C   C44       1.0  0.10445  0.04773  0.12780  1.0000
  C   C45       1.0  0.11001  0.02635  0.13224  1.0000
  C   C46       1.0  0.09496  0.01460  0.13736  1.0000
  H   H57       1.0  0.05314  0.05318  0.13377  1.0000
  H   H58       1.0  0.07961  0.07382  0.12520  1.0000
  H   H59       1.0  0.12586  0.01894  0.13205  1.0000
  H   H60       1.0  0.47374  0.07362  0.14594  1.0000
  C   C47       1.0  0.46867  0.05313  0.12073  1.0000
  H   H61       1.0  0.48756  0.99461  0.22038  1.0000
  H   H62       1.0  0.35027  0.32539  0.99897  1.0000
  H   H63       1.0  0.11908  0.02057  0.06784  1.0000
  H   H64       1.0  0.00733  0.13696  0.11831  1.0000
  H   H65       1.0  0.22389  0.27831  0.08485  1.0000
  C   C48       1.0  0.41725  0.01342  0.12299  1.0000
  H   H66       1.0  0.01295  0.01157  0.14586  1.0000
  S   S19       1.0  0.43789  0.07961  0.21739  1.0000
  C   C49       1.0  0.35242  0.24888  0.98767  1.0000
  H   H67       1.0  0.35503  0.03806  0.17375  1.0000
  H   H68       1.0  0.48410  0.05180  0.12309  1.0000
  H   H69       1.0  0.18108  0.10941  0.14962  1.0000
  C   C50       1.0  0.04034  0.06413  0.20778  1.0000
  C   C51       1.0  0.00976  0.16256  0.13608  1.0000
  H   H70       1.0  0.49395  0.02740  0.22156  1.0000
  H   H71       1.0  0.18644  0.09360  0.17180  1.0000
  H   H72       1.0  0.31925  0.27883  0.02911  1.0000
  C   C52       1.0  0.42156  0.00207  0.21978  1.0000
  H   H73       1.0  0.14648  0.01697  0.06012  1.0000
  C   C53       1.0  0.20303  0.30784  0.02796  1.0000
  H   H74       1.0  0.37149  0.03258  0.22622  1.0000
  N   N1        1.0  0.15053  0.16271  0.16871  1.0000
  C   C54       1.0  0.16983  0.17076  0.15895  1.0000
  C   C55       1.0  0.15344  0.14157  0.16535  1.0000
  C   C56       1.0  0.13360  0.17656  0.15934  1.0000
  C   C57       1.0  0.14429  0.16241  0.18967  1.0000
  C   C58       1.0  0.16173  0.15878  0.20012  1.0000
  C   C59       1.0  0.16796  0.19388  0.15744  1.0000
  C   C60       1.0  0.11310  0.16931  0.16496  1.0000
  C   C61       1.0  0.17062  0.12484  0.17320  1.0000
  S   S20       1.0  0.34055  0.32491  0.04561  1.0000
  H   H75       1.0  0.33827  0.28283  0.05001  1.0000
  C   C62       1.0  0.18897  0.19937  0.15227  1.0000
  C   C63       1.0  0.09603  0.18628  0.15790  1.0000
  H   H76       1.0  0.17511  0.16828  0.14423  1.0000
  H   H77       1.0  0.18271  0.16217  0.16580  1.0000
  H   H78       1.0  0.13932  0.13534  0.17196  1.0000
  H   H79       1.0  0.15618  0.14239  0.14994  1.0000
  H   H80       1.0  0.13868  0.17896  0.14367  1.0000
  H   H81       1.0  0.12993  0.19203  0.16249  1.0000
  H   H82       1.0  0.13393  0.17710  0.19239  1.0000
  H   H83       1.0  0.13496  0.15061  0.19718  1.0000
  H   H84       1.0  0.16890  0.17230  0.19563  1.0000
  H   H85       1.0  0.17386  0.14532  0.19724  1.0000
  H   H86       1.0  0.15978  0.20309  0.14609  1.0000
  H   H87       1.0  0.15929  0.19847  0.17089  1.0000
  H   H88       1.0  0.10826  0.16448  0.18053  1.0000
  H   H89       1.0  0.11477  0.15631  0.15842  1.0000
  H   H90       1.0  0.18525  0.12996  0.16958  1.0000
  H   H91       1.0  0.16573  0.12018  0.18883  1.0000
  H   H92       1.0  0.35274  0.07071  0.18953  1.0000
  H   H93       1.0  0.43041  0.32194  0.12776  1.0000
  H   H94       1.0  0.00003  0.07916  0.20196  1.0000
  H   H95       1.0  0.38161  0.06999  0.20020  1.0000
  H   H96       1.0  0.44676  0.99873  0.12891  1.0000
  H   H97       1.0  0.19798  0.19512  0.13872  1.0000
  H   H98       1.0  0.18708  0.21611  0.15051  1.0000
  H   H99       1.0  0.19752  0.19135  0.16359  1.0000
  H   H100      1.0  0.10036  0.19177  0.14233  1.0000
  H   H101      1.0  0.08186  0.18028  0.16130  1.0000
  H   H102      1.0  0.09279  0.19932  0.16484  1.0000
  H   H103      1.0  0.47496  0.09035  0.22371  1.0000
  C   C64       1.0  0.20414  0.30305  0.09791  1.0000
  H   H104      1.0  0.40996  0.01489  0.13779  1.0000
  C   C65       1.0  0.30418  0.20906  0.06104  1.0000
  H   H105      1.0  0.21075  0.29304  0.02403  1.0000
  H   H106      1.0  0.34225  0.02323  0.19445  1.0000
  H   H107      1.0  0.31818  0.20265  0.06685  1.0000
  H   H108      1.0  0.47465  0.02531  0.15644  1.0000
  H   H109      1.0  0.28348  0.32031  0.11539  1.0000
  C   C66       1.0  0.15780  0.30523  0.07927  1.0000
  C   C67       1.0  0.10361  0.04688  0.20403  1.0000
  H   H110      1.0  0.00123  0.04248  0.12060  1.0000
  H   H111      1.0  0.29507  0.22581  0.03529  1.0000
  N   N2        1.0  0.15428  0.15971  0.04784  1.0000
  C   C68       1.0  0.14601  0.18211  0.04041  1.0000
  C   C69       1.0  0.16157  0.14852  0.03180  1.0000
  C   C70       1.0  0.13693  0.15091  0.06197  1.0000
  C   C71       1.0  0.17104  0.15663  0.05812  1.0000
  C   C72       1.0  0.19057  0.16432  0.04638  1.0000
  C   C73       1.0  0.13624  0.19542  0.05534  1.0000
  C   C74       1.0  0.14072  0.12715  0.06826  1.0000
  C   C75       1.0  0.17128  0.16040  0.01201  1.0000
  H   H112      1.0  0.29320  0.21954  0.06978  1.0000
  C   C76       1.0  0.20519  0.16239  0.05892  1.0000
  C   C77       1.0  0.12917  0.21780  0.04593  1.0000
  C   C78       1.0  0.12330  0.12040  0.08429  1.0000
  H   H113      1.0  0.13418  0.18364  0.03243  1.0000
  H   H114      1.0  0.15810  0.18957  0.03008  1.0000
  H   H115      1.0  0.17257  0.13395  0.03572  1.0000
  H   H116      1.0  0.14848  0.14405  0.02926  1.0000
  H   H117      1.0  0.12278  0.15601  0.05625  1.0000
  H   H118      1.0  0.13301  0.15681  0.07513  1.0000
  H   H119      1.0  0.16512  0.16362  0.07071  1.0000
  H   H120      1.0  0.17639  0.14016  0.06397  1.0000
  H   H121      1.0  0.18689  0.18056  0.03916  1.0000
  H   H122      1.0  0.19894  0.15490  0.03580  1.0000
  H   H123      1.0  0.12264  0.19022  0.06532  1.0000
  H   H124      1.0  0.14745  0.19490  0.06346  1.0000
  H   H125      1.0  0.15500  0.12058  0.07349  1.0000
  H   H126      1.0  0.14168  0.12015  0.05640  1.0000
  H   H127      1.0  0.15925  0.17234  0.00581  1.0000
  H   H128      1.0  0.18292  0.16816  0.01262  1.0000
  H   H129      1.0  0.03455  0.99652  0.08084  1.0000
  H   H130      1.0  0.29287  0.18651  0.02083  1.0000
  H   H131      1.0  0.41727  0.07290  0.18911  1.0000
  H   H132      1.0  0.19799  0.17217  0.06937  1.0000
  H   H133      1.0  0.20948  0.14628  0.06652  1.0000
  H   H134      1.0  0.21934  0.16751  0.05007  1.0000
  H   H135      1.0  0.12288  0.22710  0.05689  1.0000
  H   H136      1.0  0.14217  0.22400  0.03574  1.0000
  H   H137      1.0  0.11703  0.21932  0.03839  1.0000
  H   H138      1.0  0.12605  0.10343  0.08832  1.0000
  H   H139      1.0  0.12250  0.12613  0.09690  1.0000
  H   H140      1.0  0.10842  0.12628  0.07992  1.0000
  C   C79       1.0  0.47021  0.01338  0.15220  1.0000
  H   H141      1.0  0.46708  0.04201  0.08818  1.0000
  N   N3        1.0  0.46683  0.03292  0.11816  1.0000
  C   C80       1.0  0.44458  0.03213  0.12149  1.0000
  C   C81       1.0  0.03670  0.04587  0.20201  1.0000
  C   C82       1.0  0.44026  0.01238  0.11897  1.0000
  H   H142      1.0  0.41457  0.99913  0.12112  1.0000
  H   H143      1.0  0.43694  0.04537  0.11183  1.0000
  H   H144      1.0  0.43615  0.03387  0.13595  1.0000
  C   C83       1.0  0.48875  0.05650  0.18171  1.0000
  C   C84       1.0  0.32581  0.05871  0.20233  1.0000
  H   H145      1.0  0.06224  0.99874  0.10118  1.0000
  H   H146      1.0  0.27026  0.28466  0.00042  1.0000
  H   H147      1.0  0.37574  0.99628  0.19538  1.0000
  N   N4        1.0  0.36377  0.03804  0.19907  1.0000
  H   H148      1.0  0.43773  0.06915  0.13209  1.0000
  H   H149      1.0  0.14432  0.30784  0.99970  1.0000
  C   C85       1.0  0.46571  0.32234  0.06964  1.0000
  H   H150      1.0  0.01689  0.04622  0.14479  1.0000
  N   N5        1.0  0.02954  0.06690  0.22750  1.0000
  H   H151      1.0  0.37907  0.01099  0.21619  1.0000
  C   C86       1.0  0.14466  0.31645  0.04531  1.0000
  H   H152      1.0  0.34074  0.00892  0.22418  1.0000
  C   C87       1.0  0.48636  0.03636  0.18493  1.0000
  H   H153      1.0  0.18671  0.30744  0.03409  1.0000
  H   H154      1.0  0.39801  0.32013  0.15356  1.0000
  C   C88       1.0  0.39293  0.05617  0.19678  1.0000
  C   C89       1.0  0.13334  0.01981  0.07209  1.0000
  H   H155      1.0  0.38662  0.01112  0.17286  1.0000
  H   H156      1.0  0.08725  0.15400  0.22071  1.0000
  C   C90       1.0  0.27683  0.19533  0.02278  1.0000
  N   N6        1.0  0.19908  0.32550  0.99328  1.0000
  C   C91       1.0  0.13220  0.04085  0.07541  1.0000
  H   H157      1.0  0.32019  0.04539  0.21227  1.0000
  C   C92       1.0  0.34051  0.32586  0.98985  1.0000
  H   H158      1.0  0.01030  0.03215  0.16873  1.0000
  C   C93       1.0  0.02186  0.09283  0.12740  1.0000
  H   H159      1.0  0.11861  0.04630  0.19377  1.0000
  H   H160      1.0  0.42405  0.05002  0.18002  1.0000
  H   H161      1.0  0.14077  0.16817  0.22528  1.0000
  H   H162      1.0  0.40995  0.02655  0.11310  1.0000
  H   H163      1.0  0.47799  0.01569  0.09600  1.0000
  C   C94       1.0  0.42712  0.00075  0.20078  1.0000
  H   H164      1.0  0.05061  0.15234  0.13784  1.0000
  H   H165      1.0  0.31263  0.07811  0.22286  1.0000
  C   C95       1.0  0.10642  0.03515  0.22377  1.0000
  C   C96       1.0  0.09802  0.13948  0.22224  1.0000
  H   H166      1.0  0.44677  0.01012  0.10433  1.0000
  H   H167      1.0  0.06165  0.04720  0.17686  1.0000
  H   H168      1.0  0.10341  0.24940  0.00824  1.0000
  C   C97       1.0  0.47676  0.03135  0.09789  1.0000
  H   H169      1.0  0.01666  0.01705  0.10428  1.0000
  H   H170      1.0  0.47841  0.00052  0.12732  1.0000
  H   H171      1.0  0.01390  0.99656  0.12397  1.0000
  H   H172      1.0  0.14615  0.04110  0.07973  1.0000
  H   H173      1.0  0.13088  0.05266  0.06221  1.0000
  H   H174      1.0  0.11858  0.04488  0.08663  1.0000
  H   H175      1.0  0.22839  0.30974  0.03833  1.0000
  H   H176      1.0  0.03003  0.09921  0.21991  1.0000
  H   H177      1.0  0.43855  0.04091  0.21267  1.0000
  H   H178      1.0  0.16258  0.30083  0.09255  1.0000
  H   H179      1.0  0.28383  0.22093  0.00059  1.0000
  H   H180      1.0  0.09381  0.04001  0.19920  1.0000
  C   C98       1.0  0.00659  0.07067  0.23024  1.0000
  C   C99       1.0  0.00604  0.00671  0.11272  1.0000
  H   H181      1.0  0.26621  0.18457  0.02744  1.0000
  H   H182      1.0  0.09918  0.99813  0.14111  1.0000
  C   C100      1.0  0.34860  0.05787  0.20152  1.0000
  H   H183      1.0  0.04334  0.03299  0.17726  1.0000
  H   H184      1.0  0.09103  0.03556  0.23322  1.0000
  C   C101      1.0  0.03461  0.08533  0.23067  1.0000
  H   H185      1.0  0.20097  0.31247  0.08414  1.0000
  H   H186      1.0  0.05880  0.17341  0.11980  1.0000
  H   H187      1.0  0.00412  0.10011  0.20892  1.0000
  H   H188      1.0  0.16235  0.28405  0.99708  1.0000
  H   H189      1.0  0.17016  0.13835  0.99678  1.0000
  C   C102      1.0  0.36646  0.02449  0.21802  1.0000
  H   H190      1.0  0.21015  0.29610  0.05550  1.0000
  C   C103      1.0  0.03246  0.09843  0.13792  1.0000
  H   H191      1.0  0.33320  0.23195  0.04482  1.0000
  H   H192      1.0  0.30388  0.24684  0.00439  1.0000
  H   H193      1.0  0.23371  0.29062  0.99822  1.0000
  H   H194      1.0  0.19438  0.13459  0.00326  1.0000
  Fe  Fe9       1.0  0.31223  0.31828  0.06768  1.0000
  C   C104      1.0  0.11417  0.25991  0.00433  1.0000
  H   H195      1.0  0.27398  0.20376  0.03410  1.0000
  C   C105      1.0  0.99756  0.15214  0.11357  1.0000
  H   H196      1.0  0.26441  0.18914  0.99398  1.0000
  C   C106      1.0  0.21042  0.28061  0.09663  1.0000
  H   H197      1.0  0.33541  0.27974  0.00680  1.0000
  H   H198      1.0  0.32393  0.05899  0.18808  1.0000
  H   H199      1.0  0.13747  0.08815  0.22711  1.0000
  H   H200      1.0  0.16076  0.04877  0.22719  1.0000
  H   H201      1.0  0.04847  0.09875  0.13257  1.0000
  H   H202      1.0  0.38325  0.05150  0.17347  1.0000
  H   H203      1.0  0.21411  0.27066  0.11007  1.0000
  H   H204      1.0  0.40759  0.07275  0.16942  1.0000
  H   H205      1.0  0.03667  0.06051  0.17241  1.0000
  C   C107      1.0  0.15691  0.30001  0.98971  1.0000
  H   H206      1.0  0.33559  0.03002  0.23573  1.0000
  H   H207      1.0  0.30864  0.24845  0.04814  1.0000
  N   N7        1.0  0.32492  0.25124  0.01891  1.0000
  C   C108      1.0  0.33200  0.26918  0.02070  1.0000
  C   C109      1.0  0.30576  0.25852  0.01098  1.0000
  C   C110      1.0  0.31943  0.23854  0.03865  1.0000
  C   C111      1.0  0.34136  0.23788  0.00710  1.0000
  C   C112      1.0  0.27594  0.19898  0.98862  1.0000
  H   H208      1.0  0.23589  0.30267  0.09565  1.0000
  H   H209      1.0  0.11382  0.06104  0.22944  1.0000
  C   C113      1.0  0.00143  0.10336  0.16196  1.0000
  C   C114      1.0  0.02435  0.99525  0.21200  1.0000
  H   H210      1.0  0.11078  0.26835  0.01576  1.0000
  C   C115      1.0  0.99731  0.08635  0.21411  1.0000
  H   H211      1.0  0.43463  0.01208  0.19029  1.0000
  C   C116      1.0  0.30334  0.27937  0.99671  1.0000
  H   H212      1.0  0.09488  0.00907  0.09561  1.0000
  C   C117      1.0  0.12006  0.04433  0.23090  1.0000
  H   H213      1.0  0.04477  0.03124  0.20969  1.0000
  C   C118      1.0  0.41159  0.06334  0.18291  1.0000
  C   C119      1.0  0.18162  0.31452  0.99858  1.0000
  H   H214      1.0  0.39790  0.04691  0.20992  1.0000
  H   H215      1.0  0.02025  0.04557  0.20524  1.0000
  H   H216      1.0  0.13485  0.04312  0.22039  1.0000
  C   C120      1.0  0.17495  0.10582  0.16515  1.0000
  C   C121      1.0  0.28421  0.28372  0.98890  1.0000
  H   H217      1.0  0.05717  0.06158  0.20597  1.0000
  H   H218      1.0  0.03636  0.07836  0.19718  1.0000
  C   C122      1.0  0.04556  0.16847  0.13066  1.0000
  C   C123      1.0  0.46810  0.03085  0.19581  1.0000
  C   C124      1.0  0.45265  0.04506  0.20428  1.0000
  H   H219      1.0  0.31662  0.09194  0.19840  1.0000
  H   H220      1.0  0.02351  0.18669  0.11445  1.0000
  H   H221      1.0  0.11381  0.01916  0.22257  1.0000
  H   H222      1.0  0.04071  0.17822  0.14122  1.0000
  C   C125      1.0  0.13617  0.00292  0.09010  1.0000
  H   H223      1.0  0.06626  0.08514  0.21486  1.0000
  C   C126      1.0  0.31196  0.07803  0.20833  1.0000
  H   H224      1.0  0.07605  0.99930  0.07701  1.0000
  C   C127      1.0  0.05746  0.08406  0.22969  1.0000
  H   H225      1.0  0.47140  0.30655  0.07721  1.0000
  C   C128      1.0  0.02804  0.17037  0.12130  1.0000
  H   H226      1.0  0.13951  0.32081  0.03221  1.0000
  C   C129      1.0  0.06008  0.10183  0.23639  1.0000
  H   H227      1.0  0.25724  0.21952  0.00760  1.0000
  H   H228      1.0  0.05352  0.11673  0.22789  1.0000
  C   C130      1.0  0.18550  0.21689  0.99627  1.0000
  H   H229      1.0  0.15129  0.00273  0.09251  1.0000
  H   H230      1.0  0.14819  0.14084  0.22704  1.0000
  C   C131      1.0  0.18141  0.14618  0.99828  1.0000
  H   H231      1.0  0.00724  0.16006  0.10072  1.0000
  H   H232      1.0  0.25869  0.31051  0.10464  1.0000
  H   H233      1.0  0.35880  0.26134  0.98886  1.0000
  H   H234      1.0  0.16600  0.15453  0.22854  1.0000
  H   H235      1.0  0.00146  0.05621  0.23230  1.0000
  H   H236      1.0  0.21406  0.28379  0.99109  1.0000
  C   C132      1.0  0.15393  0.32582  0.07008  1.0000
  H   H237      1.0  0.20359  0.32366  0.04888  1.0000
  H   H238      1.0  0.16817  0.32289  0.00746  1.0000
  H   H239      1.0  0.29097  0.18802  0.98772  1.0000
  H   H240      1.0  0.09613  0.28456  0.98778  1.0000
  H   H241      1.0  0.06383  0.13582  0.37574  1.0000
  H   H242      1.0  0.15992  0.25969  0.40920  1.0000
  Fe  Fe10      1.0  0.37833  0.14436  0.38819  1.0000
  S   S21       1.0  0.40691  0.15119  0.36709  1.0000
  S   S22       1.0  0.37825  0.12404  0.41703  1.0000
  Fe  Fe11      1.0  0.35029  0.17050  0.36250  1.0000
  S   S23       1.0  0.37626  0.17961  0.33933  1.0000
  S   S24       1.0  0.31939  0.18555  0.35647  1.0000
  Fe  Fe12      1.0  0.39167  0.14670  0.34628  1.0000
  S   S25       1.0  0.40871  0.13225  0.32162  1.0000
  Fe  Fe13      1.0  0.38871  0.18339  0.36216  1.0000
  S   S26       1.0  0.39919  0.21250  0.35797  1.0000
  S   S27       1.0  0.36448  0.13711  0.36776  1.0000
  S   S28       1.0  0.36127  0.17697  0.38501  1.0000
  Fe  Fe14      1.0  0.17535  0.18828  0.39112  1.0000
  S   S29       1.0  0.18616  0.16419  0.41521  1.0000
  S   S30       1.0  0.14767  0.18851  0.38044  1.0000
  Fe  Fe15      1.0  0.20666  0.21354  0.38794  1.0000
  S   S31       1.0  0.21976  0.19149  0.41148  1.0000
  Fe  Fe16      1.0  0.21767  0.16732  0.39818  1.0000
  S   S32       1.0  0.24568  0.14194  0.39669  1.0000
  Fe  Fe17      1.0  0.18739  0.19044  0.42656  1.0000
  S   S33       1.0  0.17638  0.19027  0.45781  1.0000
  S   S34       1.0  0.20693  0.18942  0.37311  1.0000
  S   S35       1.0  0.17404  0.21454  0.40392  1.0000
  Fe  Fe18      1.0  0.12475  0.12296  0.31719  1.0000
  S   S36       1.0  0.09535  0.14168  0.30884  1.0000
  S   S37       1.0  0.14930  0.13019  0.32767  1.0000
  Fe  Fe19      1.0  0.12238  0.08587  0.30431  1.0000
  S   S38       1.0  0.09349  0.10125  0.29445  1.0000
  S   S39       1.0  0.13704  0.05358  0.30115  1.0000
  Fe  Fe20      1.0  0.10739  0.12886  0.28261  1.0000
  S   S40       1.0  0.10216  0.14786  0.25425  1.0000
  H   H243      1.0  0.09165  0.03201  0.26267  1.0000
  S   S41       1.0  0.13763  0.11239  0.28973  1.0000
  S   S42       1.0  0.11129  0.09506  0.33223  1.0000
  Fe  Fe21      1.0  0.39769  0.05275  0.28209  1.0000
  S   S43       1.0  0.42800  0.06211  0.27197  1.0000
  S   S44       1.0  0.37267  0.06801  0.30302  1.0000
  Fe  Fe22      1.0  0.41173  0.01781  0.26159  1.0000
  C   C133      1.0  0.17229  0.26699  0.40908  1.0000
  H   H244      1.0  0.18634  0.27330  0.46667  1.0000
  Fe  Fe23      1.0  0.44118  0.02867  0.27861  1.0000
  H   H245      1.0  0.47306  0.05354  0.23899  1.0000
  C   C134      1.0  0.38887  0.28626  0.40422  1.0000
  C   C135      1.0  0.04116  0.11450  0.30368  1.0000
  S   S45       1.0  0.41101  0.01939  0.29109  1.0000
  H   H246      1.0  0.10883  0.03428  0.41478  1.0000
  H   H247      1.0  0.41609  0.31830  0.34608  1.0000
  H   H248      1.0  0.16496  0.07658  0.34718  1.0000
  H   H249      1.0  0.04204  0.15599  0.31866  1.0000
  S   S46       1.0  0.41864  0.15441  0.46717  1.0000
  C   C136      1.0  0.02885  0.04876  0.26256  1.0000
  C   C137      1.0  0.14613  0.13058  0.41227  1.0000
  H   H250      1.0  0.99648  0.14700  0.29367  1.0000
  H   H251      1.0  0.21887  0.31762  0.39105  1.0000
  H   H252      1.0  0.41298  0.26650  0.38900  1.0000
  H   H253      1.0  0.07627  0.05244  0.29622  1.0000
  H   H254      1.0  0.45595  0.01844  0.33711  1.0000
  C   C138      1.0  0.14841  0.17256  0.36542  1.0000
  C   C139      1.0  0.13091  0.17438  0.35868  1.0000
  C   C140      1.0  0.13092  0.16179  0.34687  1.0000
  C   C141      1.0  0.14841  0.14711  0.34184  1.0000
  C   C142      1.0  0.16586  0.14525  0.34867  1.0000
  C   C143      1.0  0.16589  0.15788  0.36039  1.0000
  H   H255      1.0  0.11734  0.18573  0.36248  1.0000
  H   H256      1.0  0.11747  0.16357  0.34154  1.0000
  H   H257      1.0  0.17947  0.13395  0.34485  1.0000
  H   H258      1.0  0.17943  0.15627  0.36552  1.0000
  C   C144      1.0  0.20927  0.20507  0.45823  1.0000
  C   C145      1.0  0.01159  0.16313  0.33657  1.0000
  H   H259      1.0  0.21277  0.20770  0.44305  1.0000
  C   C146      1.0  0.39631  0.11640  0.31624  1.0000
  C   C147      1.0  0.38311  0.10531  0.33039  1.0000
  C   C148      1.0  0.37550  0.09072  0.32618  1.0000
  C   C149      1.0  0.38071  0.08752  0.30777  1.0000
  C   C150      1.0  0.39313  0.09926  0.29348  1.0000
  C   C151      1.0  0.40109  0.11352  0.29774  1.0000
  H   H260      1.0  0.37969  0.10712  0.34477  1.0000
  H   H261      1.0  0.36617  0.08139  0.33731  1.0000
  H   H262      1.0  0.39676  0.09727  0.27912  1.0000
  H   H263      1.0  0.41124  0.12211  0.28674  1.0000
  C   C152      1.0  0.38465  0.22377  0.37683  1.0000
  C   C153      1.0  0.38226  0.21207  0.39531  1.0000
  C   C154      1.0  0.36972  0.22090  0.41027  1.0000
  C   C155      1.0  0.37445  0.24424  0.37331  1.0000
  H   H264      1.0  0.39004  0.19617  0.39809  1.0000
  H   H265      1.0  0.36769  0.21171  0.42451  1.0000
  H   H266      1.0  0.37626  0.25315  0.35901  1.0000
  C   C156      1.0  0.29925  0.17382  0.37015  1.0000
  C   C157      1.0  0.27941  0.18421  0.36871  1.0000
  C   C158      1.0  0.26307  0.17437  0.37706  1.0000
  C   C159      1.0  0.26642  0.15407  0.38701  1.0000
  C   C160      1.0  0.28618  0.14384  0.38927  1.0000
  C   C161      1.0  0.30268  0.15379  0.38089  1.0000
  H   H267      1.0  0.27661  0.19975  0.36067  1.0000
  H   H268      1.0  0.24793  0.18247  0.37535  1.0000
  H   H269      1.0  0.28870  0.12825  0.39736  1.0000
  H   H270      1.0  0.31803  0.14581  0.38223  1.0000
  C   C162      1.0  0.38986  0.13242  0.43070  1.0000
  C   C163      1.0  0.40098  0.14793  0.42256  1.0000
  C   C164      1.0  0.41006  0.15447  0.43374  1.0000
  C   C165      1.0  0.40751  0.14595  0.45318  1.0000
  C   C166      1.0  0.39606  0.13073  0.46136  1.0000
  C   C167      1.0  0.38755  0.12373  0.45008  1.0000
  H   H271      1.0  0.40276  0.15478  0.40764  1.0000
  H   H272      1.0  0.41886  0.16628  0.42734  1.0000
  H   H273      1.0  0.37888  0.11181  0.45646  1.0000
  H   H274      1.0  0.19159  0.24820  0.48157  1.0000
  C   C168      1.0  0.08750  0.03083  0.33301  1.0000
  C   C169      1.0  0.10130  0.04389  0.32428  1.0000
  C   C170      1.0  0.11981  0.03717  0.31233  1.0000
  C   C171      1.0  0.12443  0.01736  0.30907  1.0000
  C   C172      1.0  0.33084  0.21841  0.47143  1.0000
  H   H275      1.0  0.11042  0.31782  0.42003  1.0000
  H   H276      1.0  0.09761  0.05912  0.32691  1.0000
  H   H277      1.0  0.13884  0.01201  0.30002  1.0000
  H   H278      1.0  0.47379  0.09521  0.28220  1.0000
  N   N8        1.0  0.43665  0.06062  0.33954  1.0000
  C   C173      1.0  0.44043  0.06871  0.31841  1.0000
  C   C174      1.0  0.41845  0.05033  0.34615  1.0000
  C   C175      1.0  0.43134  0.07869  0.34873  1.0000
  C   C176      1.0  0.45535  0.04634  0.34572  1.0000
  C   C177      1.0  0.46619  0.02896  0.33501  1.0000
  C   C178      1.0  0.45729  0.08147  0.30973  1.0000
  C   C179      1.0  0.42488  0.07394  0.37067  1.0000
  C   C180      1.0  0.41461  0.03939  0.33243  1.0000
  C   C181      1.0  0.39691  0.02832  0.34196  1.0000
  C   C182      1.0  0.16900  0.24488  0.44231  1.0000
  C   C183      1.0  0.41803  0.09364  0.37806  1.0000
  H   H279      1.0  0.42609  0.07859  0.31451  1.0000
  H   H280      1.0  0.44430  0.05611  0.31081  1.0000
  H   H281      1.0  0.41921  0.03913  0.35984  1.0000
  H   H282      1.0  0.40396  0.06183  0.34908  1.0000
  H   H283      1.0  0.41878  0.09045  0.34323  1.0000
  H   H284      1.0  0.44448  0.08639  0.34502  1.0000
  H   H285      1.0  0.46702  0.05512  0.34466  1.0000
  H   H286      1.0  0.45141  0.03889  0.36096  1.0000
  H   H287      1.0  0.01356  0.14792  0.34641  1.0000
  C   C184      1.0  0.41725  0.22137  0.46207  1.0000
  H   H288      1.0  0.45213  0.09651  0.31383  1.0000
  Fe  Fe24      1.0  0.27818  0.29840  0.41208  1.0000
  H   H289      1.0  0.43791  0.06428  0.37695  1.0000
  H   H290      1.0  0.41194  0.06590  0.37595  1.0000
  H   H291      1.0  0.41032  0.05072  0.31982  1.0000
  H   H292      1.0  0.42819  0.02812  0.32737  1.0000
  H   H293      1.0  0.39415  0.02096  0.33183  1.0000
  H   H294      1.0  0.18975  0.04811  0.24010  1.0000
  H   H295      1.0  0.10886  0.04776  0.43206  1.0000
  H   H296      1.0  0.04953  0.03187  0.31646  1.0000
  H   H297      1.0  0.13345  0.07632  0.41086  1.0000
  H   H298      1.0  0.48094  0.00893  0.35753  1.0000
  H   H299      1.0  0.41358  0.08999  0.39375  1.0000
  H   H300      1.0  0.43060  0.10216  0.37367  1.0000
  H   H301      1.0  0.40457  0.10362  0.37260  1.0000
  H   H302      1.0  0.21905  0.23478  0.41203  1.0000
  H   H303      1.0  0.33887  0.21906  0.45642  1.0000
  C   C185      1.0  0.45193  0.32139  0.32239  1.0000
  H   H304      1.0  0.38145  0.30271  0.40298  1.0000
  C   C186      1.0  0.48517  0.01612  0.34228  1.0000
  C   C187      1.0  0.27111  0.24116  0.44877  1.0000
  H   H305      1.0  0.33830  0.99704  0.25844  1.0000
  C   C188      1.0  0.44110  0.30370  0.32640  1.0000
  H   H306      1.0  0.25553  0.29114  0.37732  1.0000
  H   H307      1.0  0.23941  0.32470  0.47617  1.0000
  C   C189      1.0  0.42529  0.30261  0.34548  1.0000
  C   C190      1.0  0.01520  0.09938  0.29992  1.0000
  C   C191      1.0  0.22732  0.24677  0.40437  1.0000
  H   H308      1.0  0.00994  0.01203  0.37271  1.0000
  H   H309      1.0  0.17378  0.30188  0.36657  1.0000
  H   H310      1.0  0.16253  0.08166  0.38708  1.0000
  C   C192      1.0  0.16220  0.27515  0.37079  1.0000
  S   S47       1.0  0.05078  0.11074  0.33758  1.0000
  H   H311      1.0  0.13433  0.13099  0.42562  1.0000
  H   H312      1.0  0.36592  0.27602  0.48139  1.0000
  H   H313      1.0  0.45901  0.32027  0.33426  1.0000
  H   H314      1.0  0.00132  0.17749  0.31034  1.0000
  H   H315      1.0  0.05249  0.10085  0.25153  1.0000
  H   H316      1.0  0.37705  0.27735  0.40629  1.0000
  H   H317      1.0  0.25153  0.30925  0.45935  1.0000
  H   H318      1.0  0.09352  0.07060  0.40525  1.0000
  C   C193      1.0  0.21749  0.28797  0.47181  1.0000
  H   H319      1.0  0.40644  0.19780  0.44382  1.0000
  C   C194      1.0  0.03298  0.16741  0.32725  1.0000
  H   H320      1.0  0.10626  0.02859  0.27944  1.0000
  H   H321      1.0  0.22865  0.28324  0.45918  1.0000
  C   C195      1.0  0.35236  0.00196  0.24913  1.0000
  Fe  Fe25      1.0  0.29608  0.31837  0.43350  1.0000
  H   H322      1.0  0.40797  0.27045  0.45374  1.0000
  H   H323      1.0  0.38844  0.25666  0.45653  1.0000
  H   H324      1.0  0.29341  0.20349  0.46072  1.0000
  S   S48       1.0  0.24802  0.28882  0.41763  1.0000
  H   H325      1.0  0.46009  0.08667  0.24755  1.0000
  C   C196      1.0  0.32499  0.24067  0.47431  1.0000
  H   H326      1.0  0.33230  0.17802  0.48645  1.0000
  H   H327      1.0  0.41714  0.23244  0.44823  1.0000
  C   C197      1.0  0.24408  0.27328  0.40463  1.0000
  H   H328      1.0  0.46776  0.07122  0.28321  1.0000
  H   H329      1.0  0.35022  0.15466  0.44384  1.0000
  S   S49       1.0  0.32791  0.31208  0.41580  1.0000
  H   H330      1.0  0.01189  0.05244  0.26660  1.0000
  H   H331      1.0  0.17059  0.24362  0.45686  1.0000
  C   C198      1.0  0.46195  0.08578  0.28816  1.0000
  H   H332      1.0  0.29105  0.14550  0.47152  1.0000
  H   H333      1.0  0.48557  0.09118  0.24281  1.0000
  H   H334      1.0  0.24343  0.27294  0.35971  1.0000
  H   H335      1.0  0.03045  0.01591  0.27310  1.0000
  H   H336      1.0  0.16092  0.26408  0.34698  1.0000
  H   H337      1.0  0.15796  0.11351  0.39057  1.0000
  C   C199      1.0  0.11545  0.04592  0.41727  1.0000
  H   H338      1.0  0.33125  0.09709  0.43821  1.0000
  H   H339      1.0  0.38555  0.31628  0.30260  1.0000
  H   H340      1.0  0.39559  0.28104  0.41693  1.0000
  H   H341      1.0  0.12835  0.10839  0.25176  1.0000
  H   H342      1.0  0.01641  0.09106  0.34639  1.0000
  H   H343      1.0  0.02542  0.08900  0.24442  1.0000
  H   H344      1.0  0.37203  0.31452  0.34526  1.0000
  H   H345      1.0  0.32791  0.15053  0.46222  1.0000
  S   S50       1.0  0.44325  0.02424  0.24991  1.0000
  H   H346      1.0  0.99736  0.08462  0.32576  1.0000
  C   C200      1.0  0.02234  0.03692  0.33887  1.0000
  S   S51       1.0  0.46909  0.01640  0.29075  1.0000
  H   H347      1.0  0.02183  0.01224  0.32711  1.0000
  C   C201      1.0  0.07398  0.06146  0.28206  1.0000
  H   H348      1.0  0.38873  0.22233  0.44107  1.0000
  H   H349      1.0  0.23462  0.14690  0.47021  1.0000
  C   C202      1.0  0.00949  0.09304  0.31960  1.0000
  H   H350      1.0  0.04119  0.16634  0.33830  1.0000
  C   C203      1.0  0.11100  0.30749  0.41090  1.0000
  C   C204      1.0  0.14984  0.30191  0.40161  1.0000
  H   H351      1.0  0.19705  0.31606  0.37054  1.0000
  H   H352      1.0  0.06305  0.05561  0.27777  1.0000
  C   C205      1.0  0.11770  0.99704  0.25898  1.0000
  C   C206      1.0  0.26135  0.16209  0.48198  1.0000
  C   C207      1.0  0.39791  0.21204  0.46809  1.0000
  H   H353      1.0  0.13061  0.28130  0.40095  1.0000
  C   C208      1.0  0.30022  0.21573  0.46195  1.0000
  H   H354      1.0  0.03469  0.06057  0.26558  1.0000
  H   H355      1.0  0.26574  0.22858  0.44649  1.0000
  H   H356      1.0  0.33605  0.12119  0.43836  1.0000
  H   H357      1.0  0.47655  0.24493  0.44252  1.0000
  H   H358      1.0  0.38007  0.19977  0.45610  1.0000
  H   H359      1.0  0.40053  0.01627  0.35443  1.0000
  C   C209      1.0  0.43952  0.23980  0.46800  1.0000
  C   C210      1.0  0.39306  0.20777  0.45117  1.0000
  H   H360      1.0  0.13228  0.04028  0.41528  1.0000
  H   H361      1.0  0.43025  0.20849  0.45898  1.0000
  C   C211      1.0  0.13106  0.29156  0.40964  1.0000
  C   C212      1.0  0.47809  0.23484  0.45655  1.0000
  H   H362      1.0  0.32789  0.11846  0.41854  1.0000
  C   C213      1.0  0.23378  0.25734  0.41431  1.0000
  C   C214      1.0  0.39525  0.26395  0.46399  1.0000
  H   H363      1.0  0.34292  0.20960  0.47933  1.0000
  H   H364      1.0  0.44070  0.24976  0.47678  1.0000
  H   H365      1.0  0.01181  0.05046  0.34361  1.0000
  H   H366      1.0  0.03045  0.02938  0.29032  1.0000
  H   H367      1.0  0.00960  0.15039  0.31468  1.0000
  H   H368      1.0  0.16053  0.27778  0.43585  1.0000
  H   H369      1.0  0.47142  0.03520  0.31972  1.0000
  H   H370      1.0  0.49130  0.01917  0.24640  1.0000
  N   N9        1.0  0.27511  0.15265  0.44866  1.0000
  C   C215      1.0  0.27154  0.17559  0.44159  1.0000
  C   C216      1.0  0.47580  0.08361  0.23872  1.0000
  C   C217      1.0  0.29593  0.14374  0.43789  1.0000
  C   C218      1.0  0.25939  0.14363  0.44513  1.0000
  C   C219      1.0  0.23684  0.15127  0.45461  1.0000
  C   C220      1.0  0.27295  0.18364  0.42002  1.0000
  H   H371      1.0  0.20637  0.14721  0.45674  1.0000
  C   C221      1.0  0.42362  0.26578  0.35257  1.0000
  C   C222      1.0  0.22238  0.14159  0.44954  1.0000
  C   C223      1.0  0.26608  0.20687  0.41510  1.0000
  Fe  Fe26      1.0  0.42708  0.05728  0.24409  1.0000
  H   H372      1.0  0.28168  0.24725  0.43563  1.0000
  H   H373      1.0  0.25633  0.18314  0.44870  1.0000
  C   C224      1.0  0.18677  0.29759  0.39877  1.0000
  H   H374      1.0  0.30761  0.15161  0.43864  1.0000
  H   H375      1.0  0.29606  0.14645  0.42263  1.0000
  H   H376      1.0  0.26053  0.14586  0.42973  1.0000
  H   H377      1.0  0.26253  0.12676  0.45039  1.0000
  H   H378      1.0  0.23206  0.16804  0.45004  1.0000
  C   C225      1.0  0.34153  0.15752  0.45794  1.0000
  H   H379      1.0  0.28893  0.17981  0.41192  1.0000
  H   H380      1.0  0.26305  0.17714  0.41508  1.0000
  H   H381      1.0  0.06731  0.07763  0.28307  1.0000
  H   H382      1.0  0.09200  0.07052  0.25424  1.0000
  C   C226      1.0  0.24112  0.26826  0.37494  1.0000
  H   H383      1.0  0.21032  0.25566  0.46057  1.0000
  C   C227      1.0  0.32232  0.18508  0.47619  1.0000
  H   H384      1.0  0.11693  0.06367  0.38875  1.0000
  C   C228      1.0  0.03781  0.04483  0.32135  1.0000
  H   H385      1.0  0.27670  0.21433  0.41810  1.0000
  H   H386      1.0  0.26582  0.21207  0.39983  1.0000
  H   H387      1.0  0.25041  0.21167  0.42338  1.0000
  C   C229      1.0  0.13826  0.04445  0.25438  1.0000
  H   H388      1.0  0.30985  0.17630  0.48102  1.0000
  H   H389      1.0  0.32565  0.31799  0.33598  1.0000
  H   H390      1.0  0.17692  0.09358  0.35278  1.0000
  N   N10       1.0  0.42049  0.23104  0.47633  1.0000
  H   H391      1.0  0.30107  0.31401  0.35036  1.0000
  H   H392      1.0  0.99893  0.07611  0.24359  1.0000
  H   H393      1.0  0.39404  0.12406  0.47634  1.0000
  H   H394      1.0  0.14644  0.28445  0.37130  1.0000
  C   C230      1.0  0.36141  0.25294  0.38820  1.0000
  C   C231      1.0  0.00022  0.16319  0.32148  1.0000
  H   H395      1.0  0.23039  0.25340  0.42959  1.0000
  C   C232      1.0  0.03078  0.11043  0.29208  1.0000
  H   H396      1.0  0.20191  0.28688  0.39694  1.0000
  C   C233      1.0  0.35922  0.24129  0.40669  1.0000
  H   H397      1.0  0.13928  0.03893  0.26947  1.0000
  C   C234      1.0  0.32607  0.11394  0.43415  1.0000
  C   C235      1.0  0.31315  0.30992  0.33802  1.0000
  H   H398      1.0  0.36527  0.30430  0.31884  1.0000
  H   H399      1.0  0.04565  0.05484  0.32481  1.0000
  H   H400      1.0  0.19173  0.27878  0.37203  1.0000
  H   H401      1.0  0.35544  0.24647  0.45981  1.0000
  C   C236      1.0  0.17083  0.27190  0.35061  1.0000
  H   H402      1.0  0.43683  0.26420  0.35888  1.0000
  C   C237      1.0  0.24812  0.27847  0.38486  1.0000
  H   H403      1.0  0.18646  0.26208  0.34935  1.0000
  N   N11       1.0  0.31019  0.25207  0.34979  1.0000
  C   C238      1.0  0.31313  0.24673  0.36984  1.0000
  C   C239      1.0  0.30481  0.27509  0.34355  1.0000
  C   C240      1.0  0.29208  0.24382  0.34999  1.0000
  C   C241      1.0  0.32850  0.24291  0.33611  1.0000
  C   C242      1.0  0.35002  0.24092  0.33952  1.0000
  C   C243      1.0  0.31485  0.22387  0.37994  1.0000
  C   C244      1.0  0.28393  0.25090  0.33151  1.0000
  C   C245      1.0  0.32159  0.28684  0.34151  1.0000
  C   C246      1.0  0.36669  0.23736  0.32194  1.0000
  C   C247      1.0  0.31993  0.21973  0.39925  1.0000
  C   C248      1.0  0.27087  0.23683  0.33066  1.0000
  H   H404      1.0  0.30001  0.25546  0.37880  1.0000
  H   H405      1.0  0.32684  0.25142  0.37063  1.0000
  H   H406      1.0  0.30104  0.27972  0.32939  1.0000
  H   H407      1.0  0.29075  0.28134  0.35343  1.0000
  H   H408      1.0  0.27904  0.24778  0.36173  1.0000
  H   H409      1.0  0.29597  0.22684  0.35301  1.0000
  H   H410      1.0  0.32780  0.22712  0.33597  1.0000
  H   H411      1.0  0.32814  0.25180  0.32142  1.0000
  H   H412      1.0  0.35321  0.22775  0.35135  1.0000
  H   H413      1.0  0.35154  0.25463  0.34316  1.0000
  H   H414      1.0  0.30019  0.21908  0.38238  1.0000
  H   H415      1.0  0.32701  0.21415  0.37137  1.0000
  H   H416      1.0  0.29660  0.25119  0.31877  1.0000
  H   H417      1.0  0.27416  0.26653  0.33083  1.0000
  H   H418      1.0  0.32804  0.28245  0.35427  1.0000
  H   H419      1.0  0.33411  0.28392  0.32910  1.0000
  H   H420      1.0  0.11191  0.12285  0.40905  1.0000
  H   H421      1.0  0.36604  0.22347  0.31778  1.0000
  H   H422      1.0  0.36489  0.25075  0.30997  1.0000
  H   H423      1.0  0.31909  0.20373  0.40684  1.0000
  H   H424      1.0  0.33572  0.22158  0.39736  1.0000
  H   H425      1.0  0.30911  0.23030  0.40797  1.0000
  H   H426      1.0  0.25851  0.23510  0.34361  1.0000
  H   H427      1.0  0.26374  0.24334  0.31823  1.0000
  H   H428      1.0  0.28056  0.22155  0.32922  1.0000
  N   N12       1.0  0.31361  0.13130  0.32876  1.0000
  C   C249      1.0  0.30692  0.11700  0.32099  1.0000
  C   C250      1.0  0.29518  0.14729  0.33477  1.0000
  C   C251      1.0  0.32979  0.14084  0.31362  1.0000
  C   C252      1.0  0.32263  0.12013  0.34577  1.0000
  C   C253      1.0  0.30999  0.10578  0.36143  1.0000
  C   C254      1.0  0.32365  0.09843  0.31560  1.0000
  C   C255      1.0  0.33640  0.15828  0.31810  1.0000
  C   C256      1.0  0.28455  0.16151  0.31886  1.0000
  C   C257      1.0  0.26711  0.17790  0.32653  1.0000
  C   C258      1.0  0.32093  0.09548  0.37772  1.0000
  C   C259      1.0  0.31462  0.08395  0.30979  1.0000
  C   C260      1.0  0.35364  0.16584  0.30230  1.0000
  H   H429      1.0  0.30146  0.12530  0.30783  1.0000
  H   H430      1.0  0.29348  0.11136  0.33102  1.0000
  H   H431      1.0  0.28320  0.13998  0.34556  1.0000
  H   H432      1.0  0.29925  0.15706  0.34196  1.0000
  H   H433      1.0  0.32488  0.14676  0.29992  1.0000
  H   H434      1.0  0.34399  0.12901  0.31073  1.0000
  H   H435      1.0  0.33815  0.11097  0.34143  1.0000
  H   H436      1.0  0.32501  0.13124  0.35269  1.0000
  H   H437      1.0  0.30781  0.09343  0.35599  1.0000
  H   H438      1.0  0.29468  0.11437  0.36726  1.0000
  H   H439      1.0  0.33571  0.10366  0.30341  1.0000
  H   H440      1.0  0.33100  0.08945  0.32747  1.0000
  H   H441      1.0  0.34211  0.15299  0.33134  1.0000
  H   H442      1.0  0.32346  0.17158  0.31957  1.0000
  H   H443      1.0  0.29542  0.16944  0.30730  1.0000
  H   H444      1.0  0.27780  0.15268  0.31285  1.0000
  H   H445      1.0  0.25573  0.17079  0.33829  1.0000
  H   H446      1.0  0.27317  0.18801  0.33174  1.0000
  H   H447      1.0  0.25921  0.18743  0.31512  1.0000
  H   H448      1.0  0.31139  0.08573  0.38899  1.0000
  H   H449      1.0  0.33590  0.08569  0.37268  1.0000
  H   H450      1.0  0.32354  0.10708  0.38389  1.0000
  H   H451      1.0  0.30289  0.07768  0.32173  1.0000
  H   H452      1.0  0.30763  0.09202  0.29744  1.0000
  H   H453      1.0  0.32697  0.07097  0.30575  1.0000
  H   H454      1.0  0.35784  0.17850  0.30573  1.0000
  H   H455      1.0  0.36743  0.15334  0.30083  1.0000
  H   H456      1.0  0.34873  0.17163  0.28863  1.0000
  H   H457      1.0  0.17144  0.28676  0.34034  1.0000
  H   H458      1.0  0.35311  0.26862  0.38542  1.0000
  C   C261      1.0  0.19213  0.19706  0.46885  1.0000
  H   H459      1.0  0.41407  0.25520  0.36286  1.0000
  C   C262      1.0  0.33529  0.18052  0.45687  1.0000
  C   C263      1.0  0.39909  0.29198  0.33530  1.0000
  C   C264      1.0  0.40271  0.24825  0.48104  1.0000
  C   C265      1.0  0.09175  0.01131  0.32926  1.0000
  H   H460      1.0  0.38886  0.30625  0.36803  1.0000
  C   C266      1.0  0.02029  0.09667  0.33124  1.0000
  C   C267      1.0  0.23637  0.31496  0.46815  1.0000
  H   H461      1.0  0.49255  0.00380  0.33431  1.0000
  H   H462      1.0  0.45303  0.28941  0.32693  1.0000
  S   S52       1.0  0.22055  0.24111  0.37203  1.0000
  C   C268      1.0  0.23070  0.25239  0.38467  1.0000
  C   C269      1.0  0.28168  0.23356  0.46544  1.0000
  C   C270      1.0  0.21749  0.20680  0.48698  1.0000
  C   C271      1.0  0.17540  0.28647  0.37616  1.0000
  H   H463      1.0  0.30300  0.11542  0.45958  1.0000
  H   H464      1.0  0.14674  0.31427  0.38909  1.0000
  H   H465      1.0  0.43389  0.30617  0.31436  1.0000
  H   H466      1.0  0.35855  0.00933  0.25705  1.0000
  C   C272      1.0  0.46009  0.22404  0.46510  1.0000
  C   C273      1.0  0.13272  0.01189  0.25244  1.0000
  C   C274      1.0  0.11021  0.00458  0.31721  1.0000
  S   S53       1.0  0.34295  0.25165  0.42547  1.0000
  N   N13       1.0  0.12018  0.10165  0.39057  1.0000
  C   C275      1.0  0.11854  0.08330  0.40679  1.0000
  C   C276      1.0  0.12455  0.11838  0.39716  1.0000
  C   C277      1.0  0.09951  0.10948  0.38535  1.0000
  C   C278      1.0  0.13618  0.09666  0.37336  1.0000
  C   C279      1.0  0.15530  0.07956  0.37660  1.0000
  C   C280      1.0  0.40566  0.28301  0.38661  1.0000
  C   C281      1.0  0.09723  0.12946  0.36986  1.0000
  C   C282      1.0  0.14514  0.11382  0.40322  1.0000
  C   C283      1.0  0.17143  0.07899  0.35814  1.0000
  H   H467      1.0  0.38958  0.28030  0.33894  1.0000
  H   H468      1.0  0.48543  0.05452  0.25663  1.0000
  H   H469      1.0  0.10810  0.08811  0.41969  1.0000
  N   N14       1.0  0.12341  0.03451  0.25061  1.0000
  H   H470      1.0  0.12507  0.13241  0.38570  1.0000
  C   C284      1.0  0.30378  0.12032  0.44415  1.0000
  H   H471      1.0  0.08721  0.11204  0.39809  1.0000
  H   H472      1.0  0.09578  0.09786  0.37994  1.0000
  H   H473      1.0  0.12944  0.09207  0.36379  1.0000
  H   H474      1.0  0.14175  0.11063  0.36489  1.0000
  H   H475      1.0  0.15111  0.06436  0.38175  1.0000
  H   H476      1.0  0.29466  0.11177  0.44037  1.0000
  H   H477      1.0  0.10473  0.00247  0.25186  1.0000
  H   H478      1.0  0.10982  0.12825  0.35718  1.0000
  H   H479      1.0  0.23521  0.21588  0.45893  1.0000
  H   H480      1.0  0.14756  0.09916  0.41365  1.0000
  H   H481      1.0  0.18470  0.06627  0.36057  1.0000
  H   H482      1.0  0.27170  0.13157  0.47599  1.0000
  H   H483      1.0  0.16144  0.12759  0.41554  1.0000
  N   N15       1.0  0.41150  0.28763  0.35008  1.0000
  C   C285      1.0  0.03623  0.02831  0.27530  1.0000
  H   H484      1.0  0.07589  0.14830  0.35255  1.0000
  H   H485      1.0  0.38264  0.03935  0.34642  1.0000
  H   H486      1.0  0.20488  0.29933  0.46613  1.0000
  C   C286      1.0  0.43159  0.25631  0.33482  1.0000
  C   C287      1.0  0.44673  0.23597  0.33863  1.0000
  H   H487      1.0  0.35305  0.32416  0.46907  1.0000
  H   H488      1.0  0.41717  0.29186  0.38555  1.0000
  H   H489      1.0  0.40904  0.29044  0.32127  1.0000
  H   H490      1.0  0.25760  0.25355  0.45175  1.0000
  H   H491      1.0  0.41856  0.25319  0.33098  1.0000
  H   H492      1.0  0.43926  0.26650  0.32241  1.0000
  H   H493      1.0  0.46067  0.23833  0.34148  1.0000
  H   H494      1.0  0.43961  0.22511  0.35093  1.0000
  C   C288      1.0  0.34377  0.24884  0.47285  1.0000
  H   H495      1.0  0.07337  0.03602  0.34250  1.0000
  C   C289      1.0  0.12105  0.11373  0.23985  1.0000
  H   H496      1.0  0.14373  0.14577  0.40250  1.0000
  H   H497      1.0  0.05285  0.12344  0.29740  1.0000
  C   C290      1.0  0.27537  0.14699  0.46951  1.0000
  Fe  Fe27      1.0  0.32171  0.28151  0.41767  1.0000
  H   H498      1.0  0.27016  0.22834  0.47813  1.0000
  H   H499      1.0  0.30975  0.22073  0.44764  1.0000
  Fe  Fe28      1.0  0.08315  0.11275  0.32119  1.0000
  N   N16       1.0  0.31344  0.20738  0.47646  1.0000
  H   H500      1.0  0.16165  0.25982  0.38012  1.0000
  H   H501      1.0  0.32675  0.18742  0.44543  1.0000
  C   C291      1.0  0.07706  0.13395  0.36362  1.0000
  H   H502      1.0  0.18344  0.30014  0.41335  1.0000
  H   H503      1.0  0.09719  0.14282  0.37522  1.0000
  H   H504      1.0  0.10455  0.06570  0.27343  1.0000
  H   H505      1.0  0.18761  0.26726  0.43081  1.0000
  C   C292      1.0  0.03645  0.10709  0.32323  1.0000
  H   H506      1.0  0.25387  0.27241  0.47671  1.0000
  H   H507      1.0  0.15346  0.24285  0.44309  1.0000
  H   H508      1.0  0.03203  0.18299  0.31801  1.0000
  H   H509      1.0  0.30671  0.31535  0.32515  1.0000
  S   S54       1.0  0.29151  0.28675  0.43777  1.0000
  H   H510      1.0  0.18654  0.25673  0.40323  1.0000
  H   H511      1.0  0.38198  0.23517  0.32494  1.0000
  H   H512      1.0  0.14966  0.31006  0.41248  1.0000
  N   N17       1.0  0.17055  0.28818  0.39655  1.0000
  H   H513      1.0  0.03010  0.05392  0.30970  1.0000
  C   C293      1.0  0.39663  0.29004  0.36861  1.0000
  C   C294      1.0  0.11044  0.06619  0.40333  1.0000
  H   H514      1.0  0.28281  0.18170  0.44532  1.0000
  H   H515      1.0  0.45130  0.22899  0.32610  1.0000
  H   H516      1.0  0.07635  0.12139  0.35756  1.0000
  H   H517      1.0  0.00252  0.03416  0.32282  1.0000
  H   H518      1.0  0.22328  0.14589  0.43410  1.0000
  H   H519      1.0  0.38427  0.28169  0.37112  1.0000
  H   H520      1.0  0.35140  0.15007  0.46832  1.0000
  H   H521      1.0  0.31699  0.25089  0.46328  1.0000
  H   H522      1.0  0.47171  0.07334  0.31437  1.0000
  C   C295      1.0  0.03639  0.04769  0.24143  1.0000
  H   H523      1.0  0.49262  0.22328  0.45459  1.0000
  H   H524      1.0  0.34954  0.18651  0.45281  1.0000
  H   H525      1.0  0.38423  0.22216  0.47469  1.0000
  H   H526      1.0  0.13146  0.28224  0.42414  1.0000
  S   S55       1.0  0.30828  0.29063  0.39205  1.0000
  H   H527      1.0  0.43436  0.29896  0.35645  1.0000
  C   C296      1.0  0.09444  0.06008  0.26780  1.0000
  C   C297      1.0  0.10374  0.03776  0.26535  1.0000
  H   H528      1.0  0.37263  0.29191  0.45826  1.0000
  H   H529      1.0  0.03485  0.11597  0.27695  1.0000
  C   C298      1.0  0.01038  0.02394  0.33409  1.0000
  C   C299      1.0  0.17400  0.05038  0.24900  1.0000
  H   H530      1.0  0.44794  0.09429  0.28284  1.0000
  C   C300      1.0  0.37879  0.28169  0.47050  1.0000
  H   H531      1.0  0.46040  0.21455  0.45535  1.0000
  C   C301      1.0  0.17246  0.26561  0.42993  1.0000
  H   H532      1.0  0.03107  0.02790  0.34980  1.0000
  H   H533      1.0  0.16788  0.06707  0.24796  1.0000
  H   H534      1.0  0.26872  0.17514  0.47989  1.0000
  H   H535      1.0  0.05322  0.02425  0.27236  1.0000
  H   H536      1.0  0.46281  0.21374  0.47870  1.0000
  H   H537      1.0  0.18051  0.23244  0.43640  1.0000
  H   H538      1.0  0.43855  0.25009  0.45392  1.0000
  H   H539      1.0  0.03088  0.03472  0.23994  1.0000
  H   H540      1.0  0.28621  0.24662  0.46762  1.0000
  C   C302      1.0  0.22196  0.20978  0.46726  1.0000
  H   H541      1.0  0.22618  0.12466  0.45406  1.0000
  C   C303      1.0  0.16044  0.04113  0.24224  1.0000
  H   H542      1.0  0.40051  0.19731  0.47849  1.0000
  H   H543      1.0  0.17474  0.04293  0.26394  1.0000
  H   H544      1.0  0.00328  0.17488  0.34495  1.0000
  C   C304      1.0  0.37403  0.31641  0.31615  1.0000
  H   H545      1.0  0.11114  0.99545  0.27439  1.0000
  H   H546      1.0  0.14246  0.00651  0.26311  1.0000
  C   C305      1.0  0.38441  0.31322  0.33244  1.0000
  H   H547      1.0  0.47894  0.24412  0.46606  1.0000
  H   H548      1.0  0.13271  0.06127  0.25218  1.0000
  C   C306      1.0  0.00452  0.00197  0.36688  1.0000
  C   C307      1.0  0.48428  0.06054  0.24165  1.0000
  S   S56       1.0  0.07388  0.99558  0.34025  1.0000
  H   H549      1.0  0.46418  0.32103  0.30934  1.0000
  Fe  Fe29      1.0  0.31238  0.32203  0.39129  1.0000
  C   C308      1.0  0.18967  0.31833  0.38510  1.0000
  S   S57       1.0  0.00411  0.09278  0.28465  1.0000
  H   H550      1.0  0.24613  0.16855  0.47856  1.0000
  H   H551      1.0  0.05335  0.04278  0.23828  1.0000
  S   S58       1.0  0.39549  0.05057  0.25355  1.0000
  H   H552      1.0  0.16745  0.02466  0.24311  1.0000
  H   H553      1.0  0.09790  0.29967  0.41714  1.0000
  H   H554      1.0  0.27171  0.29531  0.48073  1.0000
  H   H555      1.0  0.10933  0.31670  0.39660  1.0000
  H   H556      1.0  0.35054  0.24112  0.48535  1.0000
  H   H557      1.0  0.38524  0.29077  0.47656  1.0000
  H   H558      1.0  0.33914  0.26550  0.47252  1.0000
  C   C309      1.0  0.19854  0.26121  0.47240  1.0000
  H   H559      1.0  0.22618  0.32102  0.44178  1.0000
  C   C310      1.0  0.20825  0.26929  0.48396  1.0000
  N   N18       1.0  0.22774  0.29720  0.48170  1.0000
  H   H560      1.0  0.06428  0.06970  0.23861  1.0000
  H   H561      1.0  0.14323  0.00908  0.23884  1.0000
  C   C311      1.0  0.33703  0.32487  0.47567  1.0000
  H   H562      1.0  0.39271  0.32577  0.32915  1.0000
  C   C312      1.0  0.10722  0.13254  0.23784  1.0000
  C   C313      1.0  0.40853  0.31073  0.65520  1.0000
  H   H563      1.0  0.01637  0.03924  0.60067  1.0000
  C   C314      1.0  0.05600  0.01970  0.72304  1.0000
  H   H564      1.0  0.12040  0.99460  0.66612  1.0000
  C   C315      1.0  0.47219  0.03666  0.64180  1.0000
  H   H565      1.0  0.04809  0.01039  0.63652  1.0000
  C   C316      1.0  0.02090  0.10995  0.71816  1.0000
  C   C317      1.0  0.23323  0.28257  0.57606  1.0000
  S   S59       1.0  0.36797  0.17266  0.49874  1.0000
  Fe  Fe30      1.0  0.35760  0.14713  0.52183  1.0000
  S   S60       1.0  0.32607  0.30736  0.59452  1.0000
  S   S61       1.0  0.32813  0.13924  0.52233  1.0000
  Fe  Fe31      1.0  0.39368  0.14010  0.53892  1.0000
  S   S62       1.0  0.40741  0.16506  0.51736  1.0000
  S   S63       1.0  0.40769  0.12047  0.56299  1.0000
  Fe  Fe32      1.0  0.37517  0.18298  0.52120  1.0000
  S   S64       1.0  0.36667  0.21687  0.51847  1.0000
  H   H566      1.0  0.40652  0.25705  0.48943  1.0000
  H   H567      1.0  0.45629  0.23950  0.56039  1.0000
  S   S65       1.0  0.36203  0.15933  0.54467  1.0000
  S   S66       1.0  0.38838  0.12597  0.51773  1.0000
  Fe  Fe33      1.0  0.22308  0.21612  0.52773  1.0000
  S   S67       1.0  0.19698  0.24071  0.53745  1.0000
  S   S68       1.0  0.23446  0.21195  0.49768  1.0000
  Fe  Fe34      1.0  0.23653  0.20355  0.56508  1.0000
  S   S69       1.0  0.21183  0.22712  0.57785  1.0000
  S   S70       1.0  0.25994  0.18298  0.58111  1.0000
  Fe  Fe35      1.0  0.19177  0.21712  0.56475  1.0000
  S   S71       1.0  0.16097  0.21165  0.58286  1.0000
  Fe  Fe36      1.0  0.21938  0.24831  0.54971  1.0000
  C   C318      1.0  0.03828  0.02242  0.62774  1.0000
  S   S72       1.0  0.21617  0.19192  0.55394  1.0000
  S   S73       1.0  0.24573  0.22546  0.53800  1.0000
  Fe  Fe37      1.0  0.09912  0.10826  0.67538  1.0000
  S   S74       1.0  0.12906  0.08872  0.66411  1.0000
  S   S75       1.0  0.08706  0.11862  0.70278  1.0000
  Fe  Fe38      1.0  0.08086  0.11056  0.64294  1.0000
  S   S76       1.0  0.10885  0.09108  0.62849  1.0000
  S   S77       1.0  0.05226  0.12672  0.63233  1.0000
  Fe  Fe39      1.0  0.10975  0.07146  0.65752  1.0000
  S   S78       1.0  0.11822  0.03695  0.66374  1.0000
  Fe  Fe40      1.0  0.12613  0.10974  0.63591  1.0000
  S   S79       1.0  0.15321  0.11894  0.61344  1.0000
  S   S80       1.0  0.08015  0.08915  0.67119  1.0000
  S   S81       1.0  0.09799  0.13092  0.64786  1.0000
  H   H568      1.0  0.44259  0.19151  0.52322  1.0000
  C   C319      1.0  0.03476  0.11102  0.63698  1.0000
  C   C320      1.0  0.01547  0.11942  0.63265  1.0000
  C   C321      1.0  0.06906  0.00118  0.67077  1.0000
  S   S82       1.0  0.36158  0.31596  0.55569  1.0000
  C   C322      1.0  0.02623  0.07756  0.64771  1.0000
  C   C323      1.0  0.04008  0.09011  0.64464  1.0000
  H   H569      1.0  0.48044  0.03812  0.72485  1.0000
  C   C324      1.0  0.18741  0.19446  0.48859  1.0000
  H   H570      1.0  0.03042  0.06135  0.65349  1.0000
  H   H571      1.0  0.05500  0.08351  0.64782  1.0000
  C   C325      1.0  0.10504  0.11544  0.71619  1.0000
  C   C326      1.0  0.03805  0.15988  0.67125  1.0000
  H   H572      1.0  0.45520  0.01281  0.64667  1.0000
  H   H573      1.0  0.38963  0.20320  0.61305  1.0000
  H   H574      1.0  0.41538  0.19804  0.53293  1.0000
  C   C327      1.0  0.12604  0.11229  0.70822  1.0000
  S   S83       1.0  0.36648  0.25753  0.58283  1.0000
  H   H575      1.0  0.17455  0.30751  0.52321  1.0000
  H   H576      1.0  0.13151  0.11192  0.69340  1.0000
  C   C328      1.0  0.30080  0.20816  0.49615  1.0000
  H   H577      1.0  0.03082  0.08109  0.70819  1.0000
  C   C329      1.0  0.99559  0.11030  0.70105  1.0000
  C   C330      1.0  0.20004  0.19938  0.49767  1.0000
  H   H578      1.0  0.45422  0.15434  0.55130  1.0000
  H   H579      1.0  0.32387  0.23952  0.61218  1.0000
  H   H580      1.0  0.19645  0.19712  0.51291  1.0000
  C   C331      1.0  0.15794  0.18608  0.59079  1.0000
  C   C332      1.0  0.16920  0.17131  0.58041  1.0000
  C   C333      1.0  0.16724  0.15085  0.58733  1.0000
  C   C334      1.0  0.15382  0.14504  0.60457  1.0000
  C   C335      1.0  0.14222  0.15985  0.61482  1.0000
  C   C336      1.0  0.14417  0.18036  0.60785  1.0000
  H   H581      1.0  0.17942  0.17566  0.56702  1.0000
  H   H582      1.0  0.17636  0.13946  0.57940  1.0000
  H   H583      1.0  0.13199  0.15549  0.62823  1.0000
  H   H584      1.0  0.13533  0.19175  0.61590  1.0000
  C   C337      1.0  0.37106  0.22703  0.53546  1.0000
  C   C338      1.0  0.36954  0.24813  0.53182  1.0000
  C   C339      1.0  0.37493  0.22408  0.56717  1.0000
  C   C340      1.0  0.37472  0.21483  0.55284  1.0000
  H   H585      1.0  0.36704  0.25764  0.51830  1.0000
  H   H586      1.0  0.37671  0.21484  0.58096  1.0000
  H   H587      1.0  0.37638  0.19843  0.55551  1.0000
  C   C341      1.0  0.30844  0.14824  0.54027  1.0000
  C   C342      1.0  0.31239  0.14858  0.55739  1.0000
  C   C343      1.0  0.29708  0.15833  0.57050  1.0000
  C   C344      1.0  0.27786  0.16779  0.56643  1.0000
  C   C345      1.0  0.27354  0.16630  0.54988  1.0000
  C   C346      1.0  0.28885  0.15663  0.53679  1.0000
  H   H588      1.0  0.32729  0.14147  0.56044  1.0000
  H   H589      1.0  0.30038  0.15916  0.58343  1.0000
  H   H590      1.0  0.25883  0.17368  0.54654  1.0000
  H   H591      1.0  0.28592  0.15680  0.52345  1.0000
  Fe  Fe41      1.0  0.34840  0.28925  0.57424  1.0000
  C   C347      1.0  0.07853  0.03349  0.66752  1.0000
  C   C348      1.0  0.09909  0.02354  0.66616  1.0000
  H   H592      1.0  0.07415  0.04976  0.66683  1.0000
  H   H593      1.0  0.40153  0.30425  0.64724  1.0000
  C   C349      1.0  0.41943  0.15763  0.59838  1.0000
  C   C350      1.0  0.42109  0.13651  0.60481  1.0000
  C   C351      1.0  0.41633  0.12531  0.59436  1.0000
  C   C352      1.0  0.41035  0.13514  0.57729  1.0000
  C   C353      1.0  0.40782  0.15641  0.57127  1.0000
  C   C354      1.0  0.41226  0.16769  0.58189  1.0000
  H   H594      1.0  0.42622  0.12877  0.61775  1.0000
  H   H595      1.0  0.41791  0.10892  0.59918  1.0000
  H   H596      1.0  0.40292  0.16409  0.55823  1.0000
  H   H597      1.0  0.41085  0.18407  0.57697  1.0000
  H   H598      1.0  0.46116  0.14910  0.58185  1.0000
  C   C355      1.0  0.46447  0.09193  0.69409  1.0000
  C   C356      1.0  0.46811  0.08994  0.71183  1.0000
  H   H599      1.0  0.49112  0.08353  0.56698  1.0000
  H   H600      1.0  0.25433  0.30014  0.50223  1.0000
  Fe  Fe42      1.0  0.46571  0.10959  0.65036  1.0000
  H   H601      1.0  0.46016  0.10701  0.68572  1.0000
  H   H602      1.0  0.28890  0.19879  0.49993  1.0000
  C   C357      1.0  0.05280  0.03352  0.61074  1.0000
  H   H603      1.0  0.07382  0.18134  0.56607  1.0000
  H   H604      1.0  0.28560  0.20056  0.53438  1.0000
  C   C358      1.0  0.08761  0.14944  0.59415  1.0000
  C   C359      1.0  0.08954  0.12005  0.58119  1.0000
  C   C360      1.0  0.09672  0.16737  0.59445  1.0000
  C   C361      1.0  0.06645  0.12282  0.58214  1.0000
  C   C362      1.0  0.05984  0.10223  0.58917  1.0000
  C   C363      1.0  0.08232  0.18042  0.60805  1.0000
  H   H605      1.0  0.08887  0.13808  0.60768  1.0000
  H   H606      1.0  0.07094  0.15507  0.59512  1.0000
  H   H607      1.0  0.09297  0.10958  0.59457  1.0000
  H   H608      1.0  0.12284  0.12368  0.59152  1.0000
  H   H609      1.0  0.11120  0.16111  0.59940  1.0000
  H   H610      1.0  0.05669  0.13278  0.59180  1.0000
  H   H611      1.0  0.21704  0.15867  0.63611  1.0000
  S   S84       1.0  0.47750  0.16314  0.62648  1.0000
  H   H612      1.0  0.42238  0.14604  0.73090  1.0000
  H   H613      1.0  0.47225  0.10674  0.53563  1.0000
  H   H614      1.0  0.08986  0.19231  0.60876  1.0000
  H   H615      1.0  0.06795  0.18812  0.60310  1.0000
  H   H616      1.0  0.07855  0.17081  0.62248  1.0000
  H   H617      1.0  0.39456  0.19461  0.63653  1.0000
  C   C364      1.0  0.36977  0.25731  0.54604  1.0000
  C   C365      1.0  0.12029  0.13266  0.57733  1.0000
  H   H618      1.0  0.00121  0.04150  0.62318  1.0000
  H   H619      1.0  0.44047  0.12675  0.51481  1.0000
  N   N19       1.0  0.47738  0.12641  0.55102  1.0000
  H   H620      1.0  0.46149  0.30205  0.64209  1.0000
  Fe  Fe43      1.0  0.30461  0.31187  0.57561  1.0000
  C   C366      1.0  0.17785  0.03708  0.66417  1.0000
  C   C367      1.0  0.15624  0.11814  0.56047  1.0000
  H   H621      1.0  0.11887  0.03882  0.70281  1.0000
  C   C368      1.0  0.31297  0.20096  0.51209  1.0000
  H   H622      1.0  0.05639  0.06428  0.72737  1.0000
  H   H623      1.0  0.31124  0.26917  0.62702  1.0000
  H   H624      1.0  0.42630  0.20205  0.62757  1.0000
  C   C369      1.0  0.39620  0.29241  0.61118  1.0000
  H   H625      1.0  0.22152  0.31001  0.50632  1.0000
  C   C370      1.0  0.47571  0.05308  0.71633  1.0000
  C   C371      1.0  0.07425  0.16928  0.55885  1.0000
  H   H626      1.0  0.23842  0.28673  0.60156  1.0000
  H   H627      1.0  0.31556  0.26248  0.59570  1.0000
  H   H628      1.0  0.13819  0.16565  0.72314  1.0000
  H   H629      1.0  0.07823  0.04850  0.60522  1.0000
  C   C372      1.0  0.15723  0.02655  0.72793  1.0000
  C   C373      1.0  0.47482  0.09023  0.57224  1.0000
  C   C374      1.0  0.29962  0.20670  0.53033  1.0000
  H   H630      1.0  0.29197  0.22379  0.49701  1.0000
  C   C375      1.0  0.42250  0.21493  0.49417  1.0000
  H   H631      1.0  0.00923  0.15122  0.70871  1.0000
  C   C376      1.0  0.19736  0.17889  0.61750  1.0000
  H   H632      1.0  0.16080  0.05831  0.71306  1.0000
  H   H633      1.0  0.33654  0.20166  0.56703  1.0000
  H   H634      1.0  0.33519  0.22047  0.59081  1.0000
  C   C377      1.0  0.47251  0.15501  0.56936  1.0000
  H   H635      1.0  0.10021  0.17739  0.58023  1.0000
  H   H636      1.0  0.09740  0.11149  0.56984  1.0000
  C   C378      1.0  0.32998  0.19579  0.58209  1.0000
  H   H637      1.0  0.30806  0.20025  0.54189  1.0000
  H   H638      1.0  0.05382  0.03133  0.70993  1.0000
  H   H639      1.0  0.24743  0.14084  0.50609  1.0000
  H   H640      1.0  0.44006  0.03853  0.64381  1.0000
  H   H641      1.0  0.09625  0.14388  0.54845  1.0000
  C   C379      1.0  0.02456  0.12654  0.68379  1.0000
  H   H642      1.0  0.31839  0.18416  0.51497  1.0000
  C   C380      1.0  0.46583  0.12230  0.53860  1.0000
  C   C381      1.0  0.04148  0.13786  0.68278  1.0000
  H   H643      1.0  0.28944  0.22992  0.61767  1.0000
  H   H644      1.0  0.22988  0.16875  0.61313  1.0000
  C   C382      1.0  0.13707  0.00405  0.72446  1.0000
  C   C383      1.0  0.46532  0.13743  0.51915  1.0000
  H   H645      1.0  0.03236  0.11202  0.67902  1.0000
  H   H646      1.0  0.19796  0.18458  0.60213  1.0000
  C   C384      1.0  0.30020  0.26161  0.62477  1.0000
  C   C385      1.0  0.04513  0.07808  0.73094  1.0000
  C   C386      1.0  0.26081  0.29742  0.57714  1.0000
  S   S85       1.0  0.42792  0.17126  0.60997  1.0000
  H   H647      1.0  0.46650  0.10351  0.71689  1.0000
  C   C387      1.0  0.12654  0.04077  0.71318  1.0000
  H   H648      1.0  0.45415  0.14144  0.49383  1.0000
  H   H649      1.0  0.02329  0.16907  0.67750  1.0000
  C   C388      1.0  0.10454  0.00239  0.66712  1.0000
  H   H650      1.0  0.15620  0.10775  0.71329  1.0000
  N   N20       1.0  0.21814  0.14227  0.61509  1.0000
  C   C389      1.0  0.23640  0.12690  0.62101  1.0000
  C   C390      1.0  0.22040  0.14696  0.59394  1.0000
  C   C391      1.0  0.19926  0.13345  0.62442  1.0000
  C   C392      1.0  0.19263  0.13043  0.64626  1.0000
  C   C393      1.0  0.22460  0.12828  0.58493  1.0000
  C   C394      1.0  0.25765  0.13205  0.61063  1.0000
  C   C395      1.0  0.27496  0.11501  0.61716  1.0000
  C   C396      1.0  0.17330  0.12156  0.65392  1.0000
  C   C397      1.0  0.22745  0.13494  0.56345  1.0000
  H   H651      1.0  0.23538  0.12509  0.63634  1.0000
  H   H652      1.0  0.23645  0.11145  0.61939  1.0000
  H   H653      1.0  0.23257  0.15585  0.58661  1.0000
  H   H654      1.0  0.20627  0.15718  0.59001  1.0000
  H   H655      1.0  0.18606  0.14308  0.61842  1.0000
  H   H656      1.0  0.20135  0.11824  0.62121  1.0000
  H   H657      1.0  0.18915  0.14516  0.65068  1.0000
  H   H658      1.0  0.20479  0.11970  0.65311  1.0000
  H   H659      1.0  0.21156  0.12036  0.59033  1.0000
  H   H660      1.0  0.23867  0.11713  0.58796  1.0000
  H   H661      1.0  0.26025  0.13398  0.59512  1.0000
  H   H662      1.0  0.25911  0.14630  0.61357  1.0000
  H   H663      1.0  0.27467  0.10044  0.61396  1.0000
  H   H664      1.0  0.28991  0.11920  0.60953  1.0000
  H   H665      1.0  0.27363  0.11280  0.63257  1.0000
  H   H666      1.0  0.17582  0.10662  0.65006  1.0000
  H   H667      1.0  0.16903  0.11917  0.66958  1.0000
  H   H668      1.0  0.16032  0.13224  0.64814  1.0000
  H   H669      1.0  0.21351  0.14571  0.55954  1.0000
  H   H670      1.0  0.24077  0.14245  0.55721  1.0000
  H   H671      1.0  0.23031  0.12136  0.55733  1.0000
  H   H672      1.0  0.06830  0.09185  0.57942  1.0000
  H   H673      1.0  0.03901  0.00841  0.59494  1.0000
  H   H674      1.0  0.31573  0.25331  0.52123  1.0000
  H   H675      1.0  0.32496  0.24754  0.56887  1.0000
  S   S86       1.0  0.32606  0.29178  0.55697  1.0000
  C   C398      1.0  0.31028  0.25089  0.60831  1.0000
  H   H676      1.0  0.03819  0.16005  0.65644  1.0000
  N   N21       1.0  0.30348  0.22954  0.58823  1.0000
  C   C399      1.0  0.28717  0.21932  0.58754  1.0000
  H   H677      1.0  0.41828  0.29797  0.66338  1.0000
  C   C400      1.0  0.30939  0.24507  0.57025  1.0000
  C   C401      1.0  0.30905  0.24051  0.55142  1.0000
  C   C402      1.0  0.26621  0.23361  0.58501  1.0000
  C   C403      1.0  0.31446  0.25781  0.53459  1.0000
  C   C404      1.0  0.24957  0.23157  0.60321  1.0000
  H   H678      1.0  0.28470  0.20681  0.60035  1.0000
  H   H679      1.0  0.29233  0.21127  0.57568  1.0000
  Fe  Fe44      1.0  0.39916  0.15279  0.49654  1.0000
  H   H680      1.0  0.02114  0.04270  0.70958  1.0000
  H   H681      1.0  0.05032  0.09580  0.70280  1.0000
  H   H682      1.0  0.29900  0.26033  0.57081  1.0000
  C   C405      1.0  0.26742  0.30007  0.55752  1.0000
  H   H683      1.0  0.29352  0.23921  0.55151  1.0000
  H   H684      1.0  0.26744  0.24981  0.57940  1.0000
  H   H685      1.0  0.26089  0.22941  0.57423  1.0000
  H   H686      1.0  0.30247  0.27197  0.53546  1.0000
  H   H687      1.0  0.23489  0.24164  0.60045  1.0000
  H   H688      1.0  0.24730  0.21557  0.60813  1.0000
  H   H689      1.0  0.25350  0.23607  0.61455  1.0000
  H   H690      1.0  0.40800  0.20942  0.50048  1.0000
  H   H691      1.0  0.18510  0.05023  0.65604  1.0000
  H   H692      1.0  0.00969  0.10457  0.73116  1.0000
  H   H693      1.0  0.00988  0.02058  0.66101  1.0000
  C   C406      1.0  0.00712  0.08583  0.64304  1.0000
  H   H694      1.0  0.18979  0.02278  0.66424  1.0000
  H   H695      1.0  0.10704  0.16203  0.55271  1.0000
  H   H696      1.0  0.16075  0.11106  0.57424  1.0000
  C   C407      1.0  0.00044  0.01279  0.65680  1.0000
  C   C408      1.0  0.06805  0.04053  0.61753  1.0000
  H   H697      1.0  0.47918  0.18507  0.55484  1.0000
  Fe  Fe45      1.0  0.33755  0.31975  0.53958  1.0000
  C   C409      1.0  0.21644  0.16182  0.62096  1.0000
  H   H698      1.0  0.12681  0.00227  0.71623  1.0000
  H   H699      1.0  0.45684  0.02971  0.62342  1.0000
  H   H700      1.0  0.41503  0.10118  0.69737  1.0000
  N   N22       1.0  0.02347  0.01310  0.62305  1.0000
  C   C410      1.0  0.45586  0.12975  0.50705  1.0000
  H   H701      1.0  0.26584  0.26461  0.51879  1.0000
  H   H702      1.0  0.18289  0.17348  0.62427  1.0000
  C   C411      1.0  0.19382  0.31973  0.49641  1.0000
  C   C412      1.0  0.03711  0.09090  0.71353  1.0000
  H   H703      1.0  0.06184  0.02338  0.60095  1.0000
  C   C413      1.0  0.16784  0.03985  0.68433  1.0000
  C   C414      1.0  0.47079  0.14886  0.55161  1.0000
  C   C415      1.0  0.00838  0.03033  0.61399  1.0000
  H   H704      1.0  0.45178  0.08480  0.59836  1.0000
  C   C416      1.0  0.13996  0.10995  0.71945  1.0000
  H   H705      1.0  0.16008  0.13352  0.55507  1.0000
  H   H706      1.0  0.31855  0.20581  0.60826  1.0000
  H   H707      1.0  0.31789  0.18768  0.58309  1.0000
  C   C417      1.0  0.47175  0.05509  0.69852  1.0000
  C   C418      1.0  0.01317  0.00078  0.64135  1.0000
  S   S87       1.0  0.47366  0.16192  0.68016  1.0000
  C   C419      1.0  0.45508  0.02886  0.63870  1.0000
  C   C420      1.0  0.09782  0.06489  0.73023  1.0000
  H   H708      1.0  0.19611  0.27351  0.49616  1.0000
  C   C421      1.0  0.15794  0.02155  0.69621  1.0000
  H   H709      1.0  0.01614  0.13529  0.67251  1.0000
  H   H710      1.0  0.47712  0.08218  0.60177  1.0000
  C   C422      1.0  0.25778  0.15162  0.50293  1.0000
  H   H711      1.0  0.02847  0.11941  0.72268  1.0000
  C   C423      1.0  0.07752  0.00655  0.71889  1.0000
  H   H712      1.0  0.44956  0.12241  0.54613  1.0000
  H   H713      1.0  0.41738  0.21453  0.59806  1.0000
  Fe  Fe46      1.0  0.45103  0.15071  0.62631  1.0000
  H   H714      1.0  0.16616  0.03653  0.65692  1.0000
  C   C424      1.0  0.27490  0.27090  0.50475  1.0000
  S   S88       1.0  0.27322  0.30555  0.59031  1.0000
  H   H715      1.0  0.07882  0.99746  0.70845  1.0000
  H   H716      1.0  0.22017  0.25657  0.48933  1.0000
  H   H717      1.0  0.41474  0.23410  0.51506  1.0000
  C   C425      1.0  0.26143  0.28844  0.49365  1.0000
  H   H718      1.0  0.17100  0.00828  0.69734  1.0000
  H   H719      1.0  0.46862  0.18211  0.57992  1.0000
  H   H720      1.0  0.44174  0.22755  0.50518  1.0000
  H   H721      1.0  0.05269  0.08716  0.73593  1.0000
  H   H722      1.0  0.38733  0.08645  0.72297  1.0000
  H   H723      1.0  0.01647  0.02116  0.70474  1.0000
  H   H724      1.0  0.23947  0.26916  0.50042  1.0000
  C   C426      1.0  0.42734  0.22180  0.51009  1.0000
  H   H725      1.0  0.07197  0.16276  0.73273  1.0000
  H   H726      1.0  0.07770  0.02720  0.62531  1.0000
  H   H727      1.0  0.45974  0.13634  0.72600  1.0000
  H   H728      1.0  0.43726  0.25168  0.58953  1.0000
  H   H729      1.0  0.41212  0.29426  0.60902  1.0000
  C   C427      1.0  0.47340  0.07060  0.72308  1.0000
  H   H730      1.0  0.45658  0.99766  0.71125  1.0000
  H   H731      1.0  0.04400  0.04733  0.60273  1.0000
  H   H732      1.0  0.13072  0.10383  0.56748  1.0000
  C   C428      1.0  0.09466  0.15315  0.55889  1.0000
  H   H733      1.0  0.39801  0.11923  0.71089  1.0000
  H   H734      1.0  0.48770  0.14890  0.57287  1.0000
  H   H735      1.0  0.04319  0.10463  0.59001  1.0000
  H   H736      1.0  0.38863  0.30481  0.60090  1.0000
  H   H737      1.0  0.35283  0.16736  0.58234  1.0000
  C   C429      1.0  0.45327  0.00409  0.72397  1.0000
  H   H738      1.0  0.45585  0.15266  0.52107  1.0000
  S   S89       1.0  0.49376  0.11816  0.65239  1.0000
  H   H739      1.0  0.36790  0.27373  0.54323  1.0000
  H   H740      1.0  0.32929  0.26111  0.53416  1.0000
  C   C430      1.0  0.24370  0.28866  0.58639  1.0000
  H   H741      1.0  0.48083  0.13947  0.51104  1.0000
  C   C431      1.0  0.23965  0.28548  0.55639  1.0000
  H   H742      1.0  0.28735  0.27663  0.50686  1.0000
  H   H743      1.0  0.32009  0.22629  0.54888  1.0000
  H   H744      1.0  0.41957  0.06357  0.71253  1.0000
  H   H745      1.0  0.05640  0.12967  0.67570  1.0000
  C   C432      1.0  0.13339  0.11969  0.56270  1.0000
  H   H746      1.0  0.46904  0.03636  0.65713  1.0000
  H   H747      1.0  0.17335  0.01812  0.72437  1.0000
  H   H748      1.0  0.28656  0.27349  0.62166  1.0000
  H   H749      1.0  0.29551  0.25039  0.63796  1.0000
  C   C433      1.0  0.32194  0.21336  0.59295  1.0000
  S   S90       1.0  0.47021  0.12124  0.61903  1.0000
  H   H750      1.0  0.35973  0.18635  0.59002  1.0000
  H   H751      1.0  0.38760  0.29405  0.62566  1.0000
  H   H752      1.0  0.45219  0.18482  0.56429  1.0000
  H   H753      1.0  0.09180  0.07057  0.71712  1.0000
  C   C434      1.0  0.03567  0.99922  0.60966  1.0000
  H   H754      1.0  0.47188  0.31070  0.65678  1.0000
  H   H755      1.0  0.47131  0.05276  0.63383  1.0000
  H   H756      1.0  0.25049  0.16330  0.51165  1.0000
  H   H757      1.0  0.17405  0.18846  0.49690  1.0000
  H   H758      1.0  0.49358  0.01919  0.62233  1.0000
  C   C435      1.0  0.40767  0.25380  0.62128  1.0000
  H   H759      1.0  0.32640  0.20806  0.50862  1.0000
  H   H760      1.0  0.04336  0.13797  0.69682  1.0000
  C   C436      1.0  0.43468  0.02180  0.72364  1.0000
  H   H761      1.0  0.06329  0.12946  0.56780  1.0000
  C   C437      1.0  0.37138  0.24544  0.56401  1.0000
  H   H762      1.0  0.05063  0.16705  0.67099  1.0000
  H   H763      1.0  0.06070  0.16251  0.56618  1.0000
  H   H764      1.0  0.12716  0.14626  0.57433  1.0000
  C   C438      1.0  0.41727  0.06705  0.72660  1.0000
  C   C439      1.0  0.47215  0.31147  0.64190  1.0000
  H   H765      1.0  0.28173  0.25861  0.49683  1.0000
  N   N23       1.0  0.40846  0.23251  0.61943  1.0000
  C   C440      1.0  0.38716  0.22826  0.62672  1.0000
  H   H766      1.0  0.28044  0.30705  0.55023  1.0000
  C   C441      1.0  0.42322  0.21747  0.63061  1.0000
  C   C442      1.0  0.41681  0.21510  0.65237  1.0000
  C   C443      1.0  0.38506  0.20639  0.62742  1.0000
  C   C444      1.0  0.39604  0.27167  0.60805  1.0000
  C   C445      1.0  0.40998  0.10494  0.71158  1.0000
  C   C446      1.0  0.43306  0.19949  0.66195  1.0000
  C   C447      1.0  0.36288  0.20397  0.63525  1.0000
  H   H767      1.0  0.37679  0.23880  0.61774  1.0000
  H   H768      1.0  0.38039  0.23162  0.64102  1.0000
  N   N24       1.0  0.14489  0.02361  0.71554  1.0000
  H   H769      1.0  0.12969  0.12640  0.54858  1.0000
  H   H770      1.0  0.42929  0.24794  0.56077  1.0000
  H   H771      1.0  0.21063  0.20324  0.61922  1.0000
  H   H772      1.0  0.40227  0.20963  0.65826  1.0000
  H   H773      1.0  0.41492  0.22984  0.65631  1.0000
  N   N25       1.0  0.09762  0.13920  0.57767  1.0000
  H   H774      1.0  0.40306  0.27163  0.59294  1.0000
  H   H775      1.0  0.37979  0.27070  0.61078  1.0000
  H   H776      1.0  0.17997  0.04098  0.69073  1.0000
  H   H777      1.0  0.18322  0.20948  0.62200  1.0000
  H   H778      1.0  0.37178  0.01774  0.73477  1.0000
  H   H779      1.0  0.44799  0.20434  0.65701  1.0000
  H   H780      1.0  0.42827  0.19792  0.67752  1.0000
  H   H781      1.0  0.43515  0.18425  0.65885  1.0000
  H   H782      1.0  0.35740  0.20649  0.64989  1.0000
  H   H783      1.0  0.35287  0.21499  0.62611  1.0000
  H   H784      1.0  0.36186  0.18823  0.63548  1.0000
  C   C448      1.0  0.00160  0.10682  0.63571  1.0000
  H   H785      1.0  0.06267  0.09483  0.60355  1.0000
  C   C449      1.0  0.01207  0.03053  0.71565  1.0000
  C   C450      1.0  0.46837  0.07931  0.59284  1.0000
  C   C451      1.0  0.46786  0.17822  0.56682  1.0000
  H   H786      1.0  0.43303  0.31757  0.63121  1.0000
  C   C452      1.0  0.47159  0.11355  0.57058  1.0000
  H   H787      1.0  0.39495  0.04270  0.72509  1.0000
  H   H788      1.0  0.47924  0.15813  0.53879  1.0000
  H   H789      1.0  0.08886  0.01653  0.71283  1.0000
  H   H790      1.0  0.14878  0.01835  0.68772  1.0000
  C   C453      1.0  0.46596  0.07461  0.68748  1.0000
  H   H791      1.0  0.13115  0.05568  0.70681  1.0000
  H   H792      1.0  0.44055  0.22093  0.56582  1.0000
  C   C454      1.0  0.34681  0.17958  0.59048  1.0000
  H   H793      1.0  0.44922  0.22494  0.59455  1.0000
  H   H794      1.0  0.42338  0.25636  0.61903  1.0000
  H   H795      1.0  0.46535  0.08694  0.56421  1.0000
  H   H796      1.0  0.01134  0.13561  0.62673  1.0000
  H   H797      1.0  0.26144  0.29729  0.53196  1.0000
  C   C455      1.0  0.99843  0.14252  0.70774  1.0000
  C   C456      1.0  0.19643  0.19713  0.62549  1.0000
  C   C457      1.0  0.41576  0.23052  0.59909  1.0000
  H   H798      1.0  0.40417  0.23959  0.59079  1.0000
  H   H799      1.0  0.43840  0.22184  0.62606  1.0000
  H   H800      1.0  0.43262  0.20949  0.53850  1.0000
  H   H801      1.0  0.34065  0.17240  0.60538  1.0000
  C   C458      1.0  0.06355  0.02229  0.66998  1.0000
  H   H802      1.0  0.19441  0.19263  0.64111  1.0000
  H   H803      1.0  0.04766  0.02999  0.67123  1.0000
  H   H804      1.0  0.15654  0.05448  0.68320  1.0000
  H   H805      1.0  0.20902  0.29000  0.50984  1.0000
  H   H806      1.0  0.16522  0.10844  0.55024  1.0000
  H   H807      1.0  0.29511  0.22356  0.52825  1.0000
  C   C459      1.0  0.25666  0.29442  0.54717  1.0000
  C   C460      1.0  0.29510  0.24059  0.60433  1.0000
  H   H808      1.0  0.07132  0.16859  0.53097  1.0000
  H   H809      1.0  0.05992  0.05128  0.62699  1.0000
  H   H810      1.0  0.21978  0.27624  0.58322  1.0000
  C   C461      1.0  0.44093  0.23613  0.56760  1.0000
  H   H811      1.0  0.08491  0.18751  0.53090  1.0000
  H   H812      1.0  0.43674  0.32329  0.66338  1.0000
  H   H813      1.0  0.27246  0.14298  0.50688  1.0000
  H   H814      1.0  0.00444  0.09739  0.69413  1.0000
  C   C462      1.0  0.42965  0.20406  0.52718  1.0000
  H   H815      1.0  0.47350  0.04165  0.69319  1.0000
  H   H816      1.0  0.47986  0.11547  0.58036  1.0000
  C   C463      1.0  0.07193  0.17985  0.53868  1.0000
  S   S91       1.0  0.22527  0.28024  0.54300  1.0000
  C   C464      1.0  0.15757  0.04894  0.72758  1.0000
  C   C465      1.0  0.43670  0.23624  0.58857  1.0000
  H   H817      1.0  0.28164  0.25305  0.60164  1.0000
  H   H818      1.0  0.40012  0.25560  0.63597  1.0000
  H   H819      1.0  0.05750  0.19162  0.53905  1.0000
  H   H820      1.0  0.45514  0.11903  0.57660  1.0000
  C   C466      1.0  0.21351  0.30358  0.49917  1.0000
  S   S92       1.0  0.44397  0.13810  0.65756  1.0000
  Fe  Fe47      1.0  0.47245  0.14772  0.65719  1.0000
  H   H821      1.0  0.49178  0.16365  0.70940  1.0000
  S   S93       1.0  0.46098  0.07795  0.66521  1.0000
  H   H822      1.0  0.02994  0.03401  0.63636  1.0000
  C   C467      1.0  0.09805  0.11578  0.73538  1.0000
  H   H823      1.0  0.06648  0.19826  0.73124  1.0000
  H   H824      1.0  0.46576  0.11542  0.50317  1.0000
  N   N26       1.0  0.00990  0.12238  0.70269  1.0000
  C   C468      1.0  0.03957  0.00639  0.72956  1.0000
  H   H825      1.0  0.43283  0.16750  0.72978  1.0000
  C   C469      1.0  0.40142  0.08758  0.72647  1.0000
  H   H826      1.0  0.42172  0.01566  0.72318  1.0000
  H   H827      1.0  0.38929  0.24221  0.49044  1.0000
  H   H828      1.0  0.31520  0.24195  0.48839  1.0000
  H   H829      1.0  0.43407  0.20106  0.49099  1.0000
  H   H830      1.0  0.10160  0.18413  0.72655  1.0000
  H   H831      1.0  0.43817  0.03324  0.71033  1.0000
  H   H832      1.0  0.04206  0.99816  0.71811  1.0000
  H   H833      1.0  0.18527  0.31548  0.48817  1.0000
  H   H834      1.0  0.47122  0.06259  0.59386  1.0000
  H   H835      1.0  0.42318  0.10777  0.71533  1.0000
  C   C470      1.0  0.10991  0.04293  0.73154  1.0000
  H   H836      1.0  0.46700  0.00940  0.72389  1.0000
  H   H837      1.0  0.04607  0.15216  0.72229  1.0000
  C   C471      1.0  0.17949  0.32209  0.51550  1.0000
  S   S94       1.0  0.34820  0.32364  0.50797  1.0000
  H   H838      1.0  0.99754  0.01820  0.59562  1.0000
  H   H839      1.0  0.39602  0.31877  0.66510  1.0000
  C   C472      1.0  0.49352  0.02307  0.63570  1.0000
  H   H840      1.0  0.49446  0.00834  0.64646  1.0000
  H   H841      1.0  0.43228  0.06971  0.72673  1.0000
  C   C473      1.0  0.10580  0.16934  0.73637  1.0000
  H   H842      1.0  0.08128  0.99597  0.73208  1.0000
  H   H843      1.0  0.03890  0.22862  0.72558  1.0000
  H   H844      1.0  0.18929  0.04362  0.72976  1.0000
  H   H845      1.0  0.10789  0.07480  0.73025  1.0000
  N   N27       1.0  0.01756  0.01768  0.73395  1.0000
  H   H846      1.0  0.05546  0.02761  0.73413  1.0000
  H   H847      1.0  0.10510  0.15684  0.73023  1.0000
  H   H848      1.0  0.09913  0.03278  0.73383  1.0000
  C   C474      1.0  0.33028  0.32475  0.49502  1.0000
  H   H849      1.0  0.14258  0.05657  0.73509  1.0000
  H   H850      1.0  0.99636  0.99749  0.71850  1.0000
  C   C475      1.0  0.42124  0.32571  0.64142  1.0000
  H   H851      1.0  0.30416  0.32601  0.51839  1.0000
  C   C476      1.0  0.24530  0.28085  0.48806  1.0000
  C   C477      1.0  0.03747  0.14996  0.73725  1.0000
  C   C478      1.0  0.49362  0.30121  0.63284  1.0000
  H   H852      1.0  0.49447  0.30100  0.61796  1.0000
  C   C479      1.0  0.12809  0.16663  0.73728  1.0000
  H   H853      1.0  0.04821  0.01015  0.86706  1.0000
  S   S95       1.0  0.46424  0.03870  0.79588  1.0000
  C   C480      1.0  0.42342  0.06308  0.76528  1.0000
  H   H854      1.0  0.03831  0.07662  0.82447  1.0000
  H   H855      1.0  0.31722  0.20865  0.95268  1.0000
  H   H856      1.0  0.12519  0.22828  0.92383  1.0000
  H   H857      1.0  0.03469  0.04436  0.85379  1.0000
  H   H858      1.0  0.05421  0.03236  0.80376  1.0000
  H   H859      1.0  0.39209  0.06486  0.76413  1.0000
  Fe  Fe48      1.0  0.32128  0.29901  0.93094  1.0000
  S   S96       1.0  0.33480  0.28615  0.90505  1.0000
  S   S97       1.0  0.34177  0.29545  0.95070  1.0000
  H   H860      1.0  0.25408  0.25029  0.94716  1.0000
  C   C481      1.0  0.12620  0.00502  0.81343  1.0000
  H   H861      1.0  0.23129  0.31893  0.86640  1.0000
  Fe  Fe49      1.0  0.30587  0.27470  0.91121  1.0000
  S   S98       1.0  0.31097  0.24187  0.90922  1.0000
  H   H862      1.0  0.22192  0.01691  0.85039  1.0000
  S   S99       1.0  0.29382  0.28494  0.93865  1.0000
  C   C482      1.0  0.07394  0.04500  0.81424  1.0000
  Fe  Fe50      1.0  0.18669  0.17983  0.89683  1.0000
  S   S100      1.0  0.16476  0.20937  0.90101  1.0000
  S   S101      1.0  0.17492  0.15292  0.89509  1.0000
  Fe  Fe51      1.0  0.22298  0.19606  0.89882  1.0000
  S   S102      1.0  0.20378  0.22651  0.90298  1.0000
  S   S103      1.0  0.25707  0.18886  0.89638  1.0000
  Fe  Fe52      1.0  0.18122  0.20845  0.92317  1.0000
  S   S104      1.0  0.16456  0.21794  0.95082  1.0000
  Fe  Fe53      1.0  0.18961  0.22417  0.88058  1.0000
  S   S105      1.0  0.18449  0.24961  0.85559  1.0000
  S   S106      1.0  0.20147  0.17775  0.92065  1.0000
  S   S107      1.0  0.21048  0.19485  0.87478  1.0000
  Fe  Fe54      1.0  0.13077  0.08136  0.82182  1.0000
  S   S108      1.0  0.11317  0.10705  0.83653  1.0000
  Fe  Fe55      1.0  0.13531  0.10904  0.78294  1.0000
  S   S109      1.0  0.11774  0.13705  0.79398  1.0000
  S   S110      1.0  0.15024  0.10838  0.75243  1.0000
  Fe  Fe56      1.0  0.13603  0.12500  0.81661  1.0000
  S   S111      1.0  0.15039  0.14846  0.82131  1.0000
  Fe  Fe57      1.0  0.09626  0.11706  0.81297  1.0000
  S   S112      1.0  0.06171  0.12609  0.81932  1.0000
  S   S113      1.0  0.15529  0.09827  0.80399  1.0000
  S   S114      1.0  0.11216  0.09026  0.79989  1.0000
  C   C483      1.0  0.04936  0.11887  0.80545  1.0000
  C   C484      1.0  0.06063  0.11062  0.78984  1.0000
  C   C485      1.0  0.05065  0.10537  0.77864  1.0000
  C   C486      1.0  0.02930  0.10844  0.78286  1.0000
  H   H863      1.0  0.27895  0.32096  0.82889  1.0000
  C   C487      1.0  0.02793  0.12203  0.80969  1.0000
  H   H864      1.0  0.07702  0.10862  0.78614  1.0000
  H   H865      1.0  0.05952  0.09902  0.76655  1.0000
  H   H866      1.0  0.09085  0.04242  0.81243  1.0000
  H   H867      1.0  0.38227  0.22815  0.98683  1.0000
  C   C488      1.0  0.17956  0.21151  0.96778  1.0000
  C   C489      1.0  0.19756  0.19649  0.96643  1.0000
  H   H868      1.0  0.20235  0.18859  0.95496  1.0000
  C   C490      1.0  0.16617  0.15334  0.87500  1.0000
  C   C491      1.0  0.17143  0.16681  0.85774  1.0000
  C   C492      1.0  0.16573  0.16563  0.84161  1.0000
  C   C493      1.0  0.15459  0.15110  0.84258  1.0000
  C   C494      1.0  0.14867  0.13809  0.85999  1.0000
  C   C495      1.0  0.15460  0.13911  0.87609  1.0000
  H   H869      1.0  0.18032  0.17784  0.85670  1.0000
  H   H870      1.0  0.17038  0.17576  0.82821  1.0000
  H   H871      1.0  0.13995  0.12698  0.86094  1.0000
  H   H872      1.0  0.15038  0.12871  0.88943  1.0000
  C   C496      1.0  0.29515  0.22974  0.90328  1.0000
  C   C497      1.0  0.27409  0.23741  0.90441  1.0000
  C   C498      1.0  0.26194  0.22537  0.90189  1.0000
  C   C499      1.0  0.27103  0.20592  0.89792  1.0000
  C   C500      1.0  0.29215  0.19894  0.89597  1.0000
  C   C501      1.0  0.30405  0.21062  0.89886  1.0000
  H   H873      1.0  0.26715  0.25211  0.90801  1.0000
  H   H874      1.0  0.24561  0.23082  0.90352  1.0000
  H   H875      1.0  0.29930  0.18402  0.89285  1.0000
  H   H876      1.0  0.32026  0.20457  0.89797  1.0000
  H   H877      1.0  0.09402  0.07100  0.85343  1.0000
  S   S115      1.0  0.42676  0.00184  0.80599  1.0000
  C   C502      1.0  0.06746  0.07005  0.84396  1.0000
  C   C503      1.0  0.05777  0.17188  0.77754  1.0000
  H   H878      1.0  0.99739  0.99469  0.81133  1.0000
  C   C504      1.0  0.10240  0.31116  0.81715  1.0000
  N   N28       1.0  0.48211  0.13190  0.75569  1.0000
  H   H879      1.0  0.45203  0.15105  0.76290  1.0000
  H   H880      1.0  0.26351  0.15902  0.94702  1.0000
  H   H881      1.0  0.05318  0.30280  0.87955  1.0000
  H   H882      1.0  0.08189  0.11750  0.74159  1.0000
  H   H883      1.0  0.37769  0.31123  0.88536  1.0000
  H   H884      1.0  0.07447  0.30418  0.88831  1.0000
  H   H885      1.0  0.04390  0.17003  0.81614  1.0000
  H   H886      1.0  0.06816  0.19708  0.78249  1.0000
  C   C505      1.0  0.13559  0.30316  0.87314  1.0000
  C   C506      1.0  0.13853  0.29916  0.85531  1.0000
  C   C507      1.0  0.15379  0.28280  0.84986  1.0000
  C   C508      1.0  0.16559  0.27000  0.86253  1.0000
  C   C509      1.0  0.16267  0.27396  0.88039  1.0000
  C   C510      1.0  0.14811  0.29098  0.88543  1.0000
  C   C511      1.0  0.07225  0.04652  0.84679  1.0000
  H   H887      1.0  0.15623  0.27982  0.83597  1.0000
  H   H888      1.0  0.17184  0.26408  0.89017  1.0000
  H   H889      1.0  0.14625  0.29441  0.89895  1.0000
  H   H890      1.0  0.10640  0.11388  0.76136  1.0000
  C   C512      1.0  0.01789  0.11680  0.79841  1.0000
  H   H891      1.0  0.40192  0.07898  0.78645  1.0000
  H   H892      1.0  0.19870  0.28928  0.85560  1.0000
  H   H893      1.0  0.11467  0.25036  0.90737  1.0000
  H   H894      1.0  0.42844  0.07470  0.78709  1.0000
  H   H895      1.0  0.49210  0.11117  0.78016  1.0000
  H   H896      1.0  0.22785  0.09684  0.88692  1.0000
  C   C513      1.0  0.25417  0.30534  0.84462  1.0000
  H   H897      1.0  0.46630  0.16026  0.74012  1.0000
  C   C514      1.0  0.11134  0.24032  0.92167  1.0000
  H   H898      1.0  0.02234  0.04439  0.74016  1.0000
  C   C515      1.0  0.39296  0.04421  0.73984  1.0000
  H   H899      1.0  0.10743  0.30045  0.82976  1.0000
  H   H900      1.0  0.47408  0.17119  0.76442  1.0000
  C   C516      1.0  0.07714  0.07638  0.85675  1.0000
  Fe  Fe58      1.0  0.45813  0.00881  0.79580  1.0000
  H   H901      1.0  0.28002  0.17514  0.93086  1.0000
  H   H902      1.0  0.04096  0.17682  0.77910  1.0000
  H   H903      1.0  0.99999  0.05810  0.83622  1.0000
  H   H904      1.0  0.17487  0.29242  0.92484  1.0000
  H   H905      1.0  0.18661  0.32323  0.86510  1.0000
  H   H906      1.0  0.05119  0.32595  0.82944  1.0000
  H   H907      1.0  0.46738  0.09543  0.77002  1.0000
  C   C517      1.0  0.46279  0.14594  0.75028  1.0000
  H   H908      1.0  0.28823  0.15752  0.95127  1.0000
  H   H909      1.0  0.09649  0.17782  0.76332  1.0000
  H   H910      1.0  0.13280  0.15233  0.74749  1.0000
  H   H911      1.0  0.47045  0.13043  0.78570  1.0000
  H   H912      1.0  0.06430  0.06103  0.77795  1.0000
  C   C518      1.0  0.03907  0.23105  0.73949  1.0000
  H   H913      1.0  0.27618  0.31517  0.85417  1.0000
  C   C519      1.0  0.26767  0.32025  0.84263  1.0000
  H   H914      1.0  0.44377  0.03609  0.74104  1.0000
  C   C520      1.0  0.05988  0.31292  0.88415  1.0000
  H   H915      1.0  0.37294  0.30360  0.91076  1.0000
  C   C521      1.0  0.46285  0.10536  0.78025  1.0000
  H   H916      1.0  0.24849  0.29666  0.87478  1.0000
  H   H917      1.0  0.28485  0.27154  0.98174  1.0000
  C   C522      1.0  0.04295  0.21056  0.75347  1.0000
  C   C523      1.0  0.48904  0.16133  0.76665  1.0000
  Fe  Fe59      1.0  0.31785  0.31531  0.88989  1.0000
  H   H918      1.0  0.13677  0.04031  0.77271  1.0000
  H   H919      1.0  0.06174  0.31294  0.93527  1.0000
  C   C524      1.0  0.13501  0.03393  0.81949  1.0000
  H   H920      1.0  0.06781  0.14528  0.75501  1.0000
  C   C525      1.0  0.07026  0.03424  0.80034  1.0000
  H   H921      1.0  0.04197  0.21395  0.76727  1.0000
  H   H922      1.0  0.21952  0.25609  0.94212  1.0000
  N   N29       1.0  0.22333  0.29068  0.86705  1.0000
  C   C526      1.0  0.11842  0.30582  0.79975  1.0000
  C   C527      1.0  0.23353  0.26846  0.86691  1.0000
  C   C528      1.0  0.20957  0.29162  0.88634  1.0000
  C   C529      1.0  0.23896  0.30331  0.86401  1.0000
  H   H923      1.0  0.45051  0.08244  0.80356  1.0000
  C   C530      1.0  0.43031  0.15221  0.73833  1.0000
  C   C531      1.0  0.21969  0.28108  0.90361  1.0000
  C   C532      1.0  0.23857  0.26146  0.84800  1.0000
  C   C533      1.0  0.25045  0.23927  0.85002  1.0000
  H   H924      1.0  0.07342  0.31337  0.84731  1.0000
  H   H925      1.0  0.31254  0.20964  0.97715  1.0000
  C   C534      1.0  0.22254  0.29640  0.91333  1.0000
  H   H926      1.0  0.23021  0.32373  0.97691  1.0000
  H   H927      1.0  0.03404  0.19580  0.80429  1.0000
  H   H928      1.0  0.24810  0.26429  0.87186  1.0000
  H   H929      1.0  0.22366  0.25816  0.87705  1.0000
  H   H930      1.0  0.19641  0.28441  0.88833  1.0000
  H   H931      1.0  0.13300  0.07299  0.86605  1.0000
  C   C535      1.0  0.99598  0.99531  0.82620  1.0000
  H   H932      1.0  0.13021  0.17977  0.74167  1.0000
  H   H933      1.0  0.07343  0.07754  0.82916  1.0000
  S   S116      1.0  0.28981  0.30293  0.89386  1.0000
  H   H934      1.0  0.12934  0.30891  0.84557  1.0000
  H   H935      1.0  0.28682  0.23602  0.94810  1.0000
  H   H936      1.0  0.23469  0.27081  0.90012  1.0000
  H   H937      1.0  0.20962  0.27126  0.91406  1.0000
  H   H938      1.0  0.22425  0.26216  0.84382  1.0000
  H   H939      1.0  0.24777  0.27112  0.83638  1.0000
  H   H940      1.0  0.25354  0.23442  0.83648  1.0000
  H   H941      1.0  0.26529  0.23760  0.85374  1.0000
  H   H942      1.0  0.24141  0.22892  0.86119  1.0000
  H   H943      1.0  0.01908  0.12860  0.82166  1.0000
  Fe  Fe60      1.0  0.49431  0.02047  0.80216  1.0000
  N   N30       1.0  0.41174  0.04921  0.74226  1.0000
  H   H944      1.0  0.22975  0.28823  0.92551  1.0000
  C   C536      1.0  0.47762  0.11998  0.77581  1.0000
  H   H945      1.0  0.99797  0.03879  0.75116  1.0000
  N   N31       1.0  0.27382  0.21218  0.96937  1.0000
  C   C537      1.0  0.25187  0.22339  0.97072  1.0000
  H   H946      1.0  0.00619  0.07323  0.84919  1.0000
  C   C538      1.0  0.07523  0.04608  0.77995  1.0000
  C   C539      1.0  0.28002  0.19852  0.95538  1.0000
  C   C540      1.0  0.26515  0.18445  0.95755  1.0000
  C   C541      1.0  0.24625  0.23718  0.95217  1.0000
  H   H947      1.0  0.02324  0.02850  0.79162  1.0000
  N   N32       1.0  0.06878  0.17528  0.75701  1.0000
  Fe  Fe61      1.0  0.27991  0.31426  0.92092  1.0000
  C   C542      1.0  0.22321  0.24575  0.95529  1.0000
  H   H948      1.0  0.28152  0.23960  0.97135  1.0000
  H   H949      1.0  0.07101  0.06993  0.87187  1.0000
  H   H950      1.0  0.05075  0.07595  0.84804  1.0000
  C   C543      1.0  0.13286  0.11064  0.73863  1.0000
  C   C544      1.0  0.00420  0.00221  0.74329  1.0000
  C   C545      1.0  0.21001  0.29906  0.85271  1.0000
  H   H951      1.0  0.00155  0.08445  0.82590  1.0000
  H   H952      1.0  0.28209  0.20769  0.94060  1.0000
  H   H953      1.0  0.12744  0.00466  0.73886  1.0000
  C   C546      1.0  0.06449  0.18198  0.79017  1.0000
  H   H954      1.0  0.07397  0.03714  0.77034  1.0000
  H   H955      1.0  0.25049  0.22850  0.94091  1.0000
  H   H956      1.0  0.20759  0.30605  0.91858  1.0000
  H   H957      1.0  0.31600  0.24632  0.96719  1.0000
  C   C547      1.0  0.00829  0.07016  0.83501  1.0000
  H   H958      1.0  0.45933  0.10054  0.81081  1.0000
  C   C548      1.0  0.46256  0.09146  0.79991  1.0000
  C   C549      1.0  0.07063  0.01486  0.83982  1.0000
  H   H959      1.0  0.09888  0.23275  0.92241  1.0000
  H   H960      1.0  0.09111  0.04866  0.77618  1.0000
  H   H961      1.0  0.24160  0.21237  0.97634  1.0000
  H   H962      1.0  0.21786  0.25440  0.96673  1.0000
  C   C550      1.0  0.28736  0.22760  0.96288  1.0000
  H   H963      1.0  0.08037  0.01878  0.80117  1.0000
  C   C551      1.0  0.21725  0.31597  0.97987  1.0000
  H   H964      1.0  0.04905  0.31796  0.89671  1.0000
  H   H965      1.0  0.23553  0.03406  0.83166  1.0000
  H   H966      1.0  0.22132  0.12437  0.88096  1.0000
  C   C552      1.0  0.04092  0.04357  0.83866  1.0000
  H   H967      1.0  0.21481  0.23320  0.95899  1.0000
  H   H968      1.0  0.06589  0.04092  0.86204  1.0000
  H   H969      1.0  0.23268  0.30640  0.90340  1.0000
  Fe  Fe62      1.0  0.48000  0.03893  0.76569  1.0000
  H   H970      1.0  0.14390  0.05668  0.79469  1.0000
  C   C553      1.0  0.11190  0.11343  0.74659  1.0000
  S   S117      1.0  0.47555  0.06930  0.74588  1.0000
  H   H971      1.0  0.31656  0.27965  0.98472  1.0000
  H   H972      1.0  0.18747  0.15523  0.98413  1.0000
  C   C554      1.0  0.13848  0.04255  0.80010  1.0000
  C   C555      1.0  0.06331  0.16151  0.74765  1.0000
  H   H973      1.0  0.07564  0.20565  0.74748  1.0000
  H   H974      1.0  0.03453  0.03136  0.83679  1.0000
  H   H975      1.0  0.23516  0.28562  0.95866  1.0000
  H   H976      1.0  0.34179  0.25518  0.97800  1.0000
  H   H977      1.0  0.00528  0.04719  0.77914  1.0000
  H   H978      1.0  0.42588  0.07750  0.75495  1.0000
  H   H979      1.0  0.08921  0.04108  0.84457  1.0000
  N   N33       1.0  0.11716  0.27735  0.94982  1.0000
  C   C556      1.0  0.12180  0.26400  0.93579  1.0000
  C   C557      1.0  0.13411  0.28894  0.94491  1.0000
  C   C558      1.0  0.11570  0.26391  0.96942  1.0000
  C   C559      1.0  0.09721  0.29263  0.94902  1.0000
  C   C560      1.0  0.09512  0.30591  0.92911  1.0000
  C   C561      1.0  0.10487  0.25273  0.93699  1.0000
  C   C562      1.0  0.07904  0.32516  0.85062  1.0000
  C   C563      1.0  0.15521  0.27609  0.94853  1.0000
  C   C564      1.0  0.17162  0.28892  0.94052  1.0000
  C   C565      1.0  0.19787  0.32147  0.85169  1.0000
  H   H980      1.0  0.03030  0.20286  0.75541  1.0000
  S   S118      1.0  0.11573  0.32288  0.88020  1.0000
  H   H981      1.0  0.13576  0.25198  0.93739  1.0000
  H   H982      1.0  0.12559  0.27296  0.92107  1.0000
  H   H983      1.0  0.13667  0.29674  0.92976  1.0000
  H   H984      1.0  0.12968  0.30162  0.95253  1.0000
  H   H985      1.0  0.15150  0.01953  0.74306  1.0000
  H   H986      1.0  0.36328  0.00685  0.75948  1.0000
  H   H987      1.0  0.08403  0.28486  0.95500  1.0000
  H   H988      1.0  0.09500  0.30353  0.95816  1.0000
  H   H989      1.0  0.09611  0.29642  0.91912  1.0000
  H   H990      1.0  0.25438  0.29357  0.96525  1.0000
  H   H991      1.0  0.10197  0.24186  0.95081  1.0000
  H   H992      1.0  0.09031  0.26360  0.93502  1.0000
  H   H993      1.0  0.36507  0.22092  0.97685  1.0000
  C   C566      1.0  0.04059  0.16522  0.74686  1.0000
  H   H994      1.0  0.15453  0.27030  0.96390  1.0000
  H   H995      1.0  0.16034  0.26282  0.94172  1.0000
  H   H996      1.0  0.16668  0.30354  0.94537  1.0000
  H   H997      1.0  0.18589  0.28026  0.94525  1.0000
  H   H998      1.0  0.26444  0.29029  0.84330  1.0000
  H   H999      1.0  0.01037  0.01084  0.77536  1.0000
  H   H1000     1.0  0.18702  0.30234  0.97312  1.0000
  H   H1001     1.0  0.33863  0.22880  0.95814  1.0000
  H   H1002     1.0  0.44706  0.11432  0.77996  1.0000
  H   H1003     1.0  0.39870  0.01104  0.75296  1.0000
  H   H1004     1.0  0.00135  0.11941  0.80163  1.0000
  C   C567      1.0  0.02044  0.03657  0.77736  1.0000
  H   H1005     1.0  0.11985  0.28957  0.79959  1.0000
  C   C568      1.0  0.42971  0.03134  0.74117  1.0000
  S   S119      1.0  0.13625  0.04771  0.83546  1.0000
  C   C569      1.0  0.13489  0.03302  0.78756  1.0000
  C   C570      1.0  0.24214  0.28464  0.97055  1.0000
  H   H1006     1.0  0.05379  0.19101  0.81717  1.0000
  C   C571      1.0  0.12936  0.01485  0.82611  1.0000
  C   C572      1.0  0.31034  0.21866  0.96299  1.0000
  H   H1007     1.0  0.21909  0.29827  0.83823  1.0000
  H   H1008     1.0  0.24053  0.11083  0.86458  1.0000
  H   H1009     1.0  0.13803  0.08887  0.87882  1.0000
  H   H1010     1.0  0.39490  0.31478  0.89768  1.0000
  H   H1011     1.0  0.48746  0.15374  0.78184  1.0000
  H   H1012     1.0  0.06018  0.15523  0.78400  1.0000
  C   C573      1.0  0.41679  0.06787  0.78494  1.0000
  H   H1013     1.0  0.29531  0.18849  0.95629  1.0000
  C   C574      1.0  0.32240  0.23560  0.95749  1.0000
  N   N34       1.0  0.06405  0.03791  0.83474  1.0000
  H   H1014     1.0  0.05108  0.23970  0.73756  1.0000
  H   H1015     1.0  0.32210  0.24424  0.94278  1.0000
  C   C575      1.0  0.12848  0.01440  0.79420  1.0000
  S   S120      1.0  0.01753  0.10238  0.76788  1.0000
  H   H1016     1.0  0.42773  0.01892  0.75413  1.0000
  H   H1017     1.0  0.06915  0.06177  0.80928  1.0000
  H   H1018     1.0  0.24615  0.31113  0.83278  1.0000
  H   H1019     1.0  0.03055  0.16339  0.76123  1.0000
  N   N35       1.0  0.19925  0.08828  0.84776  1.0000
  C   C576      1.0  0.20824  0.07036  0.83831  1.0000
  C   C577      1.0  0.19439  0.10723  0.83283  1.0000
  C   C578      1.0  0.21455  0.09030  0.85761  1.0000
  C   C579      1.0  0.17981  0.08528  0.86230  1.0000
  C   C580      1.0  0.16273  0.08119  0.85511  1.0000
  C   C581      1.0  0.21086  0.04890  0.85174  1.0000
  C   C582      1.0  0.20909  0.10977  0.86585  1.0000
  C   C583      1.0  0.21292  0.11391  0.81758  1.0000
  C   C584      1.0  0.20602  0.13378  0.80389  1.0000
  C   C585      1.0  0.14495  0.07596  0.87152  1.0000
  C   C586      1.0  0.22019  0.03211  0.84050  1.0000
  C   C587      1.0  0.22581  0.11037  0.87512  1.0000
  H   H1020     1.0  0.22367  0.07173  0.82928  1.0000
  H   H1021     1.0  0.19895  0.07047  0.82836  1.0000
  H   H1022     1.0  0.18382  0.10525  0.82510  1.0000
  H   H1023     1.0  0.18593  0.12029  0.83948  1.0000
  H   H1024     1.0  0.22998  0.08970  0.84801  1.0000
  H   H1025     1.0  0.21659  0.07702  0.86967  1.0000
  H   H1026     1.0  0.18317  0.07278  0.87462  1.0000
  H   H1027     1.0  0.17281  0.09906  0.86833  1.0000
  H   H1028     1.0  0.16830  0.06832  0.84776  1.0000
  H   H1029     1.0  0.15653  0.09504  0.84521  1.0000
  H   H1030     1.0  0.22111  0.04758  0.86115  1.0000
  H   H1031     1.0  0.19594  0.04574  0.86064  1.0000
  H   H1032     1.0  0.19470  0.11015  0.87687  1.0000
  H   H1033     1.0  0.20728  0.12400  0.85475  1.0000
  H   H1034     1.0  0.22420  0.11666  0.82400  1.0000
  H   H1035     1.0  0.22069  0.10210  0.80915  1.0000
  H   H1036     1.0  0.19879  0.14638  0.81154  1.0000
  H   H1037     1.0  0.21940  0.13815  0.79288  1.0000
  H   H1038     1.0  0.19480  0.13188  0.79681  1.0000
  H   H1039     1.0  0.15025  0.06196  0.88181  1.0000
  C   C588      1.0  0.33394  0.31277  0.96576  1.0000
  H   H1040     1.0  0.07410  0.00745  0.86922  1.0000
  H   H1041     1.0  0.03242  0.07322  0.74252  1.0000
  H   H1042     1.0  0.03250  0.04552  0.76997  1.0000
  C   C589      1.0  0.03101  0.06371  0.82631  1.0000
  S   S121      1.0  0.47162  0.01036  0.76499  1.0000
  H   H1043     1.0  0.41540  0.05364  0.79602  1.0000
  H   H1044     1.0  0.12698  0.00792  0.84105  1.0000
  H   H1045     1.0  0.08752  0.01015  0.83534  1.0000
  C   C590      1.0  0.02100  0.02089  0.76635  1.0000
  H   H1046     1.0  0.07349  0.09332  0.85453  1.0000
  C   C591      1.0  0.37864  0.31522  0.89834  1.0000
  H   H1047     1.0  0.42036  0.15379  0.75240  1.0000
  H   H1048     1.0  0.24910  0.26846  0.97588  1.0000
  H   H1049     1.0  0.06409  0.00771  0.83197  1.0000
  H   H1050     1.0  0.43824  0.05193  0.76458  1.0000
  H   H1051     1.0  0.17466  0.31821  0.83898  1.0000
  C   C592      1.0  0.06459  0.00446  0.86103  1.0000
  H   H1052     1.0  0.10733  0.31483  0.92312  1.0000
  C   C593      1.0  0.04798  0.18487  0.80801  1.0000
  H   H1053     1.0  0.17113  0.04045  0.75227  1.0000
  C   C594      1.0  0.07460  0.32112  0.92996  1.0000
  C   C595      1.0  0.40715  0.05415  0.76148  1.0000
  H   H1054     1.0  0.99873  0.01034  0.82612  1.0000
  C   C596      1.0  0.49248  0.11793  0.74205  1.0000
  H   H1055     1.0  0.09495  0.15235  0.76451  1.0000
  C   C597      1.0  0.45075  0.13767  0.74048  1.0000
  C   C598      1.0  0.01445  0.03147  0.74727  1.0000
  H   H1056     1.0  0.11661  0.03850  0.74419  1.0000
  H   H1057     1.0  0.07849  0.17199  0.79470  1.0000
  H   H1058     1.0  0.02398  0.24036  0.74498  1.0000
  H   H1059     1.0  0.03672  0.01144  0.76437  1.0000
  C   C599      1.0  0.06433  0.19739  0.74663  1.0000
  H   H1060     1.0  0.40556  0.04011  0.77284  1.0000
  H   H1061     1.0  0.03229  0.06156  0.81193  1.0000
  H   H1062     1.0  0.44760  0.12246  0.74842  1.0000
  H   H1063     1.0  0.37961  0.05710  0.74185  1.0000
  C   C600      1.0  0.09148  0.16842  0.75635  1.0000
  H   H1064     1.0  0.12270  0.28527  0.98267  1.0000
  H   H1065     1.0  0.20243  0.30772  0.88751  1.0000
  C   C601      1.0  0.27491  0.16805  0.94596  1.0000
  H   H1066     1.0  0.21007  0.03241  0.83127  1.0000
  H   H1067     1.0  0.35466  0.03376  0.75044  1.0000
  H   H1068     1.0  0.10286  0.25587  0.97307  1.0000
  H   H1069     1.0  0.25114  0.19358  0.95255  1.0000
  H   H1070     1.0  0.26047  0.17644  0.97243  1.0000
  H   H1071     1.0  0.39716  0.09201  0.74029  1.0000
  H   H1072     1.0  0.04282  0.13401  0.74462  1.0000
  C   C602      1.0  0.34627  0.31194  0.97794  1.0000
  H   H1073     1.0  0.24738  0.23333  0.98107  1.0000
  H   H1074     1.0  0.12963  0.25146  0.96999  1.0000
  H   H1075     1.0  0.13360  0.30791  0.80011  1.0000
  H   H1076     1.0  0.38176  0.02690  0.76851  1.0000
  H   H1077     1.0  0.15065  0.29969  0.97787  1.0000
  C   C603      1.0  0.36787  0.02062  0.74926  1.0000
  H   H1078     1.0  0.09355  0.31703  0.85522  1.0000
  C   C604      1.0  0.38628  0.02485  0.75372  1.0000
  C   C605      1.0  0.37032  0.23401  0.97836  1.0000
  H   H1079     1.0  0.36041  0.30064  0.97807  1.0000
  C   C606      1.0  0.17343  0.22152  0.98286  1.0000
  C   C607      1.0  0.22603  0.29296  0.98650  1.0000
  H   H1080     1.0  0.22301  0.17958  0.97913  1.0000
  H   H1081     1.0  0.37723  0.24210  0.96404  1.0000
  H   H1082     1.0  0.08778  0.30814  0.81659  1.0000
  S   S122      1.0  0.12279  0.00375  0.77814  1.0000
  H   H1083     1.0  0.47752  0.08059  0.80011  1.0000
  H   H1084     1.0  0.08488  0.06593  0.74261  1.0000
  C   C608      1.0  0.17446  0.31145  0.98206  1.0000
  H   H1085     1.0  0.21354  0.31843  0.96587  1.0000
  C   C609      1.0  0.20931  0.19147  0.98010  1.0000
  H   H1086     1.0  0.48188  0.10939  0.74066  1.0000
  H   H1087     1.0  0.28315  0.29860  0.97849  1.0000
  C   C610      1.0  0.11190  0.27510  0.98566  1.0000
  H   H1088     1.0  0.11385  0.31559  0.78659  1.0000
  H   H1089     1.0  0.03573  0.18064  0.73828  1.0000
  H   H1090     1.0  0.15956  0.23314  0.98396  1.0000
  H   H1091     1.0  0.04335  0.99421  0.74194  1.0000
  H   H1092     1.0  0.17268  0.06568  0.73805  1.0000
  C   C611      1.0  0.17369  0.04961  0.73753  1.0000
  H   H1093     1.0  0.02095  0.15220  0.73764  1.0000
  C   C612      1.0  0.24161  0.34490  0.04563  1.0000
  C   C613      1.0  0.49221  0.59723  0.15714  1.0000
  H   H1094     1.0  0.38146  0.60628  0.10697  1.0000
  Fe  Fe63      1.0  0.40928  0.59835  0.18572  1.0000
  S   S123      1.0  0.43544  0.60496  0.16150  1.0000
  S   S124      1.0  0.39164  0.62311  0.20126  1.0000
  Fe  Fe64      1.0  0.41140  0.55706  0.17839  1.0000
  S   S125      1.0  0.43750  0.56024  0.15320  1.0000
  S   S126      1.0  0.39829  0.52875  0.19121  1.0000
  Fe  Fe65      1.0  0.45051  0.57221  0.17109  1.0000
  Fe  Fe66      1.0  0.42035  0.59269  0.14563  1.0000
  S   S127      1.0  0.41814  0.60922  0.11579  1.0000
  S   S128      1.0  0.42563  0.56676  0.19698  1.0000
  S   S129      1.0  0.39295  0.58831  0.16918  1.0000
  Fe  Fe67      1.0  0.14407  0.40284  0.02464  1.0000
  S   S130      1.0  0.12518  0.39349  0.05386  1.0000
  C   C614      1.0  0.08023  0.42470  0.99828  1.0000
  Fe  Fe68      1.0  0.17833  0.40853  0.03903  1.0000
  C   C615      1.0  0.14691  0.33153  0.05329  1.0000
  S   S131      1.0  0.20799  0.41924  0.02899  1.0000
  Fe  Fe69      1.0  0.13437  0.41861  0.06095  1.0000
  S   S132      1.0  0.11261  0.44053  0.07841  1.0000
  S   S133      1.0  0.15026  0.42994  0.03108  1.0000
  Fe  Fe70      1.0  0.38650  0.40837  0.14039  1.0000
  S   S134      1.0  0.41121  0.39015  0.15583  1.0000
  S   S135      1.0  0.36464  0.39361  0.13358  1.0000
  Fe  Fe71      1.0  0.39196  0.44865  0.14496  1.0000
  S   S136      1.0  0.41650  0.43373  0.16126  1.0000
  S   S137      1.0  0.38278  0.48295  0.13632  1.0000
  Fe  Fe72      1.0  0.42905  0.41460  0.13952  1.0000
  Fe  Fe73      1.0  0.39712  0.41058  0.17650  1.0000
  S   S138      1.0  0.39311  0.39533  0.20759  1.0000
  S   S139      1.0  0.40558  0.43099  0.12195  1.0000
  S   S140      1.0  0.37113  0.42736  0.16226  1.0000
  H   H1095     1.0  0.32213  0.60564  0.15917  1.0000
  S   S141      1.0  0.16311  0.39926  0.06937  1.0000
  H   H1096     1.0  0.40335  0.36392  0.13367  1.0000
  C   C616      1.0  0.40956  0.64934  0.23365  1.0000
  C   C617      1.0  0.21679  0.40471  0.06417  1.0000
  C   C618      1.0  0.25135  0.39241  0.06927  1.0000
  Fe  Fe74      1.0  0.12075  0.47589  0.16019  1.0000
  S   S142      1.0  0.08835  0.47492  0.16287  1.0000
  S   S143      1.0  0.14436  0.45428  0.14390  1.0000
  Fe  Fe75      1.0  0.10898  0.50812  0.18334  1.0000
  S   S144      1.0  0.07528  0.51014  0.18762  1.0000
  S   S145      1.0  0.12129  0.52803  0.19483  1.0000
  S   S146      1.0  0.06405  0.45557  0.21465  1.0000
  H   H1097     1.0  0.47344  0.50812  0.11987  1.0000
  Fe  Fe76      1.0  0.08235  0.50897  0.15713  1.0000
  C   C619      1.0  0.12996  0.37093  0.99725  1.0000
  S   S147      1.0  0.11707  0.47375  0.19118  1.0000
  S   S148      1.0  0.11548  0.51009  0.15191  1.0000
  S   S149      1.0  0.32177  0.37357  0.04753  1.0000
  H   H1098     1.0  0.36934  0.59418  0.09666  1.0000
  S   S150      1.0  0.48342  0.55922  0.17344  1.0000
  H   H1099     1.0  0.10376  0.42166  0.19841  1.0000
  S   S151      1.0  0.15866  0.34399  0.07954  1.0000
  C   C620      1.0  0.34416  0.62659  0.11194  1.0000
  H   H1100     1.0  0.10406  0.59656  0.16540  1.0000
  H   H1101     1.0  0.47876  0.33018  0.06301  1.0000
  H   H1102     1.0  0.45955  0.36565  0.17815  1.0000
  C   C621      1.0  0.03123  0.48540  0.17934  1.0000
  H   H1103     1.0  0.10796  0.57516  0.18408  1.0000
  H   H1104     1.0  0.14352  0.34749  0.04631  1.0000
  H   H1105     1.0  0.44403  0.47422  0.23560  1.0000
  H   H1106     1.0  0.00707  0.58638  0.12783  1.0000
  H   H1107     1.0  0.48312  0.59603  0.23177  1.0000
  H   H1108     1.0  0.15971  0.36929  0.10936  1.0000
  C   C622      1.0  0.03562  0.57444  0.16082  1.0000
  C   C623      1.0  0.04762  0.55564  0.15725  1.0000
  H   H1109     1.0  0.22603  0.35821  0.07765  1.0000
  C   C624      1.0  0.46515  0.62331  0.20450  1.0000
  S   S152      1.0  0.29081  0.34345  0.05286  1.0000
  H   H1110     1.0  0.03790  0.58068  0.17151  1.0000
  H   H1111     1.0  0.05921  0.54748  0.16516  1.0000
  H   H1112     1.0  0.45878  0.41291  0.21906  1.0000
  H   H1113     1.0  0.03478  0.55583  0.23198  1.0000
  C   C625      1.0  0.34042  0.61490  0.17250  1.0000
  Fe  Fe77      1.0  0.31890  0.35147  0.03204  1.0000
  H   H1114     1.0  0.35420  0.63575  0.11355  1.0000
  C   C626      1.0  0.36845  0.38056  0.11543  1.0000
  C   C627      1.0  0.38354  0.38331  0.09882  1.0000
  C   C628      1.0  0.47481  0.40428  0.21541  1.0000
  H   H1115     1.0  0.39370  0.39338  0.09701  1.0000
  H   H1116     1.0  0.28248  0.38146  0.12937  1.0000
  C   C629      1.0  0.12197  0.44460  0.09619  1.0000
  C   C630      1.0  0.11402  0.46280  0.10268  1.0000
  C   C631      1.0  0.12066  0.46584  0.11748  1.0000
  C   C632      1.0  0.13508  0.45054  0.12600  1.0000
  C   C633      1.0  0.14258  0.43215  0.11988  1.0000
  C   C634      1.0  0.13622  0.42927  0.10489  1.0000
  H   H1117     1.0  0.10273  0.47461  0.09623  1.0000
  H   H1118     1.0  0.11476  0.48011  0.12216  1.0000
  H   H1119     1.0  0.15322  0.42010  0.12687  1.0000
  H   H1120     1.0  0.14160  0.41482  0.10070  1.0000
  C   C635      1.0  0.22449  0.40848  0.04461  1.0000
  C   C636      1.0  0.25906  0.39597  0.04973  1.0000
  C   C637      1.0  0.24564  0.40428  0.03741  1.0000
  H   H1121     1.0  0.27538  0.39244  0.04406  1.0000
  H   H1122     1.0  0.25165  0.40717  0.02228  1.0000
  H   H1123     1.0  0.22437  0.39394  0.09161  1.0000
  N   N36       1.0  0.21860  0.33264  0.10034  1.0000
  H   H1124     1.0  0.06833  0.39006  0.16431  1.0000
  H   H1125     1.0  0.12367  0.36956  0.01227  1.0000
  C   C638      1.0  0.11449  0.54378  0.22603  1.0000
  C   C639      1.0  0.99577  0.50798  0.18466  1.0000
  C   C640      1.0  0.40226  0.40584  0.22156  1.0000
  C   C641      1.0  0.40883  0.42432  0.21422  1.0000
  C   C642      1.0  0.09841  0.51548  0.23049  1.0000
  H   H1126     1.0  0.40746  0.43282  0.20016  1.0000
  C   C643      1.0  0.39389  0.51633  0.17578  1.0000
  C   C644      1.0  0.39329  0.52620  0.15703  1.0000
  C   C645      1.0  0.38959  0.51596  0.14503  1.0000
  C   C646      1.0  0.38706  0.49566  0.15160  1.0000
  C   C647      1.0  0.38783  0.48578  0.17032  1.0000
  C   C648      1.0  0.39092  0.49621  0.18245  1.0000
  H   H1127     1.0  0.39563  0.54169  0.15187  1.0000
  H   H1128     1.0  0.38897  0.52358  0.13056  1.0000
  H   H1129     1.0  0.38558  0.47023  0.17558  1.0000
  H   H1130     1.0  0.39108  0.48860  0.19703  1.0000
  H   H1131     1.0  0.46853  0.44141  0.22615  1.0000
  H   H1132     1.0  0.38096  0.34381  0.15791  1.0000
  C   C649      1.0  0.35574  0.35894  0.10262  1.0000
  H   H1133     1.0  0.30994  0.61328  0.11139  1.0000
  C   C650      1.0  0.00760  0.62900  0.21208  1.0000
  C   C651      1.0  0.40028  0.64608  0.22078  1.0000
  H   H1134     1.0  0.45093  0.63816  0.09502  1.0000
  S   S153      1.0  0.37117  0.35158  0.06668  1.0000
  H   H1135     1.0  0.24696  0.35870  0.04531  1.0000
  C   C652      1.0  0.45315  0.38206  0.09091  1.0000
  H   H1136     1.0  0.36153  0.62863  0.08258  1.0000
  H   H1137     1.0  0.22764  0.33200  0.12565  1.0000
  C   C653      1.0  0.11087  0.52888  0.21878  1.0000
  H   H1138     1.0  0.12379  0.62594  0.19940  1.0000
  C   C654      1.0  0.48650  0.62856  0.19983  1.0000
  H   H1139     1.0  0.23578  0.44873  0.03500  1.0000
  H   H1140     1.0  0.09593  0.55589  0.14709  1.0000
  H   H1141     1.0  0.99748  0.50269  0.19953  1.0000
  H   H1142     1.0  0.39136  0.63023  0.14444  1.0000
  C   C655      1.0  0.05042  0.55866  0.22858  1.0000
  H   H1143     1.0  0.49200  0.53642  0.12070  1.0000
  H   H1144     1.0  0.26303  0.33527  0.09078  1.0000
  H   H1145     1.0  0.49461  0.43947  0.22665  1.0000
  H   H1146     1.0  0.20053  0.40823  0.06979  1.0000
  H   H1147     1.0  0.41641  0.34029  0.11166  1.0000
  H   H1148     1.0  0.43613  0.50857  0.15346  1.0000
  H   H1149     1.0  0.03456  0.48583  0.19277  1.0000
  H   H1150     1.0  0.03686  0.37891  0.16552  1.0000
  N   N37       1.0  0.07875  0.41746  0.14737  1.0000
  C   C656      1.0  0.08769  0.41067  0.12887  1.0000
  C   C657      1.0  0.07125  0.44050  0.14375  1.0000
  C   C658      1.0  0.09570  0.41216  0.15796  1.0000
  C   C659      1.0  0.09704  0.38755  0.12998  1.0000
  C   C660      1.0  0.08967  0.41844  0.17736  1.0000
  C   C661      1.0  0.06271  0.45128  0.12569  1.0000
  C   C662      1.0  0.05384  0.47401  0.12532  1.0000
  C   C663      1.0  0.10469  0.38302  0.11017  1.0000
  C   C664      1.0  0.10858  0.41746  0.18440  1.0000
  H   H1151     1.0  0.09989  0.41902  0.12048  1.0000
  H   H1152     1.0  0.07625  0.41494  0.11998  1.0000
  H   H1153     1.0  0.05940  0.44502  0.15609  1.0000
  H   H1154     1.0  0.08402  0.44810  0.14219  1.0000
  H   H1155     1.0  0.10881  0.41919  0.14893  1.0000
  H   H1156     1.0  0.10186  0.39542  0.16119  1.0000
  H   H1157     1.0  0.11046  0.38255  0.13659  1.0000
  H   H1158     1.0  0.08029  0.43412  0.17677  1.0000
  H   H1159     1.0  0.07518  0.45030  0.11285  1.0000
  H   H1160     1.0  0.05065  0.44437  0.12457  1.0000
  H   H1161     1.0  0.04067  0.47606  0.13744  1.0000
  H   H1162     1.0  0.06569  0.48170  0.12592  1.0000
  H   H1163     1.0  0.04849  0.48155  0.11201  1.0000
  H   H1164     1.0  0.11168  0.36649  0.11117  1.0000
  H   H1165     1.0  0.09187  0.38696  0.10284  1.0000
  H   H1166     1.0  0.11651  0.39190  0.10154  1.0000
  H   H1167     1.0  0.11773  0.42847  0.17446  1.0000
  H   H1168     1.0  0.11827  0.40179  0.18588  1.0000
  H   H1169     1.0  0.08553  0.37816  0.13809  1.0000
  H   H1170     1.0  0.33635  0.57824  0.13521  1.0000
  H   H1171     1.0  0.19341  0.33266  0.12493  1.0000
  C   C665      1.0  0.04557  0.47146  0.22830  1.0000
  H   H1172     1.0  0.42223  0.44623  0.21930  1.0000
  C   C666      1.0  0.35299  0.60380  0.14117  1.0000
  H   H1173     1.0  0.38782  0.57601  0.13180  1.0000
  H   H1174     1.0  0.43971  0.62832  0.19125  1.0000
  H   H1175     1.0  0.16470  0.36296  0.13286  1.0000
  H   H1176     1.0  0.35690  0.58771  0.14906  1.0000
  H   H1177     1.0  0.01532  0.52775  0.20037  1.0000
  H   H1178     1.0  0.43272  0.41206  0.08988  1.0000
  S   S154      1.0  0.26799  0.38187  0.08472  1.0000
  C   C667      1.0  0.33450  0.61437  0.15459  1.0000
  N   N38       1.0  0.31087  0.42983  0.10002  1.0000
  C   C668      1.0  0.32037  0.42832  0.07970  1.0000
  C   C669      1.0  0.29011  0.44405  0.10089  1.0000
  C   C670      1.0  0.32430  0.43946  0.10622  1.0000
  C   C671      1.0  0.30920  0.40930  0.11327  1.0000
  C   C672      1.0  0.30534  0.39276  0.10516  1.0000
  C   C673      1.0  0.34325  0.41753  0.07575  1.0000
  C   C674      1.0  0.31636  0.44445  0.12615  1.0000
  C   C675      1.0  0.27386  0.43735  0.09473  1.0000
  C   C676      1.0  0.25458  0.45419  0.09395  1.0000
  C   C677      1.0  0.29771  0.37554  0.12093  1.0000
  C   C678      1.0  0.35008  0.41163  0.05656  1.0000
  C   C679      1.0  0.33266  0.45118  0.13174  1.0000
  H   H1179     1.0  0.31923  0.44389  0.07030  1.0000
  H   H1180     1.0  0.31194  0.42041  0.07443  1.0000
  H   H1181     1.0  0.28295  0.44596  0.11559  1.0000
  H   H1182     1.0  0.29183  0.45958  0.09222  1.0000
  H   H1183     1.0  0.32718  0.45388  0.09587  1.0000
  H   H1184     1.0  0.33960  0.42909  0.10647  1.0000
  H   H1185     1.0  0.32338  0.40223  0.11876  1.0000
  H   H1186     1.0  0.29695  0.41138  0.12614  1.0000
  H   H1187     1.0  0.31965  0.38600  0.09608  1.0000
  H   H1188     1.0  0.29397  0.39901  0.09628  1.0000
  H   H1189     1.0  0.35302  0.42784  0.07570  1.0000
  H   H1190     1.0  0.34609  0.40354  0.08679  1.0000
  H   H1191     1.0  0.31227  0.43087  0.13703  1.0000
  H   H1192     1.0  0.30279  0.45724  0.12643  1.0000
  H   H1193     1.0  0.27953  0.43370  0.08054  1.0000
  H   H1194     1.0  0.26911  0.42380  0.10522  1.0000
  H   H1195     1.0  0.24315  0.44864  0.08998  1.0000
  H   H1196     1.0  0.24778  0.45818  0.10799  1.0000
  H   H1197     1.0  0.25811  0.46806  0.08320  1.0000
  C   C680      1.0  0.45429  0.63348  0.18816  1.0000
  H   H1198     1.0  0.45078  0.65037  0.18628  1.0000
  H   H1199     1.0  0.46095  0.60449  0.11751  1.0000
  H   H1200     1.0  0.34698  0.42521  0.04506  1.0000
  H   H1201     1.0  0.36676  0.40496  0.05380  1.0000
  H   H1202     1.0  0.34202  0.39990  0.05652  1.0000
  H   H1203     1.0  0.32681  0.45440  0.14613  1.0000
  H   H1204     1.0  0.34669  0.43892  0.13191  1.0000
  H   H1205     1.0  0.33672  0.46526  0.12168  1.0000
  N   N39       1.0  0.08066  0.59802  0.19109  1.0000
  H   H1206     1.0  0.06587  0.42674  0.00925  1.0000
  C   C681      1.0  0.07289  0.58369  0.20931  1.0000
  C   C682      1.0  0.09580  0.58614  0.17727  1.0000
  C   C683      1.0  0.08697  0.57329  0.16893  1.0000
  H   H1207     1.0  0.01576  0.39749  0.15734  1.0000
  C   C684      1.0  0.05319  0.57619  0.21124  1.0000
  H   H1208     1.0  0.04582  0.48314  0.16880  1.0000
  C   C685      1.0  0.10268  0.56523  0.15258  1.0000
  C   C686      1.0  0.47770  0.34641  0.12347  1.0000
  H   H1209     1.0  0.47380  0.64507  0.09551  1.0000
  H   H1210     1.0  0.32854  0.63376  0.11863  1.0000
  H   H1211     1.0  0.08500  0.56991  0.21209  1.0000
  C   C687      1.0  0.37384  0.65728  0.12963  1.0000
  H   H1212     1.0  0.44399  0.34966  0.07485  1.0000
  N   N40       1.0  0.47503  0.38165  0.22026  1.0000
  H   H1213     1.0  0.08275  0.55987  0.17995  1.0000
  H   H1214     1.0  0.03477  0.42491  0.14921  1.0000
  H   H1215     1.0  0.43590  0.63784  0.12712  1.0000
  H   H1216     1.0  0.03966  0.58887  0.21317  1.0000
  H   H1217     1.0  0.05341  0.57071  0.19875  1.0000
  C   C688      1.0  0.47768  0.50547  0.14861  1.0000
  H   H1218     1.0  0.02829  0.55290  0.12150  1.0000
  H   H1219     1.0  0.01712  0.50554  0.15738  1.0000
  H   H1220     1.0  0.20759  0.34695  0.07448  1.0000
  H   H1221     1.0  0.23001  0.47376  0.01992  1.0000
  H   H1222     1.0  0.32858  0.63044  0.14794  1.0000
  C   C689      1.0  0.01222  0.63271  0.22760  1.0000
  H   H1223     1.0  0.00121  0.55148  0.17502  1.0000
  H   H1224     1.0  0.41357  0.64986  0.15026  1.0000
  H   H1225     1.0  0.39623  0.37617  0.07119  1.0000
  C   C690      1.0  0.35489  0.36800  0.11739  1.0000
  H   H1226     1.0  0.11659  0.55547  0.15739  1.0000
  H   H1227     1.0  0.02484  0.51825  0.17127  1.0000
  N   N41       1.0  0.18145  0.47387  0.06895  1.0000
  C   C691      1.0  0.18486  0.48998  0.07705  1.0000
  C   C692      1.0  0.19754  0.47076  0.05116  1.0000
  C   C693      1.0  0.16083  0.48172  0.06369  1.0000
  C   C694      1.0  0.18083  0.45388  0.08320  1.0000
  C   C695      1.0  0.19988  0.44416  0.09187  1.0000
  C   C696      1.0  0.16958  0.49422  0.09567  1.0000
  C   C697      1.0  0.15510  0.46905  0.05262  1.0000
  C   C698      1.0  0.21947  0.47295  0.05018  1.0000
  H   H1228     1.0  0.07696  0.63800  0.16516  1.0000
  C   C699      1.0  0.19586  0.42650  0.10874  1.0000
  C   C700      1.0  0.17491  0.51031  0.10274  1.0000
  C   C701      1.0  0.13490  0.48000  0.04665  1.0000
  H   H1229     1.0  0.18438  0.50472  0.06636  1.0000
  H   H1230     1.0  0.20033  0.48608  0.08005  1.0000
  H   H1231     1.0  0.19867  0.45548  0.04841  1.0000
  H   H1232     1.0  0.19297  0.48210  0.03857  1.0000
  H   H1233     1.0  0.15978  0.49768  0.05506  1.0000
  H   H1234     1.0  0.14827  0.48246  0.07653  1.0000
  H   H1235     1.0  0.16720  0.45574  0.09489  1.0000
  H   H1236     1.0  0.17870  0.44217  0.07682  1.0000
  H   H1237     1.0  0.20455  0.45525  0.09704  1.0000
  H   H1238     1.0  0.21277  0.43792  0.08116  1.0000
  H   H1239     1.0  0.15369  0.50007  0.09363  1.0000
  H   H1240     1.0  0.16995  0.48018  0.10710  1.0000
  H   H1241     1.0  0.15322  0.45379  0.06156  1.0000
  H   H1242     1.0  0.16684  0.46675  0.03959  1.0000
  H   H1243     1.0  0.21963  0.48933  0.04835  1.0000
  H   H1244     1.0  0.22507  0.46435  0.06307  1.0000
  H   H1245     1.0  0.45006  0.52360  0.22335  1.0000
  H   H1246     1.0  0.44907  0.40595  0.19172  1.0000
  C   C702      1.0  0.02588  0.46755  0.23638  1.0000
  H   H1247     1.0  0.21030  0.41865  0.11352  1.0000
  H   H1248     1.0  0.18462  0.43239  0.12070  1.0000
  H   H1249     1.0  0.18998  0.41522  0.10487  1.0000
  H   H1250     1.0  0.16369  0.51302  0.11600  1.0000
  H   H1251     1.0  0.19042  0.50496  0.10585  1.0000
  H   H1252     1.0  0.17423  0.52500  0.09208  1.0000
  H   H1253     1.0  0.13039  0.47045  0.03952  1.0000
  H   H1254     1.0  0.12246  0.48274  0.05917  1.0000
  H   H1255     1.0  0.13647  0.49486  0.03664  1.0000
  C   C703      1.0  0.46050  0.37755  0.21074  1.0000
  H   H1256     1.0  0.47249  0.34134  0.09288  1.0000
  C   C704      1.0  0.11746  0.61506  0.21216  1.0000
  H   H1257     1.0  0.49220  0.47589  0.13005  1.0000
  H   H1258     1.0  0.44776  0.39061  0.16673  1.0000
  H   H1259     1.0  0.10525  0.62375  0.22177  1.0000
  H   H1260     1.0  0.25335  0.33615  0.03580  1.0000
  C   C705      1.0  0.48802  0.41134  0.22494  1.0000
  H   H1261     1.0  0.19532  0.33978  0.01663  1.0000
  H   H1262     1.0  0.34582  0.59914  0.18033  1.0000
  C   C706      1.0  0.41703  0.43200  0.22516  1.0000
  C   C707      1.0  0.44942  0.33424  0.08321  1.0000
  C   C708      1.0  0.45893  0.39061  0.19065  1.0000
  C   C709      1.0  0.23026  0.39692  0.07650  1.0000
  H   H1263     1.0  0.05532  0.41241  0.17285  1.0000
  C   C710      1.0  0.46473  0.51277  0.13328  1.0000
  C   C711      1.0  0.38477  0.37374  0.08417  1.0000
  C   C712      1.0  0.06196  0.40665  0.15959  1.0000
  H   H1264     1.0  0.45564  0.41129  0.07151  1.0000
  H   H1265     1.0  0.44450  0.38058  0.21920  1.0000
  H   H1266     1.0  0.43579  0.51032  0.12925  1.0000
  S   S155      1.0  0.17355  0.38205  0.03042  1.0000
  H   H1267     1.0  0.08063  0.40784  0.18815  1.0000
  C   C713      1.0  0.38196  0.57445  0.12008  1.0000
  H   H1268     1.0  0.36623  0.61066  0.13967  1.0000
  H   H1269     1.0  0.35267  0.62373  0.16892  1.0000
  H   H1270     1.0  0.37152  0.56353  0.12582  1.0000
  C   C714      1.0  0.37047  0.36201  0.08581  1.0000
  H   H1271     1.0  0.25015  0.46764  0.03262  1.0000
  Fe  Fe78      1.0  0.15528  0.37491  0.06017  1.0000
  N   N42       1.0  0.44396  0.34832  0.11319  1.0000
  H   H1272     1.0  0.22711  0.34984  0.04059  1.0000
  H   H1273     1.0  0.07852  0.61872  0.15266  1.0000
  C   C715      1.0  0.42547  0.33869  0.12226  1.0000
  Fe  Fe79      1.0  0.29578  0.36267  0.06975  1.0000
  C   C716      1.0  0.44528  0.50414  0.14004  1.0000
  H   H1274     1.0  0.45868  0.63686  0.13362  1.0000
  H   H1275     1.0  0.10337  0.58936  0.21987  1.0000
  H   H1276     1.0  0.46152  0.38519  0.09995  1.0000
  H   H1277     1.0  0.01100  0.56524  0.19886  1.0000
  H   H1278     1.0  0.08037  0.62184  0.20459  1.0000
  H   H1279     1.0  0.33922  0.58499  0.11045  1.0000
  C   C717      1.0  0.04515  0.54793  0.14296  1.0000
  H   H1280     1.0  0.45587  0.43613  0.15068  1.0000
  C   C718      1.0  0.38893  0.63926  0.13076  1.0000
  C   C719      1.0  0.10894  0.59999  0.20662  1.0000
  H   H1281     1.0  0.30303  0.57816  0.11860  1.0000
  C   C720      1.0  0.31235  0.60264  0.12496  1.0000
  H   H1282     1.0  0.48831  0.56199  0.22443  1.0000
  H   H1283     1.0  0.38729  0.55959  0.22660  1.0000
  H   H1284     1.0  0.08910  0.40887  0.00219  1.0000
  H   H1285     1.0  0.01009  0.54947  0.22229  1.0000
  H   H1286     1.0  0.43516  0.40072  0.07023  1.0000
  H   H1287     1.0  0.02388  0.47231  0.18168  1.0000
  C   C721      1.0  0.40042  0.63271  0.11433  1.0000
  H   H1288     1.0  0.23239  0.35356  0.10704  1.0000
  C   C722      1.0  0.37083  0.59568  0.11052  1.0000
  S   S156      1.0  0.03778  0.62641  0.22991  1.0000
  C   C723      1.0  0.44349  0.40277  0.07997  1.0000
  H   H1289     1.0  0.42702  0.37933  0.11371  1.0000
  C   C724      1.0  0.48523  0.34872  0.13985  1.0000
  C   C725      1.0  0.23289  0.33685  0.11002  1.0000
  H   H1290     1.0  0.47683  0.60202  0.15503  1.0000
  H   H1291     1.0  0.09590  0.50368  0.22512  1.0000
  H   H1292     1.0  0.02315  0.39928  0.17782  1.0000
  Fe  Fe80      1.0  0.34161  0.34650  0.06283  1.0000
  C   C726      1.0  0.40278  0.62634  0.21816  1.0000
  H   H1293     1.0  0.44907  0.48719  0.14234  1.0000
  H   H1294     1.0  0.10702  0.57809  0.14086  1.0000
  H   H1295     1.0  0.07346  0.58240  0.16325  1.0000
  H   H1296     1.0  0.02227  0.45382  0.23522  1.0000
  H   H1297     1.0  0.05318  0.62136  0.19301  1.0000
  C   C727      1.0  0.02901  0.39529  0.16373  1.0000
  N   N43       1.0  0.35025  0.60454  0.12178  1.0000
  H   H1298     1.0  0.43657  0.51062  0.20182  1.0000
  Fe  Fe81      1.0  0.08387  0.47583  0.19307  1.0000
  C   C728      1.0  0.48468  0.51090  0.23641  1.0000
  H   H1299     1.0  0.46051  0.49570  0.20662  1.0000
  C   C729      1.0  0.01762  0.50558  0.17196  1.0000
  H   H1300     1.0  0.48001  0.41000  0.20000  1.0000
  H   H1301     1.0  0.42770  0.47995  0.19766  1.0000
  S   S157      1.0  0.00912  0.61054  0.15254  1.0000
  H   H1302     1.0  0.44688  0.36150  0.13506  1.0000
  C   C730      1.0  0.44428  0.49523  0.20832  1.0000
  H   H1303     1.0  0.46420  0.36106  0.21026  1.0000
  H   H1304     1.0  0.31784  0.65471  0.08941  1.0000
  C   C731      1.0  0.41002  0.34762  0.13872  1.0000
  H   H1305     1.0  0.41594  0.52930  0.22102  1.0000
  H   H1306     1.0  0.42623  0.37038  0.09424  1.0000
  H   H1307     1.0  0.48744  0.51826  0.22110  1.0000
  H   H1308     1.0  0.06568  0.49147  0.22492  1.0000
  C   C732      1.0  0.09160  0.61139  0.19585  1.0000
  C   C733      1.0  0.34529  0.63047  0.09045  1.0000
  S   S158      1.0  0.31556  0.33712  0.08620  1.0000
  C   C734      1.0  0.03014  0.55877  0.13266  1.0000
  H   H1309     1.0  0.19567  0.37359  0.09541  1.0000
  S   S159      1.0  0.46329  0.40675  0.12721  1.0000
  H   H1310     1.0  0.46631  0.60656  0.20720  1.0000
  H   H1311     1.0  0.30698  0.61169  0.13600  1.0000
  C   C735      1.0  0.39718  0.64464  0.09666  1.0000
  H   H1312     1.0  0.46411  0.37377  0.08036  1.0000
  H   H1313     1.0  0.29610  0.36353  0.11467  1.0000
  H   H1314     1.0  0.45198  0.46469  0.20238  1.0000
  H   H1315     1.0  0.06941  0.59095  0.22162  1.0000
  H   H1316     1.0  0.28244  0.59548  0.13040  1.0000
  H   H1317     1.0  0.34346  0.36552  0.13036  1.0000
  H   H1318     1.0  0.12178  0.59116  0.19764  1.0000
  H   H1319     1.0  0.46001  0.52970  0.13011  1.0000
  H   H1320     1.0  0.48166  0.33656  0.15259  1.0000
  H   H1321     1.0  0.40606  0.63964  0.08387  1.0000
  C   C736      1.0  0.44374  0.48033  0.19696  1.0000
  C   C737      1.0  0.41135  0.52080  0.23572  1.0000
  H   H1322     1.0  0.29978  0.57670  0.14359  1.0000
  C   C738      1.0  0.45418  0.34787  0.12869  1.0000
  H   H1323     1.0  0.45103  0.48538  0.18194  1.0000
  H   H1324     1.0  0.12453  0.55381  0.21714  1.0000
  C   C739      1.0  0.48401  0.43228  0.15891  1.0000
  C   C740      1.0  0.33522  0.59172  0.12314  1.0000
  C   C741      1.0  0.22202  0.34322  0.07965  1.0000
  H   H1325     1.0  0.18577  0.33913  0.10306  1.0000
  C   C742      1.0  0.46178  0.63651  0.10402  1.0000
  C   C743      1.0  0.43656  0.37003  0.10327  1.0000
  H   H1326     1.0  0.04857  0.40454  0.13695  1.0000
  H   H1327     1.0  0.45548  0.62889  0.21713  1.0000
  C   C744      1.0  0.47157  0.42820  0.14918  1.0000
  C   C745      1.0  0.48694  0.63273  0.23103  1.0000
  C   C746      1.0  0.00203  0.55533  0.21054  1.0000
  H   H1328     1.0  0.26660  0.34441  0.11869  1.0000
  C   C747      1.0  0.48466  0.43466  0.22024  1.0000
  C   C748      1.0  0.02099  0.58550  0.15027  1.0000
  C   C749      1.0  0.04959  0.63962  0.15671  1.0000
  H   H1329     1.0  0.16596  0.38800  0.11803  1.0000
  C   C750      1.0  0.45817  0.33562  0.09957  1.0000
  C   C751      1.0  0.19192  0.36434  0.10997  1.0000
  C   C752      1.0  0.47220  0.61392  0.10867  1.0000
  H   H1330     1.0  0.48438  0.61183  0.11636  1.0000
  C   C753      1.0  0.47943  0.41395  0.13767  1.0000
  H   H1331     1.0  0.05297  0.60330  0.18073  1.0000
  H   H1332     1.0  0.47381  0.39311  0.18144  1.0000
  C   C754      1.0  0.20506  0.32629  0.01089  1.0000
  H   H1333     1.0  0.41731  0.34636  0.15045  1.0000
  S   S160      1.0  0.13582  0.40889  0.99644  1.0000
  H   H1334     1.0  0.01943  0.62192  0.20181  1.0000
  H   H1335     1.0  0.06148  0.54447  0.22569  1.0000
  H   H1336     1.0  0.09874  0.62141  0.18284  1.0000
  H   H1337     1.0  0.33828  0.61957  0.08730  1.0000
  H   H1338     1.0  0.46915  0.51339  0.16038  1.0000
  H   H1339     1.0  0.47755  0.48910  0.15478  1.0000
  C   C755      1.0  0.04362  0.40892  0.15084  1.0000
  S   S161      1.0  0.06086  0.52497  0.13760  1.0000
  C   C756      1.0  0.44950  0.38048  0.18060  1.0000
  H   H1340     1.0  0.39545  0.56202  0.09474  1.0000
  H   H1341     1.0  0.20050  0.36757  0.11885  1.0000
  H   H1342     1.0  0.43422  0.37790  0.18903  1.0000
  C   C757      1.0  0.19702  0.34121  0.10997  1.0000
  H   H1343     1.0  0.32692  0.62245  0.18192  1.0000
  C   C758      1.0  0.23473  0.46532  0.03338  1.0000
  C   C759      1.0  0.29863  0.58723  0.12967  1.0000
  H   H1344     1.0  0.47746  0.44276  0.16833  1.0000
  H   H1345     1.0  0.22107  0.32855  0.00740  1.0000
  C   C760      1.0  0.23852  0.33151  0.06563  1.0000
  H   H1346     1.0  0.47930  0.60837  0.09539  1.0000
  H   H1347     1.0  0.08936  0.43566  0.99815  1.0000
  C   C761      1.0  0.40044  0.56537  0.10614  1.0000
  H   H1348     1.0  0.41105  0.57611  0.09977  1.0000
  C   C762      1.0  0.25591  0.32689  0.10480  1.0000
  H   H1349     1.0  0.40891  0.55089  0.11365  1.0000
  C   C763      1.0  0.26722  0.32819  0.11902  1.0000
  H   H1350     1.0  0.47195  0.48720  0.23375  1.0000
  H   H1351     1.0  0.39144  0.65893  0.21258  1.0000
  C   C764      1.0  0.06307  0.61199  0.18284  1.0000
  C   C765      1.0  0.16915  0.37150  0.11808  1.0000
  H   H1352     1.0  0.34491  0.34962  0.10421  1.0000
  H   H1353     1.0  0.25339  0.32637  0.06978  1.0000
  H   H1354     1.0  0.30862  0.36849  0.13038  1.0000
  C   C766      1.0  0.06879  0.62704  0.16372  1.0000
  S   S162      1.0  0.31712  0.36084  0.00130  1.0000
  C   C767      1.0  0.39236  0.33633  0.14695  1.0000
  C   C768      1.0  0.01802  0.57756  0.13634  1.0000
  H   H1355     1.0  0.38456  0.33685  0.13576  1.0000
  H   H1356     1.0  0.48619  0.54063  0.14387  1.0000
  C   C769      1.0  0.41414  0.60970  0.22889  1.0000
  C   C770      1.0  0.05024  0.48906  0.22999  1.0000
  H   H1357     1.0  0.48245  0.35821  0.11093  1.0000
  H   H1358     1.0  0.03914  0.64823  0.16732  1.0000
  C   C771      1.0  0.44994  0.64426  0.12230  1.0000
  H   H1359     1.0  0.12149  0.34364  0.99622  1.0000
  C   C772      1.0  0.32272  0.34110  0.98912  1.0000
  H   H1360     1.0  0.12989  0.60654  0.21971  1.0000
  C   C773      1.0  0.33448  0.65227  0.08290  1.0000
  H   H1361     1.0  0.21233  0.36202  0.99029  1.0000
  H   H1362     1.0  0.04133  0.62947  0.15399  1.0000
  H   H1363     1.0  0.41977  0.48380  0.23002  1.0000
  H   H1364     1.0  0.99823  0.53693  0.15202  1.0000
  H   H1365     1.0  0.41601  0.59440  0.22698  1.0000
  H   H1366     1.0  0.17712  0.35435  0.99238  1.0000
  C   C774      1.0  0.99977  0.53725  0.20412  1.0000
  H   H1367     1.0  0.48417  0.64551  0.19517  1.0000
  H   H1368     1.0  0.46387  0.62924  0.17482  1.0000
  C   C775      1.0  0.43402  0.48856  0.22952  1.0000
  H   H1369     1.0  0.48835  0.44067  0.20470  1.0000
  H   H1370     1.0  0.33648  0.65507  0.06733  1.0000
  H   H1371     1.0  0.48577  0.33117  0.12040  1.0000
  H   H1372     1.0  0.47797  0.36389  0.14336  1.0000
  H   H1373     1.0  0.05389  0.65070  0.14330  1.0000
  H   H1374     1.0  0.48161  0.64924  0.22505  1.0000
  H   H1375     1.0  0.48799  0.64994  0.11909  1.0000
  H   H1376     1.0  0.39872  0.51401  0.23531  1.0000
  H   H1377     1.0  0.45186  0.33434  0.14050  1.0000
  H   H1378     1.0  0.43652  0.32613  0.08871  1.0000
  C   C776      1.0  0.12868  0.35631  0.98814  1.0000
  H   H1379     1.0  0.48112  0.52130  0.30898  1.0000
  S   S163      1.0  0.45657  0.56050  0.31863  1.0000
  Fe  Fe82      1.0  0.04217  0.61079  0.25923  1.0000
  Fe  Fe83      1.0  0.44174  0.60865  0.28121  1.0000
  S   S164      1.0  0.41966  0.58827  0.29719  1.0000
  C   C777      1.0  0.09019  0.61359  0.32055  1.0000
  Fe  Fe84      1.0  0.43143  0.58808  0.32214  1.0000
  S   S165      1.0  0.41186  0.59217  0.35071  1.0000
  Fe  Fe85      1.0  0.44681  0.56271  0.29216  1.0000
  S   S166      1.0  0.44979  0.53475  0.28143  1.0000
  S   S167      1.0  0.45191  0.61028  0.30639  1.0000
  S   S168      1.0  0.46784  0.58326  0.27373  1.0000
  H   H1380     1.0  0.48982  0.46379  0.27628  1.0000
  H   H1381     1.0  0.08237  0.44246  0.28637  1.0000
  H   H1382     1.0  0.32453  0.45402  0.40942  1.0000
  H   H1383     1.0  0.33734  0.43952  0.31737  1.0000
  C   C778      1.0  0.02757  0.48832  0.29418  1.0000
  H   H1384     1.0  0.19680  0.33127  0.40525  1.0000
  C   C779      1.0  0.36005  0.34144  0.37254  1.0000
  H   H1385     1.0  0.36318  0.33148  0.31486  1.0000
  C   C780      1.0  0.01715  0.44718  0.29263  1.0000
  H   H1386     1.0  0.36158  0.44309  0.31867  1.0000
  H   H1387     1.0  0.27783  0.62133  0.32092  1.0000
  C   C781      1.0  0.38347  0.55192  0.24176  1.0000
  C   C782      1.0  0.02462  0.52663  0.28895  1.0000
  Fe  Fe86      1.0  0.42437  0.38831  0.32521  1.0000
  S   S169      1.0  0.40683  0.41866  0.31206  1.0000
  S   S170      1.0  0.41200  0.36216  0.34679  1.0000
  Fe  Fe87      1.0  0.46560  0.40076  0.30898  1.0000
  S   S171      1.0  0.45152  0.43184  0.29454  1.0000
  H   H1388     1.0  0.99793  0.56655  0.26758  1.0000
  Fe  Fe88      1.0  0.42747  0.43203  0.32130  1.0000
  S   S172      1.0  0.41438  0.45920  0.33497  1.0000
  Fe  Fe89      1.0  0.43233  0.41615  0.28624  1.0000
  C   C783      1.0  0.05650  0.63974  0.37981  1.0000
  S   S173      1.0  0.44307  0.40200  0.33649  1.0000
  S   S174      1.0  0.44841  0.38461  0.29858  1.0000
  Fe  Fe90      1.0  0.06341  0.60811  0.29027  1.0000
  S   S175      1.0  0.03245  0.62471  0.28465  1.0000
  S   S176      1.0  0.08409  0.62306  0.29816  1.0000
  C   C784      1.0  0.47718  0.50328  0.34456  1.0000
  S   S177      1.0  0.03018  0.58234  0.27399  1.0000
  H   H1389     1.0  0.30161  0.45937  0.40064  1.0000
  Fe  Fe91      1.0  0.02283  0.59496  0.29992  1.0000
  H   H1390     1.0  0.43139  0.60001  0.25077  1.0000
  S   S178      1.0  0.05301  0.57950  0.30760  1.0000
  H   H1391     1.0  0.14574  0.57801  0.31047  1.0000
  H   H1392     1.0  0.44030  0.36071  0.27480  1.0000
  C   C785      1.0  0.14175  0.53270  0.29875  1.0000
  H   H1393     1.0  0.24141  0.64609  0.47143  1.0000
  H   H1394     1.0  0.01806  0.48949  0.28415  1.0000
  S   S179      1.0  0.43219  0.63738  0.26047  1.0000
  C   C786      1.0  0.03497  0.50364  0.23821  1.0000
  C   C787      1.0  0.07909  0.60059  0.33485  1.0000
  C   C788      1.0  0.08901  0.51752  0.24915  1.0000
  C   C789      1.0  0.08426  0.59318  0.35259  1.0000
  S   S180      1.0  0.28436  0.33218  0.45917  1.0000
  N   N44       1.0  0.04117  0.46734  0.29749  1.0000
  H   H1395     1.0  0.32410  0.46785  0.38530  1.0000
  C   C790      1.0  0.49509  0.50944  0.31145  1.0000
  C   C791      1.0  0.09125  0.53353  0.25585  1.0000
  C   C792      1.0  0.37603  0.59982  0.33882  1.0000
  H   H1396     1.0  0.00538  0.58183  0.24415  1.0000
  H   H1397     1.0  0.08665  0.45150  0.25059  1.0000
  H   H1398     1.0  0.40548  0.47320  0.26063  1.0000
  C   C793      1.0  0.22443  0.65794  0.37956  1.0000
  H   H1399     1.0  0.20581  0.34259  0.38074  1.0000
  H   H1400     1.0  0.06823  0.64267  0.34155  1.0000
  C   C794      1.0  0.06989  0.44265  0.27973  1.0000
  H   H1401     1.0  0.16983  0.57229  0.33067  1.0000
  H   H1402     1.0  0.47262  0.62733  0.23895  1.0000
  H   H1403     1.0  0.12668  0.60689  0.28125  1.0000
  H   H1404     1.0  0.35857  0.41798  0.31871  1.0000
  C   C795      1.0  0.11747  0.56703  0.29633  1.0000
  H   H1405     1.0  0.41278  0.39482  0.26539  1.0000
  H   H1406     1.0  0.44337  0.52515  0.24739  1.0000
  H   H1407     1.0  0.14878  0.57284  0.28192  1.0000
  C   C796      1.0  0.03520  0.64875  0.34852  1.0000
  C   C797      1.0  0.13361  0.57519  0.27879  1.0000
  H   H1408     1.0  0.26729  0.61356  0.47447  1.0000
  C   C798      1.0  0.00203  0.43329  0.30342  1.0000
  C   C799      1.0  0.42066  0.63276  0.24457  1.0000
  H   H1409     1.0  0.32843  0.32672  0.44981  1.0000
  H   H1410     1.0  0.37242  0.42981  0.34992  1.0000
  C   C800      1.0  0.10624  0.61948  0.32421  1.0000
  C   C801      1.0  0.41165  0.40307  0.25117  1.0000
  H   H1411     1.0  0.06749  0.62617  0.37518  1.0000
  H   H1412     1.0  0.37642  0.39492  0.39684  1.0000
  C   C802      1.0  0.37439  0.36720  0.33826  1.0000
  C   C803      1.0  0.38682  0.35862  0.35140  1.0000
  C   C804      1.0  0.45437  0.34938  0.27050  1.0000
  H   H1413     1.0  0.34065  0.39277  0.41211  1.0000
  H   H1414     1.0  0.02859  0.43923  0.28204  1.0000
  H   H1415     1.0  0.37998  0.37693  0.32490  1.0000
  H   H1416     1.0  0.01053  0.52912  0.28376  1.0000
  H   H1417     1.0  0.35432  0.62059  0.27993  1.0000
  H   H1418     1.0  0.02053  0.52692  0.30420  1.0000
  H   H1419     1.0  0.48030  0.65849  0.25552  1.0000
  H   H1420     1.0  0.46881  0.48352  0.33065  1.0000
  H   H1421     1.0  0.04458  0.50774  0.27043  1.0000
  C   C805      1.0  0.37481  0.61549  0.36415  1.0000
  C   C806      1.0  0.34772  0.34957  0.35933  1.0000
  H   H1422     1.0  0.39762  0.53023  0.26311  1.0000
  H   H1423     1.0  0.48398  0.40651  0.24056  1.0000
  C   C807      1.0  0.10021  0.59915  0.35630  1.0000
  H   H1424     1.0  0.16152  0.52916  0.26114  1.0000
  H   H1425     1.0  0.11481  0.62965  0.31323  1.0000
  Fe  Fe92      1.0  0.06144  0.56926  0.28022  1.0000
  H   H1426     1.0  0.44093  0.33629  0.32026  1.0000
  C   C808      1.0  0.44096  0.51427  0.29837  1.0000
  C   C809      1.0  0.42244  0.51728  0.31161  1.0000
  C   C810      1.0  0.41454  0.50030  0.32336  1.0000
  C   C811      1.0  0.42528  0.48039  0.32194  1.0000
  C   C812      1.0  0.44437  0.47756  0.30951  1.0000
  C   C813      1.0  0.45207  0.49443  0.29762  1.0000
  H   H1427     1.0  0.41383  0.53264  0.31228  1.0000
  H   H1428     1.0  0.39987  0.50261  0.33312  1.0000
  H   H1429     1.0  0.45342  0.46240  0.30931  1.0000
  H   H1430     1.0  0.46675  0.49213  0.28793  1.0000
  H   H1431     1.0  0.06630  0.59648  0.33236  1.0000
  S   S181      1.0  0.07413  0.59672  0.26327  1.0000
  H   H1432     1.0  0.48093  0.52283  0.24478  1.0000
  C   C814      1.0  0.11121  0.61233  0.34207  1.0000
  H   H1433     1.0  0.03641  0.43692  0.31290  1.0000
  H   H1434     1.0  0.16403  0.55395  0.30948  1.0000
  H   H1435     1.0  0.03858  0.51761  0.23879  1.0000
  H   H1436     1.0  0.24691  0.64602  0.33348  1.0000
  H   H1437     1.0  0.07051  0.62788  0.45425  1.0000
  C   C815      1.0  0.36932  0.61638  0.28402  1.0000
  C   C816      1.0  0.39961  0.47597  0.28931  1.0000
  Fe  Fe93      1.0  0.13980  0.60725  0.42178  1.0000
  C   C817      1.0  0.01065  0.48190  0.24533  1.0000
  H   H1438     1.0  0.01007  0.41828  0.31053  1.0000
  C   C818      1.0  0.46725  0.49942  0.24182  1.0000
  H   H1439     1.0  0.10474  0.56587  0.29063  1.0000
  H   H1440     1.0  0.24770  0.34632  0.43875  1.0000
  H   H1441     1.0  0.46648  0.34974  0.27733  1.0000
  C   C819      1.0  0.13086  0.64211  0.47034  1.0000
  H   H1442     1.0  0.35480  0.33141  0.38569  1.0000
  C   C820      1.0  0.40235  0.53720  0.24790  1.0000
  H   H1443     1.0  0.27537  0.65922  0.30927  1.0000
  S   S182      1.0  0.29484  0.64581  0.40068  1.0000
  C   C821      1.0  0.13245  0.55102  0.32467  1.0000
  C   C822      1.0  0.10756  0.53600  0.31865  1.0000
  C   C823      1.0  0.15719  0.56382  0.33548  1.0000
  H   H1444     1.0  0.34781  0.60646  0.32955  1.0000
  S   S183      1.0  0.18846  0.63315  0.36225  1.0000
  C   C824      1.0  0.09003  0.54591  0.33324  1.0000
  H   H1445     1.0  0.14784  0.51893  0.30895  1.0000
  H   H1446     1.0  0.17593  0.62731  0.45470  1.0000
  H   H1447     1.0  0.13571  0.56714  0.26734  1.0000
  H   H1448     1.0  0.01537  0.45687  0.31803  1.0000
  C   C825      1.0  0.07177  0.53548  0.33904  1.0000
  C   C826      1.0  0.46743  0.37538  0.24144  1.0000
  C   C827      1.0  0.05475  0.46366  0.27883  1.0000
  H   H1449     1.0  0.12004  0.56103  0.33298  1.0000
  H   H1450     1.0  0.13663  0.53637  0.33483  1.0000
  H   H1451     1.0  0.11335  0.52011  0.32612  1.0000
  H   H1452     1.0  0.10035  0.53439  0.30780  1.0000
  C   C828      1.0  0.07966  0.43858  0.25997  1.0000
  H   H1453     1.0  0.11040  0.57919  0.30457  1.0000
  H   H1454     1.0  0.03031  0.46587  0.33695  1.0000
  H   H1455     1.0  0.14798  0.51090  0.26013  1.0000
  N   N45       1.0  0.12501  0.54707  0.30924  1.0000
  C   C829      1.0  0.42387  0.49391  0.26190  1.0000
  H   H1456     1.0  0.08493  0.56233  0.32728  1.0000
  H   H1457     1.0  0.09516  0.54437  0.34636  1.0000
  H   H1458     1.0  0.42284  0.50431  0.27117  1.0000
  C   C830      1.0  0.31859  0.45534  0.39680  1.0000
  C   C831      1.0  0.25268  0.61432  0.47080  1.0000
  H   H1459     1.0  0.32592  0.36227  0.39853  1.0000
  H   H1460     1.0  0.20729  0.33254  0.45941  1.0000
  C   C832      1.0  0.04330  0.47347  0.32919  1.0000
  C   C833      1.0  0.20291  0.63777  0.37569  1.0000
  H   H1461     1.0  0.37769  0.56387  0.25025  1.0000
  H   H1462     1.0  0.34616  0.63550  0.37346  1.0000
  S   S184      1.0  0.12935  0.63809  0.37278  1.0000
  H   H1463     1.0  0.39660  0.48790  0.29752  1.0000
  H   H1464     1.0  0.05913  0.54349  0.34886  1.0000
  H   H1465     1.0  0.06605  0.53600  0.32651  1.0000
  H   H1466     1.0  0.07617  0.51926  0.34633  1.0000
  C   C834      1.0  0.46167  0.35396  0.24901  1.0000
  C   C835      1.0  0.01519  0.50016  0.24582  1.0000
  H   H1467     1.0  0.12692  0.51224  0.29197  1.0000
  H   H1468     1.0  0.33310  0.41780  0.34927  1.0000
  H   H1469     1.0  0.04944  0.47536  0.35525  1.0000
  H   H1470     1.0  0.40907  0.39985  0.39934  1.0000
  H   H1471     1.0  0.19372  0.65137  0.42976  1.0000
  H   H1472     1.0  0.35669  0.37069  0.40363  1.0000
  C   C836      1.0  0.13512  0.52489  0.28437  1.0000
  H   H1473     1.0  0.21203  0.60363  0.48696  1.0000
  H   H1474     1.0  0.48084  0.46978  0.35004  1.0000
  H   H1475     1.0  0.21113  0.57300  0.35413  1.0000
  H   H1476     1.0  0.46494  0.51683  0.34092  1.0000
  H   H1477     1.0  0.07079  0.47722  0.33527  1.0000
  C   C837      1.0  0.48612  0.64213  0.26156  1.0000
  C   C838      1.0  0.41867  0.42133  0.24354  1.0000
  C   C839      1.0  0.37948  0.34597  0.36860  1.0000
  S   S185      1.0  0.31982  0.63567  0.34944  1.0000
  H   H1478     1.0  0.46541  0.49211  0.25704  1.0000
  C   C840      1.0  0.37694  0.63547  0.28273  1.0000
  H   H1479     1.0  0.41276  0.46379  0.29308  1.0000
  H   H1480     1.0  0.22295  0.35815  0.43333  1.0000
  H   H1481     1.0  0.40136  0.41503  0.35907  1.0000
  H   H1482     1.0  0.16269  0.54840  0.34385  1.0000
  H   H1483     1.0  0.39631  0.63245  0.31452  1.0000
  H   H1484     1.0  0.38501  0.38583  0.37556  1.0000
  C   C841      1.0  0.05448  0.46560  0.31087  1.0000
  H   H1485     1.0  0.22208  0.63361  0.47246  1.0000
  C   C842      1.0  0.34478  0.62243  0.35117  1.0000
  H   H1486     1.0  0.13842  0.60289  0.25772  1.0000
  C   C843      1.0  0.13904  0.63583  0.48651  1.0000
  H   H1487     1.0  0.49291  0.43763  0.27505  1.0000
  C   C844      1.0  0.23098  0.34912  0.44479  1.0000
  H   H1488     1.0  0.37207  0.40507  0.34778  1.0000
  C   C845      1.0  0.25677  0.61793  0.44931  1.0000
  S   S186      1.0  0.14806  0.63787  0.40857  1.0000
  H   H1489     1.0  0.38593  0.46909  0.29328  1.0000
  H   H1490     1.0  0.47911  0.37528  0.24901  1.0000
  H   H1491     1.0  0.34541  0.36900  0.33191  1.0000
  H   H1492     1.0  0.43639  0.48067  0.26545  1.0000
  H   H1493     1.0  0.07948  0.50709  0.25812  1.0000
  H   H1494     1.0  0.14427  0.57230  0.34474  1.0000
  H   H1495     1.0  0.38054  0.60717  0.27424  1.0000
  H   H1496     1.0  0.05967  0.61989  0.42707  1.0000
  H   H1497     1.0  0.33654  0.44277  0.34925  1.0000
  H   H1498     1.0  0.35395  0.42537  0.39907  1.0000
  H   H1499     1.0  0.06382  0.45269  0.34676  1.0000
  S   S187      1.0  0.10827  0.61723  0.41622  1.0000
  H   H1500     1.0  0.25856  0.64595  0.35204  1.0000
  H   H1501     1.0  0.26930  0.60561  0.44427  1.0000
  H   H1502     1.0  0.15524  0.53956  0.29128  1.0000
  H   H1503     1.0  0.26148  0.63280  0.44254  1.0000
  S   S188      1.0  0.07821  0.53677  0.27880  1.0000
  H   H1504     1.0  0.38900  0.33937  0.37885  1.0000
  Fe  Fe94      1.0  0.12263  0.60741  0.38864  1.0000
  S   S189      1.0  0.14510  0.59043  0.45071  1.0000
  C   C846      1.0  0.03882  0.50640  0.28586  1.0000
  H   H1505     1.0  0.12325  0.65781  0.46614  1.0000
  H   H1506     1.0  0.39825  0.38108  0.24592  1.0000
  C   C847      1.0  0.05564  0.65492  0.34672  1.0000
  C   C848      1.0  0.35438  0.62544  0.36390  1.0000
  C   C849      1.0  0.47005  0.48386  0.34484  1.0000
  H   H1507     1.0  0.01619  0.49104  0.30739  1.0000
  H   H1508     1.0  0.47727  0.50237  0.35944  1.0000
  H   H1509     1.0  0.36792  0.60678  0.29855  1.0000
  C   C850      1.0  0.15054  0.56213  0.31836  1.0000
  S   S190      1.0  0.15365  0.59452  0.39561  1.0000
  H   H1510     1.0  0.21493  0.62060  0.41889  1.0000
  H   H1511     1.0  0.11196  0.60169  0.26738  1.0000
  C   C851      1.0  0.35487  0.36264  0.34223  1.0000
  C   C852      1.0  0.22389  0.32889  0.45342  1.0000
  H   H1512     1.0  0.41372  0.54646  0.24631  1.0000
  H   H1513     1.0  0.38969  0.42802  0.37824  1.0000
  H   H1514     1.0  0.04640  0.65142  0.40577  1.0000
  H   H1515     1.0  0.12451  0.53709  0.27671  1.0000
  H   H1516     1.0  0.42034  0.38660  0.38009  1.0000
  H   H1517     1.0  0.48418  0.43159  0.31270  1.0000
  C   C853      1.0  0.18689  0.63426  0.45781  1.0000
  H   H1518     1.0  0.30992  0.38383  0.40818  1.0000
  S   S191      1.0  0.99666  0.51906  0.25573  1.0000
  H   H1519     1.0  0.18197  0.63635  0.47258  1.0000
  C   C854      1.0  0.40347  0.39532  0.24014  1.0000
  H   H1520     1.0  0.44902  0.35303  0.24319  1.0000
  H   H1521     1.0  0.38425  0.58983  0.32924  1.0000
  H   H1522     1.0  0.31887  0.42342  0.40198  1.0000
  H   H1523     1.0  0.44412  0.46917  0.35763  1.0000
  H   H1524     1.0  0.06435  0.47537  0.27243  1.0000
  C   C855      1.0  0.38583  0.60310  0.35126  1.0000
  H   H1525     1.0  0.23476  0.61853  0.34604  1.0000
  H   H1526     1.0  0.07560  0.58310  0.36359  1.0000
  S   S192      1.0  0.43084  0.43073  0.25588  1.0000
  H   H1527     1.0  0.42112  0.63636  0.32971  1.0000
  H   H1528     1.0  0.12555  0.63302  0.44735  1.0000
  H   H1529     1.0  0.24286  0.61783  0.44485  1.0000
  C   C856      1.0  0.02770  0.45181  0.30621  1.0000
  H   H1530     1.0  0.49531  0.53311  0.27443  1.0000
  H   H1531     1.0  0.04540  0.46576  0.26837  1.0000
  H   H1532     1.0  0.34783  0.65558  0.28721  1.0000
  H   H1533     1.0  0.03262  0.53926  0.28104  1.0000
  H   H1534     1.0  0.06732  0.47368  0.30363  1.0000
  C   C857      1.0  0.05906  0.64005  0.39944  1.0000
  C   C858      1.0  0.14196  0.60767  0.46492  1.0000
  H   H1535     1.0  0.32392  0.36274  0.42276  1.0000
  C   C859      1.0  0.35544  0.60920  0.33902  1.0000
  C   C860      1.0  0.15342  0.51675  0.26978  1.0000
  Fe  Fe95      1.0  0.30423  0.65693  0.36933  1.0000
  H   H1536     1.0  0.05199  0.50452  0.29214  1.0000
  H   H1537     1.0  0.06218  0.44936  0.31529  1.0000
  C   C861      1.0  0.44896  0.48306  0.35788  1.0000
  H   H1538     1.0  0.03732  0.49025  0.32587  1.0000
  H   H1539     1.0  0.06229  0.42985  0.28808  1.0000
  C   C862      1.0  0.06247  0.62445  0.46936  1.0000
  H   H1540     1.0  0.20199  0.62358  0.45605  1.0000
  H   H1541     1.0  0.38229  0.61788  0.37394  1.0000
  C   C863      1.0  0.13214  0.62805  0.45967  1.0000
  H   H1542     1.0  0.19523  0.61349  0.39950  1.0000
  H   H1543     1.0  0.07047  0.60713  0.40767  1.0000
  H   H1544     1.0  0.16422  0.50405  0.27686  1.0000
  H   H1545     1.0  0.12364  0.61688  0.34476  1.0000
  H   H1546     1.0  0.39160  0.63050  0.28733  1.0000
  C   C864      1.0  0.22476  0.64620  0.39784  1.0000
  H   H1547     1.0  0.35542  0.44232  0.37670  1.0000
  H   H1548     1.0  0.42579  0.41106  0.37836  1.0000
  H   H1549     1.0  0.00871  0.46139  0.28484  1.0000
  Fe  Fe96      1.0  0.47611  0.58272  0.30051  1.0000
  S   S193      1.0  0.32369  0.34316  0.36361  1.0000
  H   H1550     1.0  0.44935  0.48245  0.37265  1.0000
  H   H1551     1.0  0.49279  0.49525  0.30903  1.0000
  H   H1552     1.0  0.24903  0.60548  0.32802  1.0000
  C   C865      1.0  0.21461  0.62985  0.40481  1.0000
  H   H1553     1.0  0.10636  0.55865  0.24951  1.0000
  H   H1554     1.0  0.43744  0.49667  0.35302  1.0000
  N   N46       1.0  0.26592  0.60421  0.34868  1.0000
  C   C866      1.0  0.26102  0.60533  0.36918  1.0000
  C   C867      1.0  0.24640  0.60450  0.34346  1.0000
  C   C868      1.0  0.28163  0.58482  0.34608  1.0000
  C   C869      1.0  0.27487  0.62209  0.33598  1.0000
  C   C870      1.0  0.05781  0.46937  0.34238  1.0000
  C   C871      1.0  0.27861  0.60830  0.37645  1.0000
  C   C872      1.0  0.28480  0.57826  0.32722  1.0000
  C   C873      1.0  0.23562  0.58652  0.35472  1.0000
  C   C874      1.0  0.42277  0.61288  0.24238  1.0000
  C   C875      1.0  0.12718  0.59804  0.27085  1.0000
  C   C876      1.0  0.27441  0.60286  0.39805  1.0000
  C   C877      1.0  0.30232  0.55962  0.32553  1.0000
  H   H1555     1.0  0.25607  0.59117  0.37832  1.0000
  H   H1556     1.0  0.24761  0.61785  0.37222  1.0000
  H   H1557     1.0  0.39614  0.64576  0.34283  1.0000
  H   H1558     1.0  0.20827  0.59977  0.34310  1.0000
  H   H1559     1.0  0.27800  0.57170  0.35789  1.0000
  H   H1560     1.0  0.29690  0.58634  0.34684  1.0000
  H   H1561     1.0  0.29010  0.62136  0.33854  1.0000
  C   C878      1.0  0.32310  0.32634  0.46476  1.0000
  C   C879      1.0  0.18854  0.65466  0.44399  1.0000
  C   C880      1.0  0.40401  0.48533  0.26816  1.0000
  H   H1562     1.0  0.29353  0.59865  0.37127  1.0000
  H   H1563     1.0  0.28019  0.62450  0.37165  1.0000
  H   H1564     1.0  0.28856  0.59071  0.31486  1.0000
  H   H1565     1.0  0.27083  0.57406  0.32635  1.0000
  H   H1566     1.0  0.24647  0.57156  0.35619  1.0000
  H   H1567     1.0  0.22772  0.58900  0.36915  1.0000
  C   C881      1.0  0.36094  0.65025  0.29439  1.0000
  H   H1568     1.0  0.03555  0.63271  0.35659  1.0000
  H   H1569     1.0  0.22689  0.58109  0.33117  1.0000
  S   S194      1.0  0.10584  0.58991  0.37888  1.0000
  C   C882      1.0  0.20347  0.62582  0.39386  1.0000
  H   H1570     1.0  0.27319  0.58659  0.40352  1.0000
  H   H1571     1.0  0.28719  0.60516  0.40282  1.0000
  H   H1572     1.0  0.26003  0.61273  0.40410  1.0000
  H   H1573     1.0  0.30414  0.55511  0.31203  1.0000
  H   H1574     1.0  0.31694  0.56322  0.32556  1.0000
  H   H1575     1.0  0.29908  0.54648  0.33740  1.0000
  H   H1576     1.0  0.31868  0.43697  0.37814  1.0000
  C   C883      1.0  0.44703  0.51419  0.23803  1.0000
  Fe  Fe97      1.0  0.15923  0.62613  0.38190  1.0000
  H   H1577     1.0  0.39047  0.49744  0.26533  1.0000
  N   N47       1.0  0.35840  0.41078  0.37577  1.0000
  C   C884      1.0  0.34501  0.39524  0.38142  1.0000
  C   C885      1.0  0.36285  0.41805  0.35450  1.0000
  C   C886      1.0  0.37861  0.40002  0.38120  1.0000
  C   C887      1.0  0.34920  0.42863  0.38540  1.0000
  C   C888      1.0  0.32549  0.43512  0.39028  1.0000
  C   C889      1.0  0.34270  0.38284  0.40218  1.0000
  C   C890      1.0  0.39552  0.41277  0.37460  1.0000
  C   C891      1.0  0.34421  0.42791  0.34526  1.0000
  C   C892      1.0  0.35092  0.43236  0.32369  1.0000
  S   S195      1.0  0.28076  0.33074  0.40893  1.0000
  C   C893      1.0  0.32450  0.37231  0.40821  1.0000
  C   C894      1.0  0.41375  0.40182  0.38373  1.0000
  H   H1578     1.0  0.35116  0.38396  0.37224  1.0000
  H   H1579     1.0  0.32947  0.40237  0.37884  1.0000
  C   C895      1.0  0.39794  0.64832  0.31287  1.0000
  H   H1580     1.0  0.47297  0.63481  0.26945  1.0000
  C   C896      1.0  0.05796  0.61929  0.41304  1.0000
  H   H1581     1.0  0.24837  0.59922  0.47672  1.0000
  H   H1582     1.0  0.37989  0.64329  0.26757  1.0000
  H   H1583     1.0  0.47899  0.53639  0.35616  1.0000
  C   C897      1.0  0.99655  0.64217  0.24058  1.0000
  H   H1584     1.0  0.36639  0.65557  0.32628  1.0000
  H   H1585     1.0  0.35501  0.64111  0.30854  1.0000
  H   H1586     1.0  0.45069  0.33392  0.27552  1.0000
  H   H1587     1.0  0.09177  0.42442  0.26080  1.0000
  H   H1588     1.0  0.99749  0.56378  0.30196  1.0000
  H   H1589     1.0  0.47494  0.34162  0.24538  1.0000
  N   N48       1.0  0.42913  0.50434  0.24131  1.0000
  C   C898      1.0  0.26168  0.64366  0.33749  1.0000
  H   H1590     1.0  0.06793  0.43642  0.25368  1.0000
  H   H1591     1.0  0.45368  0.38680  0.24639  1.0000
  H   H1592     1.0  0.22755  0.35819  0.45573  1.0000
  H   H1593     1.0  0.04099  0.63658  0.38253  1.0000
  H   H1594     1.0  0.04432  0.63926  0.32161  1.0000
  H   H1595     1.0  0.09153  0.64702  0.35814  1.0000
  H   H1596     1.0  0.40916  0.65245  0.29958  1.0000
  H   H1597     1.0  0.48922  0.45781  0.25459  1.0000
  H   H1598     1.0  0.28744  0.65907  0.32772  1.0000
  C   C899      1.0  0.40712  0.64855  0.32904  1.0000
  C   C900      1.0  0.21952  0.58505  0.34513  1.0000
  H   H1599     1.0  0.00012  0.64555  0.25233  1.0000
  C   C901      1.0  0.23570  0.63171  0.47825  1.0000
  S   S196      1.0  0.23663  0.65245  0.41262  1.0000
  H   H1600     1.0  0.07391  0.64362  0.39861  1.0000
  H   H1601     1.0  0.37115  0.54357  0.24397  1.0000
  Fe  Fe98      1.0  0.11753  0.64693  0.40084  1.0000
  C   C902      1.0  0.21363  0.65364  0.36843  1.0000
  C   C903      1.0  0.20362  0.32799  0.39095  1.0000
  H   H1602     1.0  0.08013  0.64033  0.47712  1.0000
  C   C904      1.0  0.30223  0.32831  0.47304  1.0000
  H   H1603     1.0  0.04804  0.63611  0.47140  1.0000
  H   H1604     1.0  0.04302  0.61526  0.41486  1.0000
  H   H1605     1.0  0.01716  0.64482  0.33090  1.0000
  H   H1606     1.0  0.15746  0.58546  0.48535  1.0000
  H   H1607     1.0  0.17479  0.32930  0.38485  1.0000
  H   H1608     1.0  0.09057  0.61345  0.47873  1.0000
  H   H1609     1.0  0.05885  0.60905  0.47270  1.0000
  C   C905      1.0  0.10420  0.54654  0.24431  1.0000
  C   C906      1.0  0.07627  0.62498  0.48176  1.0000
  C   C907      1.0  0.14978  0.60123  0.48133  1.0000
  H   H1610     1.0  0.05276  0.56231  0.24116  1.0000
  C   C908      1.0  0.03166  0.64971  0.32914  1.0000
  N   N49       1.0  0.05886  0.65871  0.36441  1.0000
  H   H1611     1.0  0.02198  0.65894  0.35576  1.0000
  Fe  Fe99      1.0  0.02812  0.53510  0.67835  1.0000
  S   S197      1.0  0.02516  0.56711  0.68087  1.0000
  S   S198      1.0  0.05500  0.51080  0.68607  1.0000
  H   H1612     1.0  0.33582  0.50136  0.72645  1.0000
  S   S199      1.0  0.02736  0.60420  0.63131  1.0000
  Fe  Fe100     1.0  0.12583  0.65603  0.56631  1.0000
  H   H1613     1.0  0.01734  0.47511  0.70883  1.0000
  S   S200      1.0  0.11482  0.58397  0.57906  1.0000
  S   S201      1.0  0.19888  0.61674  0.56298  1.0000
  S   S202      1.0  0.15615  0.61077  0.54270  1.0000
  S   S203      1.0  0.42533  0.53177  0.64270  1.0000
  H   H1614     1.0  0.05221  0.56211  0.73208  1.0000
  H   H1615     1.0  0.13444  0.57497  0.54027  1.0000
  H   H1616     1.0  0.48217  0.53608  0.59762  1.0000
  H   H1617     1.0  0.07310  0.44034  0.73592  1.0000
  S   S204      1.0  0.31383  0.34062  0.55657  1.0000
  H   H1618     1.0  0.46505  0.56178  0.67964  1.0000
  H   H1619     1.0  0.11529  0.56431  0.53666  1.0000
  S   S205      1.0  0.34020  0.36315  0.58166  1.0000
  C   C909      1.0  0.06555  0.62057  0.50309  1.0000
  H   H1620     1.0  0.40306  0.52213  0.71266  1.0000
  H   H1621     1.0  0.46677  0.37114  0.60685  1.0000
  H   H1622     1.0  0.45095  0.38994  0.62007  1.0000
  Fe  Fe101     1.0  0.38138  0.44426  0.64768  1.0000
  S   S206      1.0  0.40384  0.42021  0.63330  1.0000
  S   S207      1.0  0.36948  0.47741  0.63510  1.0000
  Fe  Fe102     1.0  0.37829  0.41672  0.68650  1.0000
  S   S208      1.0  0.40080  0.39035  0.67598  1.0000
  S   S209      1.0  0.36132  0.41827  0.71634  1.0000
  Fe  Fe103     1.0  0.41893  0.41375  0.65769  1.0000
  S   S210      1.0  0.45340  0.40808  0.65089  1.0000
  Fe  Fe104     1.0  0.38407  0.39841  0.65234  1.0000
  S   S211      1.0  0.37935  0.36982  0.64627  1.0000
  S   S212      1.0  0.39803  0.43923  0.67058  1.0000
  S   S213      1.0  0.36004  0.42314  0.66448  1.0000
  N   N50       1.0  0.02719  0.44841  0.69665  1.0000
  C   C910      1.0  0.46527  0.42005  0.66142  1.0000
  N   N51       1.0  0.22981  0.62925  0.49944  1.0000
  C   C911      1.0  0.32368  0.62238  0.53276  1.0000
  H   H1623     1.0  0.03467  0.42449  0.72090  1.0000
  C   C912      1.0  0.46443  0.43841  0.68485  1.0000
  C   C913      1.0  0.45436  0.42934  0.67656  1.0000
  C   C914      1.0  0.44815  0.64991  0.71924  1.0000
  H   H1624     1.0  0.31929  0.33520  0.62023  1.0000
  H   H1625     1.0  0.45599  0.44548  0.69661  1.0000
  H   H1626     1.0  0.43827  0.42932  0.68202  1.0000
  N   N52       1.0  0.07803  0.62012  0.51675  1.0000
  H   H1627     1.0  0.47647  0.33646  0.66476  1.0000
  H   H1628     1.0  0.25310  0.34751  0.56167  1.0000
  H   H1629     1.0  0.40544  0.41006  0.71095  1.0000
  H   H1630     1.0  0.48709  0.40752  0.73650  1.0000
  H   H1631     1.0  0.41801  0.34592  0.65978  1.0000
  C   C915      1.0  0.42600  0.64687  0.57436  1.0000
  H   H1632     1.0  0.21680  0.57063  0.51018  1.0000
  C   C916      1.0  0.48912  0.65902  0.70044  1.0000
  C   C917      1.0  0.05241  0.44663  0.71719  1.0000
  C   C918      1.0  0.46098  0.34559  0.66929  1.0000
  H   H1633     1.0  0.32275  0.56618  0.61452  1.0000
  H   H1634     1.0  0.25050  0.37090  0.63614  1.0000
  H   H1635     1.0  0.27235  0.37120  0.56398  1.0000
  H   H1636     1.0  0.43568  0.54605  0.68819  1.0000
  C   C919      1.0  0.35169  0.36455  0.59938  1.0000
  C   C920      1.0  0.35904  0.34713  0.61217  1.0000
  C   C921      1.0  0.36737  0.34905  0.62647  1.0000
  C   C922      1.0  0.36863  0.36836  0.62803  1.0000
  C   C923      1.0  0.36142  0.38577  0.61516  1.0000
  C   C924      1.0  0.35293  0.38385  0.60096  1.0000
  Fe  Fe105     1.0  0.33706  0.33468  0.57430  1.0000
  C   C925      1.0  0.35898  0.64057  0.57391  1.0000
  H   H1637     1.0  0.36231  0.40070  0.61619  1.0000
  H   H1638     1.0  0.34731  0.39742  0.59110  1.0000
  H   H1639     1.0  0.29786  0.62786  0.56551  1.0000
  C   C926      1.0  0.49178  0.62929  0.72668  1.0000
  H   H1640     1.0  0.27483  0.34997  0.61629  1.0000
  C   C927      1.0  0.40980  0.51745  0.63938  1.0000
  C   C928      1.0  0.38972  0.52614  0.63734  1.0000
  C   C929      1.0  0.37747  0.51395  0.63548  1.0000
  C   C930      1.0  0.38527  0.49304  0.63587  1.0000
  C   C931      1.0  0.40552  0.48458  0.63747  1.0000
  C   C932      1.0  0.41774  0.49676  0.63918  1.0000
  H   H1641     1.0  0.38378  0.54219  0.63721  1.0000
  H   H1642     1.0  0.36188  0.52060  0.63405  1.0000
  H   H1643     1.0  0.41191  0.46865  0.63718  1.0000
  H   H1644     1.0  0.43335  0.49001  0.64054  1.0000
  H   H1645     1.0  0.00665  0.40361  0.68187  1.0000
  C   C933      1.0  0.24802  0.63038  0.50602  1.0000
  H   H1646     1.0  0.04470  0.62296  0.65955  1.0000
  H   H1647     1.0  0.30838  0.63163  0.53084  1.0000
  C   C934      1.0  0.29988  0.61682  0.60285  1.0000
  C   C935      1.0  0.05109  0.59871  0.61587  1.0000
  C   C936      1.0  0.06256  0.61394  0.60777  1.0000
  C   C937      1.0  0.09016  0.58989  0.59280  1.0000
  C   C938      1.0  0.07853  0.57478  0.60053  1.0000
  C   C939      1.0  0.05899  0.57918  0.61210  1.0000
  H   H1648     1.0  0.08466  0.55966  0.59761  1.0000
  H   H1649     1.0  0.05005  0.56749  0.61804  1.0000
  C   C940      1.0  0.05364  0.50047  0.71032  1.0000
  C   C941      1.0  0.07184  0.49313  0.71676  1.0000
  H   H1650     1.0  0.06411  0.61922  0.67255  1.0000
  H   H1651     1.0  0.34583  0.56390  0.68081  1.0000
  H   H1652     1.0  0.27469  0.34830  0.58234  1.0000
  C   C942      1.0  0.03494  0.49889  0.72315  1.0000
  H   H1653     1.0  0.08636  0.49373  0.70684  1.0000
  H   H1654     1.0  0.41464  0.62145  0.57207  1.0000
  C   C943      1.0  0.24500  0.38711  0.62949  1.0000
  H   H1655     1.0  0.02083  0.50434  0.71825  1.0000
  H   H1656     1.0  0.18731  0.32648  0.52434  1.0000
  H   H1657     1.0  0.02874  0.61179  0.56377  1.0000
  H   H1658     1.0  0.16129  0.57125  0.61417  1.0000
  H   H1659     1.0  0.26988  0.64549  0.52271  1.0000
  H   H1660     1.0  0.05070  0.60379  0.57446  1.0000
  N   N53       1.0  0.30923  0.60410  0.58797  1.0000
  H   H1661     1.0  0.33364  0.63281  0.53202  1.0000
  C   C944      1.0  0.33008  0.59221  0.59123  1.0000
  C   C945      1.0  0.29640  0.58899  0.58984  1.0000
  H   H1662     1.0  0.21797  0.60816  0.52462  1.0000
  C   C946      1.0  0.09550  0.60173  0.51620  1.0000
  H   H1663     1.0  0.01503  0.55056  0.72620  1.0000
  H   H1664     1.0  0.46443  0.36726  0.64307  1.0000
  H   H1665     1.0  0.31214  0.62100  0.60701  1.0000
  C   C947      1.0  0.26135  0.39524  0.61235  1.0000
  H   H1666     1.0  0.43646  0.51923  0.69084  1.0000
  H   H1667     1.0  0.33713  0.58148  0.58155  1.0000
  H   H1668     1.0  0.30485  0.57770  0.58092  1.0000
  H   H1669     1.0  0.29368  0.57969  0.60454  1.0000
  H   H1670     1.0  0.21726  0.60961  0.59432  1.0000
  H   H1671     1.0  0.27587  0.40152  0.57151  1.0000
  H   H1672     1.0  0.47277  0.53943  0.65671  1.0000
  H   H1673     1.0  0.08977  0.58767  0.51802  1.0000
  H   H1674     1.0  0.05237  0.45059  0.67219  1.0000
  C   C948      1.0  0.14826  0.61529  0.49217  1.0000
  H   H1675     1.0  0.39522  0.64591  0.59145  1.0000
  C   C949      1.0  0.02211  0.55604  0.73485  1.0000
  H   H1676     1.0  0.30708  0.37273  0.61672  1.0000
  Fe  Fe106     1.0  0.41331  0.56493  0.64385  1.0000
  H   H1677     1.0  0.04071  0.45667  0.72578  1.0000
  H   H1678     1.0  0.27254  0.39952  0.61784  1.0000
  C   C950      1.0  0.21650  0.62547  0.58711  1.0000
  C   C951      1.0  0.35214  0.49432  0.72122  1.0000
  H   H1679     1.0  0.41757  0.53840  0.67981  1.0000
  H   H1680     1.0  0.37272  0.33553  0.63646  1.0000
  H   H1681     1.0  0.39031  0.56374  0.73483  1.0000
  H   H1682     1.0  0.36071  0.55963  0.60361  1.0000
  H   H1683     1.0  0.42572  0.39896  0.59949  1.0000
  C   C952      1.0  0.30947  0.32607  0.50347  1.0000
  H   H1684     1.0  0.43418  0.35567  0.61507  1.0000
  C   C953      1.0  0.26354  0.63220  0.53209  1.0000
  H   H1685     1.0  0.49001  0.56045  0.58991  1.0000
  H   H1686     1.0  0.19263  0.61510  0.50461  1.0000
  C   C954      1.0  0.41094  0.41283  0.73684  1.0000
  H   H1687     1.0  0.32334  0.58809  0.62250  1.0000
  H   H1688     1.0  0.15471  0.61031  0.50456  1.0000
  S   S214      1.0  0.39464  0.59494  0.70171  1.0000
  H   H1689     1.0  0.44118  0.62133  0.56084  1.0000
  H   H1690     1.0  0.32523  0.48337  0.70989  1.0000
  H   H1691     1.0  0.46830  0.49700  0.73512  1.0000
  H   H1692     1.0  0.25985  0.63396  0.54693  1.0000
  H   H1693     1.0  0.35805  0.33223  0.61117  1.0000
  H   H1694     1.0  0.49474  0.41271  0.64299  1.0000
  H   H1695     1.0  0.04863  0.49501  0.65171  1.0000
  H   H1696     1.0  0.04868  0.59509  0.53718  1.0000
  H   H1697     1.0  0.00828  0.44384  0.73558  1.0000
  C   C955      1.0  0.41123  0.53451  0.71009  1.0000
  H   H1698     1.0  0.26051  0.61676  0.50407  1.0000
  H   H1699     1.0  0.11829  0.60951  0.52673  1.0000
  C   C956      1.0  0.47607  0.55316  0.62006  1.0000
  C   C957      1.0  0.26413  0.36259  0.57733  1.0000
  H   H1700     1.0  0.26484  0.60604  0.59645  1.0000
  H   H1701     1.0  0.39971  0.54910  0.70881  1.0000
  H   H1702     1.0  0.44562  0.61856  0.65384  1.0000
  H   H1703     1.0  0.36117  0.58203  0.61126  1.0000
  H   H1704     1.0  0.23858  0.61776  0.53655  1.0000
  H   H1705     1.0  0.30742  0.39860  0.59430  1.0000
  N   N54       1.0  0.09804  0.56364  0.65832  1.0000
  C   C958      1.0  0.11068  0.54956  0.67203  1.0000
  C   C959      1.0  0.11126  0.57588  0.64196  1.0000
  C   C960      1.0  0.08192  0.57846  0.66885  1.0000
  C   C961      1.0  0.08726  0.55208  0.65124  1.0000
  C   C962      1.0  0.10108  0.53610  0.63985  1.0000
  C   C963      1.0  0.09900  0.53711  0.69031  1.0000
  C   C964      1.0  0.06840  0.59574  0.65688  1.0000
  C   C965      1.0  0.13411  0.56553  0.63576  1.0000
  C   C966      1.0  0.14496  0.57883  0.61814  1.0000
  C   C967      1.0  0.08844  0.52368  0.63561  1.0000
  C   C968      1.0  0.11380  0.52261  0.70222  1.0000
  C   C969      1.0  0.05472  0.61133  0.66834  1.0000
  H   H1706     1.0  0.11875  0.55864  0.67654  1.0000
  H   H1707     1.0  0.12292  0.53827  0.66517  1.0000
  H   H1708     1.0  0.10440  0.58088  0.62926  1.0000
  H   H1709     1.0  0.11177  0.59031  0.64541  1.0000
  H   H1710     1.0  0.08922  0.58577  0.67597  1.0000
  H   H1711     1.0  0.07095  0.57031  0.68018  1.0000
  H   H1712     1.0  0.07615  0.54463  0.66302  1.0000
  H   H1713     1.0  0.07773  0.56285  0.64161  1.0000
  H   H1714     1.0  0.11238  0.52512  0.64758  1.0000
  H   H1715     1.0  0.10920  0.54403  0.62602  1.0000
  H   H1716     1.0  0.08815  0.54732  0.69931  1.0000
  H   H1717     1.0  0.09046  0.52774  0.68692  1.0000
  H   H1718     1.0  0.05817  0.58913  0.65246  1.0000
  H   H1719     1.0  0.07755  0.60416  0.64405  1.0000
  H   H1720     1.0  0.14237  0.56332  0.64708  1.0000
  H   H1721     1.0  0.13583  0.55043  0.63265  1.0000
  C   C970      1.0  0.45078  0.37882  0.61205  1.0000
  H   H1722     1.0  0.13781  0.58112  0.60609  1.0000
  H   H1723     1.0  0.01394  0.41454  0.57364  1.0000
  H   H1724     1.0  0.09846  0.51364  0.62603  1.0000
  H   H1725     1.0  0.08146  0.51387  0.64885  1.0000
  H   H1726     1.0  0.07609  0.53388  0.62865  1.0000
  H   H1727     1.0  0.12416  0.51089  0.69453  1.0000
  H   H1728     1.0  0.12306  0.53121  0.70577  1.0000
  H   H1729     1.0  0.10503  0.51465  0.71566  1.0000
  H   H1730     1.0  0.37455  0.46771  0.73229  1.0000
  H   H1731     1.0  0.47440  0.36907  0.67259  1.0000
  H   H1732     1.0  0.47374  0.56967  0.61986  1.0000
  C   C971      1.0  0.47283  0.62190  0.66004  1.0000
  H   H1733     1.0  0.34065  0.60290  0.58792  1.0000
  C   C972      1.0  0.31241  0.61772  0.56843  1.0000
  H   H1734     1.0  0.27569  0.60902  0.57139  1.0000
  H   H1735     1.0  0.31887  0.42567  0.56814  1.0000
  C   C973      1.0  0.32193  0.60683  0.55166  1.0000
  H   H1736     1.0  0.06095  0.60564  0.50617  1.0000
  H   H1737     1.0  0.02765  0.43119  0.67634  1.0000
  H   H1738     1.0  0.45458  0.63414  0.71710  1.0000
  H   H1739     1.0  0.32234  0.62822  0.56755  1.0000
  H   H1740     1.0  0.07026  0.58583  0.54824  1.0000
  C   C974      1.0  0.01072  0.46316  0.70686  1.0000
  H   H1741     1.0  0.44831  0.36928  0.68579  1.0000
  C   C975      1.0  0.04209  0.43517  0.70868  1.0000
  H   H1742     1.0  0.33760  0.59787  0.55241  1.0000
  H   H1743     1.0  0.19053  0.57974  0.50799  1.0000
  C   C976      1.0  0.43399  0.59332  0.70439  1.0000
  S   S215      1.0  0.15367  0.65862  0.54275  1.0000
  S   S216      1.0  0.14021  0.62633  0.58309  1.0000
  H   H1744     1.0  0.47932  0.34112  0.62693  1.0000
  C   C977      1.0  0.10907  0.59761  0.53060  1.0000
  C   C978      1.0  0.26497  0.58137  0.58459  1.0000
  H   H1745     1.0  0.14427  0.59397  0.62079  1.0000
  C   C979      1.0  0.08215  0.60951  0.59635  1.0000
  H   H1746     1.0  0.31235  0.59651  0.55143  1.0000
  C   C980      1.0  0.06437  0.61914  0.53628  1.0000
  H   H1747     1.0  0.46013  0.56166  0.57797  1.0000
  H   H1748     1.0  0.45079  0.33541  0.67880  1.0000
  C   C981      1.0  0.41325  0.59537  0.71331  1.0000
  C   C982      1.0  0.48075  0.56463  0.67369  1.0000
  H   H1749     1.0  0.29179  0.60773  0.61605  1.0000
  C   C983      1.0  0.47027  0.62006  0.62913  1.0000
  H   H1750     1.0  0.29688  0.38062  0.57403  1.0000
  H   H1751     1.0  0.05442  0.42513  0.70031  1.0000
  H   H1752     1.0  0.32177  0.40317  0.55950  1.0000
  C   C984      1.0  0.47427  0.48286  0.72955  1.0000
  H   H1753     1.0  0.46442  0.59162  0.70751  1.0000
  H   H1754     1.0  0.47031  0.47850  0.64544  1.0000
  H   H1755     1.0  0.23176  0.63194  0.60542  1.0000
  H   H1756     1.0  0.04318  0.56970  0.71056  1.0000
  H   H1757     1.0  0.35861  0.55818  0.72971  1.0000
  C   C985      1.0  0.02690  0.47489  0.66467  1.0000
  C   C986      1.0  0.12386  0.57687  0.53097  1.0000
  H   H1758     1.0  0.46899  0.34973  0.69370  1.0000
  S   S217      1.0  0.35194  0.62108  0.63088  1.0000
  S   S218      1.0  0.38398  0.57828  0.66173  1.0000
  H   H1759     1.0  0.09113  0.62120  0.59055  1.0000
  H   H1760     1.0  0.27449  0.57291  0.57353  1.0000
  H   H1761     1.0  0.45086  0.40292  0.58662  1.0000
  C   C987      1.0  0.33065  0.57901  0.61149  1.0000
  S   S219      1.0  0.11125  0.64161  0.55180  1.0000
  H   H1762     1.0  0.25473  0.64373  0.49717  1.0000
  H   H1763     1.0  0.01769  0.39227  0.59242  1.0000
  H   H1764     1.0  0.30074  0.42461  0.55551  1.0000
  N   N55       1.0  0.35504  0.49122  0.70150  1.0000
  H   H1765     1.0  0.29708  0.33118  0.63905  1.0000
  C   C988      1.0  0.34857  0.51138  0.68828  1.0000
  C   C989      1.0  0.34115  0.47732  0.70263  1.0000
  C   C990      1.0  0.37669  0.48099  0.69385  1.0000
  C   C991      1.0  0.39376  0.49180  0.69298  1.0000
  H   H1766     1.0  0.34204  0.53391  0.70585  1.0000
  C   C992      1.0  0.34027  0.47361  0.68349  1.0000
  C   C993      1.0  0.35167  0.53110  0.69199  1.0000
  C   C994      1.0  0.34498  0.54984  0.67706  1.0000
  C   C995      1.0  0.41488  0.47782  0.68908  1.0000
  C   C996      1.0  0.32352  0.46199  0.68618  1.0000
  H   H1767     1.0  0.45384  0.57865  0.59391  1.0000
  H   H1768     1.0  0.32893  0.55116  0.67632  1.0000
  H   H1769     1.0  0.35637  0.51069  0.67335  1.0000
  H   H1770     1.0  0.33188  0.51433  0.68872  1.0000
  C   C997      1.0  0.23909  0.39976  0.64457  1.0000
  H   H1771     1.0  0.34594  0.46184  0.71124  1.0000
  H   H1772     1.0  0.38020  0.46490  0.70197  1.0000
  H   H1773     1.0  0.37845  0.47969  0.67908  1.0000
  H   H1774     1.0  0.39208  0.49614  0.70640  1.0000
  H   H1775     1.0  0.39352  0.50569  0.68136  1.0000
  S   S220      1.0  0.45590  0.61750  0.61429  1.0000
  C   C998      1.0  0.28466  0.36132  0.60868  1.0000
  H   H1776     1.0  0.35499  0.46423  0.67746  1.0000
  H   H1777     1.0  0.33713  0.48806  0.67292  1.0000
  H   H1778     1.0  0.27521  0.61790  0.53076  1.0000
  H   H1779     1.0  0.36786  0.53012  0.69193  1.0000
  H   H1780     1.0  0.41744  0.47237  0.67593  1.0000
  H   H1781     1.0  0.42696  0.48632  0.68729  1.0000
  H   H1782     1.0  0.41639  0.46432  0.70100  1.0000
  H   H1783     1.0  0.32649  0.44686  0.69599  1.0000
  H   H1784     1.0  0.30827  0.47090  0.69184  1.0000
  H   H1785     1.0  0.32336  0.45944  0.67232  1.0000
  C   C999      1.0  0.22442  0.65838  0.58367  1.0000
  H   H1786     1.0  0.25251  0.39852  0.65040  1.0000
  H   H1787     1.0  0.48302  0.65013  0.69385  1.0000
  N   N56       1.0  0.48396  0.65211  0.72166  1.0000
  C   C1000     1.0  0.49076  0.62195  0.62201  1.0000
  H   H1788     1.0  0.46149  0.54876  0.62866  1.0000
  C   C1001     1.0  0.35265  0.56978  0.61366  1.0000
  H   H1789     1.0  0.42285  0.49197  0.72539  1.0000
  H   H1790     1.0  0.07786  0.42103  0.72253  1.0000
  H   H1791     1.0  0.43888  0.59213  0.68976  1.0000
  H   H1792     1.0  0.47611  0.57646  0.64547  1.0000
  Fe  Fe107     1.0  0.40296  0.59355  0.67096  1.0000
  C   C1002     1.0  0.40819  0.65261  0.59104  1.0000
  C   C1003     1.0  0.46327  0.35930  0.68101  1.0000
  C   C1004     1.0  0.35813  0.47494  0.73633  1.0000
  H   H1793     1.0  0.26405  0.63873  0.62496  1.0000
  H   H1794     1.0  0.99932  0.47174  0.69815  1.0000
  C   C1005     1.0  0.37724  0.41828  0.73072  1.0000
  H   H1795     1.0  0.36938  0.63633  0.56132  1.0000
  H   H1796     1.0  0.28501  0.36878  0.63529  1.0000
  S   S221      1.0  0.43250  0.57787  0.65519  1.0000
  C   C1006     1.0  0.25600  0.37549  0.59268  1.0000
  H   H1797     1.0  0.23260  0.64529  0.52995  1.0000
  C   C1007     1.0  0.20725  0.60381  0.50222  1.0000
  H   H1798     1.0  0.01526  0.48716  0.67071  1.0000
  C   C1008     1.0  0.46594  0.33372  0.63065  1.0000
  H   H1799     1.0  0.19782  0.58207  0.52832  1.0000
  C   C1009     1.0  0.24671  0.35666  0.57275  1.0000
  H   H1800     1.0  0.24639  0.36649  0.60475  1.0000
  C   C1010     1.0  0.44185  0.39112  0.59490  1.0000
  H   H1801     1.0  0.01354  0.57157  0.73664  1.0000
  H   H1802     1.0  0.42742  0.40884  0.73231  1.0000
  H   H1803     1.0  0.44240  0.38097  0.58561  1.0000
  N   N57       1.0  0.44706  0.34721  0.63995  1.0000
  H   H1804     1.0  0.42359  0.65646  0.56050  1.0000
  C   C1011     1.0  0.31039  0.41552  0.56573  1.0000
  C   C1012     1.0  0.22475  0.63805  0.59334  1.0000
  H   H1805     1.0  0.47717  0.44239  0.73062  1.0000
  C   C1013     1.0  0.00041  0.40521  0.69675  1.0000
  C   C1014     1.0  0.21159  0.64595  0.50436  1.0000
  C   C1015     1.0  0.47818  0.55207  0.59940  1.0000
  H   H1806     1.0  0.23854  0.34709  0.58548  1.0000
  C   C1016     1.0  0.28542  0.39186  0.58173  1.0000
  Fe  Fe108     1.0  0.42818  0.60464  0.63116  1.0000
  H   H1807     1.0  0.47043  0.51093  0.65246  1.0000
  C   C1017     1.0  0.42625  0.53453  0.69107  1.0000
  H   H1808     1.0  0.09984  0.59759  0.54512  1.0000
  H   H1809     1.0  0.25348  0.40993  0.60443  1.0000
  C   C1018     1.0  0.43769  0.36313  0.62475  1.0000
  H   H1810     1.0  0.44570  0.55441  0.60172  1.0000
  H   H1811     1.0  0.23317  0.41610  0.63852  1.0000
  H   H1812     1.0  0.24978  0.58834  0.58103  1.0000
  H   H1813     1.0  0.04589  0.47127  0.68380  1.0000
  H   H1814     1.0  0.24535  0.38961  0.58709  1.0000
  H   H1815     1.0  0.29641  0.35372  0.59793  1.0000
  N   N58       1.0  0.27220  0.38096  0.59916  1.0000
  H   H1816     1.0  0.09551  0.63876  0.52170  1.0000
  H   H1817     1.0  0.35245  0.56061  0.62827  1.0000
  C   C1019     1.0  0.27498  0.59814  0.58526  1.0000
  C   C1020     1.0  0.24405  0.63140  0.52702  1.0000
  Fe  Fe109     1.0  0.12828  0.61195  0.56633  1.0000
  C   C1021     1.0  0.04384  0.55773  0.72372  1.0000
  C   C1022     1.0  0.27557  0.64717  0.61488  1.0000
  S   S222      1.0  0.02371  0.54483  0.64855  1.0000
  H   H1818     1.0  0.05028  0.63137  0.53585  1.0000
  H   H1819     1.0  0.05647  0.62907  0.61070  1.0000
  C   C1023     1.0  0.29543  0.32809  0.49243  1.0000
  C   C1024     1.0  0.22394  0.60890  0.50919  1.0000
  Fe  Fe110     1.0  0.01726  0.57692  0.65243  1.0000
  C   C1025     1.0  0.07134  0.48531  0.73606  1.0000
  C   C1026     1.0  0.00884  0.40818  0.58898  1.0000
  C   C1027     1.0  0.40702  0.59723  0.73220  1.0000
  C   C1028     1.0  0.36294  0.63026  0.59183  1.0000
  H   H1820     1.0  0.23572  0.37049  0.56741  1.0000
  C   C1029     1.0  0.20290  0.58275  0.51287  1.0000
  H   H1821     1.0  0.07193  0.62250  0.54601  1.0000
  H   H1822     1.0  0.05234  0.54291  0.71990  1.0000
  Fe  Fe111     1.0  0.38303  0.60535  0.63721  1.0000
  Fe  Fe112     1.0  0.16690  0.62760  0.55828  1.0000
  H   H1823     1.0  0.42273  0.37211  0.63118  1.0000
  H   H1824     1.0  0.48087  0.57980  0.67570  1.0000
  H   H1825     1.0  0.04477  0.60376  0.68115  1.0000
  H   H1826     1.0  0.05255  0.47410  0.64023  1.0000
  H   H1827     1.0  0.48674  0.62157  0.71817  1.0000
  H   H1828     1.0  0.27257  0.63600  0.59205  1.0000
  H   H1829     1.0  0.35512  0.54886  0.66297  1.0000
  C   C1030     1.0  0.20709  0.63339  0.57169  1.0000
  H   H1830     1.0  0.03156  0.49572  0.63730  1.0000
  H   H1831     1.0  0.06241  0.45592  0.70600  1.0000
  C   C1031     1.0  0.44840  0.59301  0.71447  1.0000
  C   C1032     1.0  0.45819  0.56234  0.59291  1.0000
  H   H1832     1.0  0.41366  0.64396  0.60417  1.0000
  H   H1833     1.0  0.37627  0.61803  0.59304  1.0000
  H   H1834     1.0  0.05088  0.63200  0.50503  1.0000
  C   C1033     1.0  0.47828  0.50828  0.63815  1.0000
  H   H1835     1.0  0.28639  0.41959  0.59002  1.0000
  S   S223      1.0  0.41101  0.59065  0.61842  1.0000
  H   H1836     1.0  0.46315  0.48117  0.72227  1.0000
  H   H1837     1.0  0.46578  0.62192  0.67476  1.0000
  H   H1838     1.0  0.18199  0.65321  0.61413  1.0000
  C   C1034     1.0  0.03919  0.46088  0.67954  1.0000
  C   C1035     1.0  0.04087  0.48552  0.64744  1.0000
  C   C1036     1.0  0.08677  0.63906  0.51133  1.0000
  H   H1839     1.0  0.02912  0.40337  0.70323  1.0000
  C   C1037     1.0  0.34912  0.63519  0.60814  1.0000
  H   H1840     1.0  0.20532  0.64315  0.51994  1.0000
  C   C1038     1.0  0.48721  0.56444  0.65263  1.0000
  S   S224      1.0  0.39999  0.62167  0.64779  1.0000
  H   H1841     1.0  0.26277  0.57048  0.59852  1.0000
  C   C1039     1.0  0.29717  0.40651  0.58450  1.0000
  C   C1040     1.0  0.30765  0.34178  0.63158  1.0000
  H   H1842     1.0  0.43385  0.61432  0.58613  1.0000
  C   C1041     1.0  0.46139  0.61996  0.64820  1.0000
  Fe  Fe113     1.0  0.14020  0.64177  0.52946  1.0000
  C   C1042     1.0  0.28508  0.63756  0.59763  1.0000
  C   C1043     1.0  0.44211  0.59477  0.73343  1.0000
  H   H1843     1.0  0.29356  0.64846  0.58663  1.0000
  H   H1844     1.0  0.03858  0.58499  0.57229  1.0000
  C   C1044     1.0  0.45250  0.35850  0.65173  1.0000
  H   H1845     1.0  0.19774  0.33484  0.48921  1.0000
  H   H1846     1.0  0.46724  0.51445  0.62878  1.0000
  C   C1045     1.0  0.29589  0.36280  0.62325  1.0000
  H   H1847     1.0  0.22692  0.39399  0.65634  1.0000
  C   C1046     1.0  0.43083  0.33557  0.65211  1.0000
  H   H1848     1.0  0.31571  0.34329  0.64180  1.0000
  H   H1849     1.0  0.13311  0.57567  0.51660  1.0000
  H   H1850     1.0  0.23088  0.38811  0.62480  1.0000
  H   H1851     1.0  0.43890  0.37008  0.65656  1.0000
  C   C1047     1.0  0.39853  0.41355  0.72474  1.0000
  H   H1852     1.0  0.36103  0.50533  0.72131  1.0000
  H   H1853     1.0  0.19884  0.64580  0.49821  1.0000
  H   H1854     1.0  0.01218  0.41766  0.59701  1.0000
  H   H1855     1.0  0.23762  0.59616  0.50825  1.0000
  H   H1856     1.0  0.10613  0.60334  0.50206  1.0000
  H   H1857     1.0  0.27929  0.32959  0.49890  1.0000
  H   H1858     1.0  0.09813  0.63937  0.49777  1.0000
  H   H1859     1.0  0.43779  0.52230  0.72283  1.0000
  H   H1860     1.0  0.01910  0.46611  0.65965  1.0000
  C   C1048     1.0  0.05713  0.59873  0.54591  1.0000
  C   C1049     1.0  0.20590  0.65401  0.56253  1.0000
  C   C1050     1.0  0.04291  0.59998  0.56525  1.0000
  H   H1861     1.0  0.28744  0.64711  0.62217  1.0000
  C   C1051     1.0  0.42898  0.62461  0.57334  1.0000
  H   H1862     1.0  0.49199  0.48133  0.62590  1.0000
  C   C1052     1.0  0.48424  0.48514  0.63988  1.0000
  C   C1053     1.0  0.48806  0.54303  0.64949  1.0000
  C   C1054     1.0  0.06573  0.43169  0.73028  1.0000
  C   C1055     1.0  0.46112  0.65656  0.72938  1.0000
  H   H1863     1.0  0.32119  0.65492  0.61902  1.0000
  H   H1864     1.0  0.33054  0.61429  0.52096  1.0000
  H   H1865     1.0  0.42560  0.54789  0.72392  1.0000
  H   H1866     1.0  0.44061  0.64883  0.57618  1.0000
  C   C1056     1.0  0.42242  0.53243  0.72592  1.0000
  C   C1057     1.0  0.48536  0.43837  0.67795  1.0000
  C   C1058     1.0  0.01782  0.43524  0.68978  1.0000
  C   C1059     1.0  0.33180  0.65091  0.60644  1.0000
  H   H1867     1.0  0.00299  0.44396  0.68611  1.0000
  H   H1868     1.0  0.48886  0.48450  0.71907  1.0000
  C   C1060     1.0  0.42614  0.65067  0.73064  1.0000
  H   H1869     1.0  0.41085  0.33763  0.63327  1.0000
  H   H1870     1.0  0.37528  0.65223  0.62119  1.0000
  C   C1061     1.0  0.34112  0.65568  0.57228  1.0000
  H   H1871     1.0  0.16570  0.33417  0.51328  1.0000
  C   C1062     1.0  0.01424  0.41445  0.70314  1.0000
  H   H1872     1.0  0.46418  0.33223  0.61687  1.0000
  S   S225      1.0  0.13770  0.65410  0.49913  1.0000
  N   N59       1.0  0.49362  0.54084  0.62917  1.0000
  C   C1063     1.0  0.48624  0.41988  0.65467  1.0000
  H   H1873     1.0  0.41726  0.64601  0.72294  1.0000
  C   C1064     1.0  0.49334  0.62360  0.65304  1.0000
  H   H1874     1.0  0.34703  0.37746  0.73576  1.0000
  H   H1875     1.0  0.49451  0.47800  0.64990  1.0000
  H   H1876     1.0  0.00708  0.41593  0.71782  1.0000
  C   C1065     1.0  0.99819  0.45376  0.72613  1.0000
  H   H1877     1.0  0.49141  0.55281  0.68162  1.0000
  H   H1878     1.0  0.99916  0.38987  0.70593  1.0000
  H   H1879     1.0  0.45875  0.61634  0.85269  1.0000
  S   S226      1.0  0.05086  0.41763  0.79240  1.0000
  S   S227      1.0  0.46265  0.57241  0.79731  1.0000
  H   H1880     1.0  0.47411  0.50982  0.79726  1.0000
  C   C1066     1.0  0.02333  0.50520  0.81176  1.0000
  H   H1881     1.0  0.32584  0.37751  0.83010  1.0000
  Fe  Fe114     1.0  0.03415  0.45048  0.78765  1.0000
  Fe  Fe115     1.0  0.02968  0.41491  0.82106  1.0000
  S   S228      1.0  0.03707  0.39548  0.84847  1.0000
  H   H1882     1.0  0.02495  0.53512  0.79449  1.0000
  H   H1883     1.0  0.03145  0.54654  0.76128  1.0000
  C   C1067     1.0  0.32408  0.40589  0.79600  1.0000
  H   H1884     1.0  0.33326  0.41387  0.78286  1.0000
  Fe  Fe116     1.0  0.43117  0.57628  0.81551  1.0000
  S   S229      1.0  0.42243  0.54654  0.83254  1.0000
  H   H1885     1.0  0.43314  0.49628  0.75186  1.0000
  S   S230      1.0  0.19485  0.36360  0.87186  1.0000
  Fe  Fe117     1.0  0.11825  0.38706  0.89414  1.0000
  H   H1886     1.0  0.37614  0.33978  0.95098  1.0000
  S   S231      1.0  0.09661  0.41704  0.88653  1.0000
  H   H1887     1.0  0.05713  0.47989  0.91498  1.0000
  H   H1888     1.0  0.48442  0.53272  0.79038  1.0000
  S   S232      1.0  0.14450  0.38256  0.90772  1.0000
  N   N60       1.0  0.33311  0.38323  0.79958  1.0000
  C   C1068     1.0  0.47774  0.46435  0.74579  1.0000
  Fe  Fe118     1.0  0.38563  0.46825  0.80930  1.0000
  S   S233      1.0  0.41741  0.45245  0.79803  1.0000
  S   S234      1.0  0.37532  0.50232  0.80080  1.0000
  Fe  Fe119     1.0  0.37347  0.42913  0.83378  1.0000
  S   S235      1.0  0.40445  0.40969  0.82505  1.0000
  S   S236      1.0  0.34628  0.41931  0.85538  1.0000
  Fe  Fe120     1.0  0.41665  0.43517  0.82795  1.0000
  S   S237      1.0  0.44319  0.42901  0.84169  1.0000
  Fe  Fe121     1.0  0.40285  0.42847  0.79580  1.0000
  S   S238      1.0  0.41786  0.41534  0.76996  1.0000
  S   S239      1.0  0.38587  0.45286  0.83950  1.0000
  S   S240      1.0  0.37073  0.44600  0.80423  1.0000
  H   H1889     1.0  0.03692  0.50429  0.81719  1.0000
  C   C1069     1.0  0.46305  0.44069  0.82657  1.0000
  H   H1890     1.0  0.38882  0.35954  0.93552  1.0000
  H   H1891     1.0  0.48664  0.41951  0.83975  1.0000
  C   C1070     1.0  0.19682  0.38369  0.96987  1.0000
  C   C1071     1.0  0.47478  0.46599  0.79909  1.0000
  C   C1072     1.0  0.45883  0.45778  0.81220  1.0000
  C   C1073     1.0  0.35500  0.36686  0.93920  1.0000
  H   H1892     1.0  0.34837  0.64266  0.87538  1.0000
  H   H1893     1.0  0.47140  0.47890  0.78772  1.0000
  H   H1894     1.0  0.44326  0.46491  0.81135  1.0000
  C   C1074     1.0  0.33943  0.35420  0.86167  1.0000
  C   C1075     1.0  0.35721  0.36065  0.85037  1.0000
  C   C1076     1.0  0.35951  0.38059  0.84848  1.0000
  C   C1077     1.0  0.34396  0.39418  0.85779  1.0000
  C   C1078     1.0  0.32633  0.38761  0.86939  1.0000
  C   C1079     1.0  0.32410  0.36761  0.87140  1.0000
  H   H1895     1.0  0.33449  0.35753  0.78800  1.0000
  H   H1896     1.0  0.37324  0.38546  0.83968  1.0000
  H   H1897     1.0  0.31429  0.39806  0.87670  1.0000
  H   H1898     1.0  0.31024  0.36278  0.87999  1.0000
  Fe  Fe122     1.0  0.02541  0.41255  0.78247  1.0000
  Fe  Fe123     1.0  0.16215  0.36332  0.88668  1.0000
  C   C1080     1.0  0.33193  0.36439  0.92102  1.0000
  H   H1899     1.0  0.18750  0.34771  0.97000  1.0000
  H   H1900     1.0  0.37986  0.56023  0.75976  1.0000
  C   C1081     1.0  0.20974  0.35579  0.88888  1.0000
  C   C1082     1.0  0.03468  0.35201  0.81293  1.0000
  C   C1083     1.0  0.14538  0.37484  0.95827  1.0000
  H   H1901     1.0  0.47269  0.55396  0.85909  1.0000
  H   H1902     1.0  0.15187  0.37619  0.94337  1.0000
  C   C1084     1.0  0.45993  0.54804  0.85785  1.0000
  S   S241      1.0  0.13695  0.37066  0.87126  1.0000
  C   C1085     1.0  0.38081  0.42238  0.76055  1.0000
  H   H1903     1.0  0.35465  0.65002  0.89398  1.0000
  H   H1904     1.0  0.37392  0.42568  0.77437  1.0000
  C   C1086     1.0  0.41085  0.53491  0.82159  1.0000
  C   C1087     1.0  0.39512  0.54628  0.81239  1.0000
  C   C1088     1.0  0.38413  0.53624  0.80605  1.0000
  C   C1089     1.0  0.38923  0.51489  0.80849  1.0000
  C   C1090     1.0  0.40551  0.50368  0.81698  1.0000
  C   C1091     1.0  0.41623  0.51366  0.82362  1.0000
  H   H1905     1.0  0.39095  0.56273  0.81075  1.0000
  H   H1906     1.0  0.37165  0.54499  0.79932  1.0000
  H   H1907     1.0  0.40960  0.48724  0.81882  1.0000
  H   H1908     1.0  0.42845  0.50480  0.83066  1.0000
  H   H1909     1.0  0.08344  0.35834  0.96074  1.0000
  H   H1910     1.0  0.46270  0.46300  0.75551  1.0000
  C   C1092     1.0  0.23362  0.34100  0.91615  1.0000
  C   C1093     1.0  0.07873  0.41241  0.87647  1.0000
  C   C1094     1.0  0.07278  0.42591  0.86035  1.0000
  C   C1095     1.0  0.05974  0.42110  0.85160  1.0000
  C   C1096     1.0  0.05237  0.40300  0.85926  1.0000
  C   C1097     1.0  0.05772  0.39001  0.87573  1.0000
  C   C1098     1.0  0.07098  0.39460  0.88419  1.0000
  H   H1911     1.0  0.07880  0.43969  0.85427  1.0000
  H   H1912     1.0  0.05565  0.43119  0.83885  1.0000
  H   H1913     1.0  0.05187  0.37614  0.88182  1.0000
  H   H1914     1.0  0.07501  0.38438  0.89683  1.0000
  H   H1915     1.0  0.03861  0.51470  0.78300  1.0000
  H   H1916     1.0  0.33491  0.39904  0.75913  1.0000
  C   C1099     1.0  0.47867  0.52022  0.82906  1.0000
  C   C1100     1.0  0.08131  0.41096  0.94435  1.0000
  H   H1917     1.0  0.44717  0.51171  0.76447  1.0000
  H   H1918     1.0  0.17693  0.34417  0.83602  1.0000
  H   H1919     1.0  0.09394  0.38690  0.96686  1.0000
  C   C1101     1.0  0.31559  0.43992  0.80578  1.0000
  C   C1102     1.0  0.10037  0.33367  0.81819  1.0000
  H   H1920     1.0  0.10351  0.34971  0.84636  1.0000
  H   H1921     1.0  0.29036  0.36833  0.93847  1.0000
  S   S242      1.0  0.05230  0.47487  0.77310  1.0000
  C   C1103     1.0  0.37496  0.35662  0.94646  1.0000
  H   H1922     1.0  0.43972  0.60033  0.88382  1.0000
  H   H1923     1.0  0.35170  0.38353  0.93887  1.0000
  N   N61       1.0  0.48316  0.51470  0.84848  1.0000
  H   H1924     1.0  0.23837  0.35523  0.86841  1.0000
  H   H1925     1.0  0.06190  0.37836  0.96692  1.0000
  H   H1926     1.0  0.47021  0.48204  0.84031  1.0000
  C   C1104     1.0  0.38396  0.38115  0.90004  1.0000
  C   C1105     1.0  0.40113  0.65850  0.83236  1.0000
  H   H1927     1.0  0.30013  0.44365  0.80266  1.0000
  H   H1928     1.0  0.36142  0.36139  0.97513  1.0000
  H   H1929     1.0  0.15264  0.40278  0.95900  1.0000
  C   C1106     1.0  0.19152  0.34726  0.98340  1.0000
  H   H1930     1.0  0.01293  0.57022  0.77650  1.0000
  H   H1931     1.0  0.10593  0.41252  0.96840  1.0000
  C   C1107     1.0  0.29441  0.38180  0.92737  1.0000
  H   H1932     1.0  0.29746  0.34867  0.84610  1.0000
  H   H1933     1.0  0.48503  0.62285  0.74167  1.0000
  H   H1934     1.0  0.02032  0.48760  0.75220  1.0000
  H   H1935     1.0  0.06968  0.34120  0.87415  1.0000
  H   H1936     1.0  0.31181  0.41136  0.82493  1.0000
  S   S243      1.0  0.45697  0.62191  0.78673  1.0000
  N   N62       1.0  0.46035  0.65599  0.85858  1.0000
  N   N63       1.0  0.41156  0.52505  0.74605  1.0000
  S   S244      1.0  0.01037  0.44561  0.77547  1.0000
  H   H1937     1.0  0.46428  0.58427  0.87634  1.0000
  H   H1938     1.0  0.07372  0.33047  0.91552  1.0000
  C   C1108     1.0  0.00555  0.52142  0.78431  1.0000
  C   C1109     1.0  0.32275  0.37238  0.81866  1.0000
  H   H1939     1.0  0.29132  0.39099  0.81918  1.0000
  C   C1110     1.0  0.35441  0.48010  0.75561  1.0000
  H   H1940     1.0  0.19159  0.38443  0.95701  1.0000
  H   H1941     1.0  0.44325  0.55025  0.88660  1.0000
  H   H1942     1.0  0.32651  0.44631  0.79307  1.0000
  C   C1111     1.0  0.47590  0.42291  0.76863  1.0000
  H   H1943     1.0  0.11557  0.33424  0.82002  1.0000
  H   H1944     1.0  0.49160  0.64161  0.84788  1.0000
  C   C1112     1.0  0.07581  0.37448  0.95594  1.0000
  S   S245      1.0  0.01503  0.44819  0.81731  1.0000
  H   H1945     1.0  0.32690  0.35077  0.93118  1.0000
  H   H1946     1.0  0.32260  0.37317  0.75043  1.0000
  C   C1113     1.0  0.36114  0.38018  0.90425  1.0000
  C   C1114     1.0  0.09054  0.38849  0.95295  1.0000
  H   H1947     1.0  0.46362  0.51700  0.82969  1.0000
  C   C1115     1.0  0.48313  0.65394  0.85557  1.0000
  C   C1116     1.0  0.36557  0.33651  0.89958  1.0000
  H   H1948     1.0  0.31479  0.44723  0.81741  1.0000
  H   H1949     1.0  0.29219  0.37322  0.85230  1.0000
  C   C1117     1.0  0.02256  0.54108  0.75426  1.0000
  C   C1118     1.0  0.35553  0.38024  0.79921  1.0000
  H   H1950     1.0  0.39751  0.36780  0.78530  1.0000
  H   H1951     1.0  0.03742  0.36579  0.80167  1.0000
  Fe  Fe124     1.0  0.46712  0.59610  0.80981  1.0000
  H   H1952     1.0  0.42743  0.55040  0.87103  1.0000
  Fe  Fe125     1.0  0.44935  0.59821  0.77607  1.0000
  H   H1953     1.0  0.36825  0.35271  0.78705  1.0000
  H   H1954     1.0  0.34873  0.46366  0.73831  1.0000
  C   C1119     1.0  0.31615  0.38364  0.92627  1.0000
  H   H1955     1.0  0.38226  0.34040  0.91795  1.0000
  H   H1956     1.0  0.39613  0.63500  0.87897  1.0000
  H   H1957     1.0  0.35950  0.46606  0.76593  1.0000
  H   H1958     1.0  0.05115  0.44842  0.95278  1.0000
  H   H1959     1.0  0.35771  0.37912  0.89107  1.0000
  N   N64       1.0  0.36498  0.50946  0.87748  1.0000
  C   C1120     1.0  0.34959  0.50120  0.87253  1.0000
  C   C1121     1.0  0.35975  0.50895  0.89846  1.0000
  C   C1122     1.0  0.36356  0.53153  0.86688  1.0000
  C   C1123     1.0  0.38663  0.49812  0.87142  1.0000
  C   C1124     1.0  0.39142  0.47478  0.87936  1.0000
  C   C1125     1.0  0.35205  0.50210  0.85126  1.0000
  C   C1126     1.0  0.37601  0.54400  0.87198  1.0000
  C   C1127     1.0  0.35000  0.49107  0.91203  1.0000
  C   C1128     1.0  0.34934  0.49026  0.93264  1.0000
  C   C1129     1.0  0.41321  0.46524  0.87030  1.0000
  C   C1130     1.0  0.33700  0.49135  0.84838  1.0000
  C   C1131     1.0  0.37250  0.56623  0.86100  1.0000
  H   H1960     1.0  0.33382  0.50972  0.87762  1.0000
  H   H1961     1.0  0.34973  0.48501  0.87994  1.0000
  H   H1962     1.0  0.37357  0.50914  0.90311  1.0000
  H   H1963     1.0  0.34839  0.52303  0.90154  1.0000
  H   H1964     1.0  0.34727  0.53991  0.86903  1.0000
  H   H1965     1.0  0.36906  0.53251  0.85137  1.0000
  H   H1966     1.0  0.39113  0.50081  0.85581  1.0000
  H   H1967     1.0  0.39758  0.50429  0.87547  1.0000
  H   H1968     1.0  0.38091  0.46705  0.87655  1.0000
  H   H1969     1.0  0.39052  0.47153  0.89477  1.0000
  H   H1970     1.0  0.34901  0.51815  0.84317  1.0000
  H   H1971     1.0  0.36765  0.49447  0.84510  1.0000
  H   H1972     1.0  0.39264  0.53752  0.86839  1.0000
  H   H1973     1.0  0.37161  0.54421  0.88724  1.0000
  H   H1974     1.0  0.33397  0.49331  0.91068  1.0000
  H   H1975     1.0  0.35831  0.47599  0.90895  1.0000
  H   H1976     1.0  0.34054  0.50492  0.93661  1.0000
  H   H1977     1.0  0.34175  0.47776  0.94202  1.0000
  H   H1978     1.0  0.36509  0.48717  0.93496  1.0000
  H   H1979     1.0  0.41535  0.46813  0.85470  1.0000
  H   H1980     1.0  0.42456  0.47158  0.87357  1.0000
  H   H1981     1.0  0.41626  0.44842  0.87588  1.0000
  H   H1982     1.0  0.33985  0.47489  0.85554  1.0000
  H   H1983     1.0  0.32097  0.49870  0.85396  1.0000
  H   H1984     1.0  0.33900  0.49234  0.83304  1.0000
  H   H1985     1.0  0.37686  0.56702  0.84553  1.0000
  H   H1986     1.0  0.35621  0.57394  0.86488  1.0000
  H   H1987     1.0  0.38215  0.57459  0.86433  1.0000
  H   H1988     1.0  0.20836  0.33210  0.84842  1.0000
  H   H1989     1.0  0.43628  0.63953  0.87359  1.0000
  H   H1990     1.0  0.33467  0.63602  0.89956  1.0000
  C   C1132     1.0  0.09049  0.35752  0.83928  1.0000
  C   C1133     1.0  0.06436  0.35274  0.82582  1.0000
  H   H1991     1.0  0.29566  0.36683  0.81274  1.0000
  H   H1992     1.0  0.29656  0.35360  0.97641  1.0000
  C   C1134     1.0  0.09693  0.37576  0.82339  1.0000
  H   H1993     1.0  0.43927  0.65721  0.84170  1.0000
  C   C1135     1.0  0.20680  0.36175  0.97793  1.0000
  H   H1994     1.0  0.25956  0.34198  0.89256  1.0000
  C   C1136     1.0  0.10874  0.38708  0.83001  1.0000
  H   H1995     1.0  0.43042  0.46075  0.75104  1.0000
  H   H1996     1.0  0.27346  0.36636  0.84424  1.0000
  C   C1137     1.0  0.18569  0.32821  0.83620  1.0000
  H   H1997     1.0  0.02813  0.34255  0.80739  1.0000
  N   N65       1.0  0.00213  0.53803  0.76698  1.0000
  H   H1998     1.0  0.07824  0.36474  0.84987  1.0000
  H   H1999     1.0  0.05240  0.35977  0.83665  1.0000
  H   H2000     1.0  0.06758  0.36574  0.81377  1.0000
  C   C1138     1.0  0.45927  0.40109  0.79912  1.0000
  H   H2001     1.0  0.00105  0.51983  0.74820  1.0000
  H   H2002     1.0  0.00837  0.50604  0.78108  1.0000
  H   H2003     1.0  0.04863  0.34019  0.86503  1.0000
  H   H2004     1.0  0.08311  0.38689  0.81959  1.0000
  H   H2005     1.0  0.10679  0.37087  0.81043  1.0000
  C   C1139     1.0  0.00806  0.39066  0.75746  1.0000
  H   H2006     1.0  0.46447  0.45027  0.86322  1.0000
  H   H2007     1.0  0.16891  0.32625  0.97299  1.0000
  H   H2008     1.0  0.44083  0.53549  0.78488  1.0000
  H   H2009     1.0  0.45751  0.64878  0.74458  1.0000
  C   C1140     1.0  0.42138  0.59688  0.74223  1.0000
  H   H2010     1.0  0.20491  0.34233  0.93658  1.0000
  S   S246      1.0  0.13184  0.34184  0.95676  1.0000
  H   H2011     1.0  0.11170  0.40103  0.81910  1.0000
  H   H2012     1.0  0.09981  0.39178  0.84336  1.0000
  H   H2013     1.0  0.12364  0.37714  0.83240  1.0000
  C   C1141     1.0  0.44075  0.55572  0.87196  1.0000
  H   H2014     1.0  0.43707  0.57268  0.86864  1.0000
  H   H2015     1.0  0.35236  0.39547  0.90670  1.0000
  H   H2016     1.0  0.34806  0.55372  0.75505  1.0000
  H   H2017     1.0  0.40395  0.62703  0.84733  1.0000
  H   H2018     1.0  0.34988  0.33601  0.89932  1.0000
  H   H2019     1.0  0.45557  0.48711  0.86285  1.0000
  N   N66       1.0  0.09270  0.42685  0.94390  1.0000
  C   C1142     1.0  0.40208  0.41708  0.75482  1.0000
  Fe  Fe126     1.0  0.13472  0.35355  0.92525  1.0000
  C   C1143     1.0  0.40101  0.64271  0.84855  1.0000
  H   H2020     1.0  0.35805  0.38071  0.76278  1.0000
  H   H2021     1.0  0.46098  0.59806  0.89431  1.0000
  H   H2022     1.0  0.48730  0.46758  0.75368  1.0000
  H   H2023     1.0  0.46473  0.40762  0.80824  1.0000
  H   H2024     1.0  0.36299  0.39068  0.78673  1.0000
  C   C1144     1.0  0.05036  0.47521  0.93030  1.0000
  H   H2025     1.0  0.06525  0.41429  0.95229  1.0000
  H   H2026     1.0  0.01906  0.35985  0.75330  1.0000
  H   H2027     1.0  0.35741  0.38468  0.81157  1.0000
  H   H2028     1.0  0.33790  0.41409  0.81536  1.0000
  H   H2029     1.0  0.07125  0.37592  0.94256  1.0000
  H   H2030     1.0  0.38758  0.39206  0.86950  1.0000
  C   C1145     1.0  0.13581  0.35864  0.96850  1.0000
  C   C1146     1.0  0.29925  0.37471  0.82199  1.0000
  H   H2031     1.0  0.30851  0.40910  0.79318  1.0000
  H   H2032     1.0  0.00930  0.51020  0.82218  1.0000
  Fe  Fe127     1.0  0.42563  0.62248  0.80586  1.0000
  H   H2033     1.0  0.06575  0.44405  0.97617  1.0000
  S   S247      1.0  0.46037  0.59445  0.74577  1.0000
  H   H2034     1.0  0.31364  0.37809  0.78416  1.0000
  H   H2035     1.0  0.29294  0.38020  0.91356  1.0000
  H   H2036     1.0  0.08671  0.45994  0.93903  1.0000
  H   H2037     1.0  0.42585  0.63989  0.74463  1.0000
  H   H2038     1.0  0.47636  0.45561  0.87923  1.0000
  H   H2039     1.0  0.22022  0.35692  0.96687  1.0000
  H   H2040     1.0  0.33786  0.48603  0.76088  1.0000
  C   C1147     1.0  0.05874  0.45256  0.93771  1.0000
  S   S248      1.0  0.10687  0.35970  0.91345  1.0000
  H   H2041     1.0  0.08028  0.41152  0.92970  1.0000
  H   H2042     1.0  0.20809  0.39366  0.96594  1.0000
  C   C1148     1.0  0.07522  0.42839  0.97895  1.0000
  H   H2043     1.0  0.48018  0.61381  0.86282  1.0000
  H   H2044     1.0  0.46618  0.51826  0.87661  1.0000
  N   N67       1.0  0.08332  0.34202  0.83338  1.0000
  H   H2045     1.0  0.40327  0.46436  0.76157  1.0000
  H   H2046     1.0  0.40590  0.39765  0.87915  1.0000
  S   S249      1.0  0.43644  0.59829  0.82962  1.0000
  H   H2047     1.0  0.09906  0.34356  0.80398  1.0000
  C   C1149     1.0  0.46325  0.61667  0.86560  1.0000
  C   C1150     1.0  0.36852  0.35826  0.79939  1.0000
  H   H2048     1.0  0.31650  0.38577  0.94022  1.0000
  H   H2049     1.0  0.28335  0.39572  0.93101  1.0000
  H   H2050     1.0  0.02361  0.48969  0.81026  1.0000
  C   C1151     1.0  0.45315  0.63733  0.87173  1.0000
  C   C1152     1.0  0.38962  0.39673  0.88170  1.0000
  H   H2051     1.0  0.25820  0.33583  0.84306  1.0000
  S   S250      1.0  0.40627  0.65338  0.80971  1.0000
  C   C1153     1.0  0.36843  0.42287  0.74854  1.0000
  C   C1154     1.0  0.41666  0.50197  0.75194  1.0000
  C   C1155     1.0  0.41869  0.53353  0.75898  1.0000
  C   C1156     1.0  0.21227  0.34522  0.92174  1.0000
  C   C1157     1.0  0.48794  0.51590  0.79536  1.0000
  H   H2052     1.0  0.45547  0.63523  0.88614  1.0000
  C   C1158     1.0  0.44203  0.52813  0.75822  1.0000
  H   H2053     1.0  0.10488  0.38277  0.94327  1.0000
  C   C1159     1.0  0.23110  0.35234  0.88327  1.0000
  S   S251      1.0  0.41714  0.60066  0.79348  1.0000
  C   C1160     1.0  0.24307  0.34484  0.89691  1.0000
  C   C1161     1.0  0.44740  0.54032  0.76955  1.0000
  H   H2054     1.0  0.38123  0.52499  0.76387  1.0000
  H   H2055     1.0  0.37993  0.41217  0.88250  1.0000
  H   H2056     1.0  0.18389  0.35507  0.91257  1.0000
  H   H2057     1.0  0.40853  0.49688  0.76685  1.0000
  H   H2058     1.0  0.41085  0.52844  0.77386  1.0000
  C   C1162     1.0  0.05470  0.33967  0.81853  1.0000
  H   H2059     1.0  0.39224  0.36272  0.81085  1.0000
  H   H2060     1.0  0.44157  0.55698  0.76488  1.0000
  H   H2061     1.0  0.35200  0.42694  0.75295  1.0000
  C   C1163     1.0  0.47450  0.40085  0.78017  1.0000
  H   H2062     1.0  0.08798  0.45067  0.91894  1.0000
  H   H2063     1.0  0.47711  0.53693  0.82335  1.0000
  C   C1164     1.0  0.38856  0.53198  0.74927  1.0000
  C   C1165     1.0  0.49164  0.65009  0.87342  1.0000
  C   C1166     1.0  0.37500  0.36425  0.96361  1.0000
  C   C1167     1.0  0.34199  0.64798  0.88884  1.0000
  H   H2064     1.0  0.39419  0.36621  0.89836  1.0000
  C   C1168     1.0  0.36593  0.34247  0.91785  1.0000
  C   C1169     1.0  0.06361  0.33163  0.86832  1.0000
  C   C1170     1.0  0.32280  0.41680  0.81184  1.0000
  C   C1171     1.0  0.33012  0.37454  0.78453  1.0000
  H   H2065     1.0  0.46137  0.42871  0.76348  1.0000
  H   H2066     1.0  0.32932  0.35566  0.82113  1.0000
  H   H2067     1.0  0.33012  0.36368  0.90708  1.0000
  H   H2068     1.0  0.45096  0.53177  0.74349  1.0000
  H   H2069     1.0  0.46427  0.53771  0.76728  1.0000
  H   H2070     1.0  0.05381  0.48477  0.93817  1.0000
  S   S252      1.0  0.15424  0.33391  0.90503  1.0000
  H   H2071     1.0  0.39994  0.34182  0.79891  1.0000
  H   H2072     1.0  0.18359  0.38964  0.98056  1.0000
  C   C1172     1.0  0.11387  0.42177  0.93176  1.0000
  H   H2073     1.0  0.06514  0.33497  0.80568  1.0000
  C   C1173     1.0  0.45656  0.59878  0.88104  1.0000
  H   H2074     1.0  0.03349  0.47797  0.93223  1.0000
  C   C1174     1.0  0.12795  0.43701  0.92834  1.0000
  H   H2075     1.0  0.34588  0.35465  0.75420  1.0000
  S   S253      1.0  0.03069  0.39133  0.76314  1.0000
  H   H2076     1.0  0.05424  0.44373  0.92981  1.0000
  H   H2077     1.0  0.36288  0.34741  0.81247  1.0000
  C   C1175     1.0  0.14841  0.43083  0.91502  1.0000
  H   H2078     1.0  0.10214  0.43931  0.96274  1.0000
  C   C1176     1.0  0.29012  0.36511  0.84241  1.0000
  H   H2079     1.0  0.45755  0.38526  0.80654  1.0000
  C   C1177     1.0  0.46475  0.52433  0.86165  1.0000
  H   H2080     1.0  0.11279  0.42045  0.91768  1.0000
  H   H2081     1.0  0.12231  0.40666  0.93814  1.0000
  H   H2082     1.0  0.13138  0.43722  0.94180  1.0000
  H   H2083     1.0  0.46482  0.64500  0.83317  1.0000
  H   H2084     1.0  0.48684  0.63689  0.88433  1.0000
  C   C1178     1.0  0.34143  0.38259  0.76401  1.0000
  C   C1179     1.0  0.41488  0.46723  0.74819  1.0000
  H   H2085     1.0  0.47492  0.43255  0.77861  1.0000
  H   H2086     1.0  0.45074  0.52006  0.86087  1.0000
  H   H2087     1.0  0.12081  0.45276  0.92190  1.0000
  Fe  Fe128     1.0  0.12734  0.34298  0.89152  1.0000
  H   H2088     1.0  0.38697  0.38616  0.91158  1.0000
  H   H2089     1.0  0.36918  0.35020  0.84302  1.0000
  C   C1180     1.0  0.31031  0.34180  0.97704  1.0000
  H   H2090     1.0  0.36308  0.49166  0.75487  1.0000
  C   C1181     1.0  0.08240  0.44792  0.93464  1.0000
  H   H2091     1.0  0.99699  0.55833  0.79803  1.0000
  H   H2092     1.0  0.37164  0.34744  0.88678  1.0000
  H   H2093     1.0  0.06616  0.41705  0.98008  1.0000
  C   C1182     1.0  0.20035  0.35239  0.90812  1.0000
  H   H2094     1.0  0.38897  0.35602  0.96906  1.0000
  H   H2095     1.0  0.14602  0.43061  0.90111  1.0000
  H   H2096     1.0  0.15815  0.44198  0.91270  1.0000
  H   H2097     1.0  0.15666  0.41545  0.92124  1.0000
  H   H2098     1.0  0.41633  0.59836  0.75674  1.0000
  H   H2099     1.0  0.45706  0.55486  0.84348  1.0000
  H   H2100     1.0  0.31912  0.39760  0.91542  1.0000
  C   C1183     1.0  0.39090  0.35768  0.79857  1.0000
  C   C1184     1.0  0.39641  0.64726  0.86648  1.0000
  C   C1185     1.0  0.09500  0.42657  0.96331  1.0000
  C   C1186     1.0  0.14613  0.38971  0.96721  1.0000
  H   H2101     1.0  0.02333  0.35690  0.82534  1.0000
  N   N68       1.0  0.35402  0.36352  0.92047  1.0000
  C   C1187     1.0  0.02408  0.52022  0.79262  1.0000
  S   S254      1.0  0.00593  0.40634  0.81157  1.0000
  H   H2102     1.0  0.37485  0.38089  0.95968  1.0000
  H   H2103     1.0  0.34281  0.36069  0.95079  1.0000
  C   C1188     1.0  0.13812  0.38801  0.98664  1.0000
  H   H2104     1.0  0.07307  0.33160  0.93926  1.0000
  C   C1189     1.0  0.45555  0.65800  0.83970  1.0000
  H   H2105     1.0  0.46915  0.39293  0.77207  1.0000
  H   H2106     1.0  0.44410  0.41030  0.79691  1.0000
  C   C1190     1.0  0.33902  0.37120  0.75035  1.0000
  H   H2107     1.0  0.41445  0.55053  0.75570  1.0000
  S   S255      1.0  0.24817  0.32955  0.93332  1.0000
  C   C1191     1.0  0.48329  0.43263  0.82853  1.0000
  C   C1192     1.0  0.47617  0.45794  0.86410  1.0000
  C   C1193     1.0  0.47098  0.48072  0.85512  1.0000
  H   H2108     1.0  0.49136  0.45067  0.85652  1.0000
  C   C1194     1.0  0.41214  0.49010  0.73945  1.0000
  C   C1195     1.0  0.48721  0.49185  0.85596  1.0000
  H   H2109     1.0  0.48839  0.48817  0.87098  1.0000
  C   C1196     1.0  0.00650  0.37300  0.75298  1.0000
  H   H2110     1.0  0.48885  0.63167  0.80559  1.0000
  H   H2111     1.0  0.03201  0.52609  0.75143  1.0000
  C   C1197     1.0  0.05274  0.48341  0.74886  1.0000
  H   H2112     1.0  0.39098  0.59901  0.73912  1.0000
  S   S256      1.0  0.30641  0.32922  0.91536  1.0000
  C   C1198     1.0  0.03460  0.48956  0.74232  1.0000
  C   C1199     1.0  0.49099  0.65686  0.75195  1.0000
  S   S257      1.0  0.33591  0.33005  0.86212  1.0000
  H   H2113     1.0  0.05625  0.42276  0.74246  1.0000
  C   C1200     1.0  0.31567  0.32739  0.96569  1.0000
  H   H2114     1.0  0.30586  0.32789  0.95661  1.0000
  H   H2115     1.0  0.36008  0.33070  0.93009  1.0000
  C   C1201     1.0  0.38031  0.55536  0.74676  1.0000
  H   H2116     1.0  0.48928  0.39151  0.78318  1.0000
  H   H2117     1.0  0.08543  0.48036  0.74105  1.0000
  H   H2118     1.0  0.49473  0.52909  0.87566  1.0000
  S   S258      1.0  0.49435  0.58812  0.82301  1.0000
  C   C1202     1.0  0.48798  0.44465  0.73802  1.0000
  C   C1203     1.0  0.35868  0.56171  0.74318  1.0000
  H   H2119     1.0  0.35323  0.57848  0.74198  1.0000
  C   C1204     1.0  0.99723  0.56784  0.78352  1.0000
  C   C1205     1.0  0.49508  0.51005  0.81388  1.0000
  H   H2120     1.0  0.38225  0.52646  0.74012  1.0000
  C   C1206     1.0  0.49499  0.45778  0.80087  1.0000
  N   N69       1.0  0.49416  0.42536  0.75227  1.0000
  H   H2121     1.0  0.19609  0.32767  0.82213  1.0000
  H   H2122     1.0  0.39625  0.49538  0.73754  1.0000
  H   H2123     1.0  0.41278  0.45910  0.73831  1.0000
  Fe  Fe129     1.0  0.34511  0.90073  0.04849  1.0000
  S   S259      1.0  0.37177  0.88568  0.06232  1.0000
  S   S260      1.0  0.31198  0.90096  0.06270  1.0000
  Fe  Fe130     1.0  0.37175  0.91386  0.01016  1.0000
  S   S261      1.0  0.40090  0.89953  0.02002  1.0000
  S   S262      1.0  0.00993  0.93533  0.17756  1.0000
  Fe  Fe131     1.0  0.38578  0.87331  0.03601  1.0000
  S   S263      1.0  0.40185  0.84048  0.03671  1.0000
  Fe  Fe132     1.0  0.38493  0.91305  0.04551  1.0000
  S   S264      1.0  0.40411  0.92825  0.05497  1.0000
  S   S265      1.0  0.35816  0.88627  0.02351  1.0000
  S   S266      1.0  0.35675  0.92962  0.03420  1.0000
  Fe  Fe133     1.0  0.35521  0.72987  0.04206  1.0000
  C   C1207     1.0  0.37032  0.66908  0.11204  1.0000
  Fe  Fe134     1.0  0.33689  0.75894  0.06830  1.0000
  S   S267      1.0  0.31698  0.73807  0.08826  1.0000
  S   S268      1.0  0.33302  0.78913  0.07565  1.0000
  Fe  Fe135     1.0  0.31094  0.73359  0.06225  1.0000
  S   S269      1.0  0.27992  0.73045  0.06114  1.0000
  S   S270      1.0  0.36531  0.73431  0.06631  1.0000
  S   S271      1.0  0.32854  0.75660  0.04238  1.0000
  C   C1208     1.0  0.18787  0.73610  0.09819  1.0000
  Fe  Fe136     1.0  0.20035  0.87304  0.06275  1.0000
  S   S272      1.0  0.21402  0.89236  0.03528  1.0000
  S   S273      1.0  0.18942  0.88290  0.09061  1.0000
  Fe  Fe137     1.0  0.20814  0.83610  0.04618  1.0000
  S   S274      1.0  0.22193  0.85188  0.01723  1.0000
  S   S275      1.0  0.20413  0.80380  0.05268  1.0000
  Fe  Fe138     1.0  0.23821  0.86411  0.03196  1.0000
  S   S276      1.0  0.27151  0.86286  0.01890  1.0000
  Fe  Fe139     1.0  0.19670  0.87874  0.02250  1.0000
  C   C1209     1.0  0.13575  0.96817  0.10892  1.0000
  S   S277      1.0  0.22657  0.84595  0.06075  1.0000
  S   S278      1.0  0.18084  0.86176  0.05020  1.0000
  Fe  Fe140     1.0  0.08117  0.93704  0.17662  1.0000
  S   S279      1.0  0.09545  0.95535  0.14889  1.0000
  S   S280      1.0  0.09653  0.92380  0.20114  1.0000
  Fe  Fe141     1.0  0.04163  0.94134  0.16504  1.0000
  H   H2124     1.0  0.07638  0.87721  0.09597  1.0000
  Fe  Fe142     1.0  0.08229  0.93748  0.13630  1.0000
  S   S281      1.0  0.09654  0.92812  0.10848  1.0000
  C   C1210     1.0  0.02525  0.88146  0.18212  1.0000
  S   S282      1.0  0.07052  0.91715  0.16389  1.0000
  S   S283      1.0  0.33702  0.70640  0.05992  1.0000
  Fe  Fe143     1.0  0.46424  0.91207  0.17077  1.0000
  S   S284      1.0  0.47380  0.94209  0.15930  1.0000
  H   H2125     1.0  0.21778  0.73757  0.09941  1.0000
  Fe  Fe144     1.0  0.43251  0.92296  0.14691  1.0000
  S   S285      1.0  0.43909  0.95421  0.13336  1.0000
  S   S286      1.0  0.40952  0.90948  0.14082  1.0000
  Fe  Fe145     1.0  0.47209  0.93872  0.13120  1.0000
  H   H2126     1.0  0.42936  0.93925  0.07303  1.0000
  H   H2127     1.0  0.26319  0.90273  0.99198  1.0000
  H   H2128     1.0  0.02575  0.86954  0.19537  1.0000
  S   S287      1.0  0.46551  0.90721  0.14228  1.0000
  S   S288      1.0  0.43052  0.92547  0.17654  1.0000
  H   H2129     1.0  0.31200  0.91332  0.01204  1.0000
  H   H2130     1.0  0.40248  0.72404  0.08793  1.0000
  C   C1211     1.0  0.36554  0.72756  0.99664  1.0000
  H   H2131     1.0  0.46881  0.67740  0.09727  1.0000
  C   C1212     1.0  0.09091  0.94078  0.21622  1.0000
  H   H2132     1.0  0.00260  0.94050  0.11362  1.0000
  H   H2133     1.0  0.05468  0.92164  0.07668  1.0000
  H   H2134     1.0  0.01038  0.97396  0.20666  1.0000
  H   H2135     1.0  0.37552  0.85576  0.09857  1.0000
  H   H2136     1.0  0.24437  0.78250  0.99894  1.0000
  H   H2137     1.0  0.43473  0.70798  0.09782  1.0000
  C   C1213     1.0  0.02370  0.95890  0.23138  1.0000
  H   H2138     1.0  0.45420  0.84414  0.11486  1.0000
  C   C1214     1.0  0.16333  0.89457  0.09599  1.0000
  C   C1215     1.0  0.15465  0.90008  0.11351  1.0000
  C   C1216     1.0  0.13398  0.91000  0.11774  1.0000
  C   C1217     1.0  0.12203  0.91458  0.10436  1.0000
  C   C1218     1.0  0.13064  0.90885  0.08698  1.0000
  C   C1219     1.0  0.15122  0.89885  0.08280  1.0000
  H   H2139     1.0  0.16396  0.89677  0.12377  1.0000
  H   H2140     1.0  0.12736  0.91429  0.13123  1.0000
  H   H2141     1.0  0.12146  0.91240  0.07657  1.0000
  H   H2142     1.0  0.15781  0.89490  0.06919  1.0000
  H   H2143     1.0  0.10477  0.84626  0.12033  1.0000
  H   H2144     1.0  0.48099  0.84639  0.08015  1.0000
  C   C1220     1.0  0.42227  0.90147  0.23258  1.0000
  H   H2145     1.0  0.00552  0.83683  0.14352  1.0000
  H   H2146     1.0  0.20610  0.75269  0.13866  1.0000
  C   C1221     1.0  0.07620  0.97449  0.22307  1.0000
  H   H2147     1.0  0.10685  0.87246  0.10898  1.0000
  H   H2148     1.0  0.20926  0.79529  0.14090  1.0000
  H   H2149     1.0  0.17900  0.85545  0.00521  1.0000
  C   C1222     1.0  0.26852  0.76752  0.10173  1.0000
  C   C1223     1.0  0.26025  0.75186  0.05646  1.0000
  C   C1224     1.0  0.26244  0.77203  0.05375  1.0000
  C   C1225     1.0  0.24546  0.78840  0.05180  1.0000
  C   C1226     1.0  0.22646  0.78451  0.05249  1.0000
  C   C1227     1.0  0.22468  0.76449  0.05435  1.0000
  C   C1228     1.0  0.24143  0.74826  0.05642  1.0000
  H   H2150     1.0  0.27703  0.77491  0.05357  1.0000
  H   H2151     1.0  0.24694  0.80391  0.05011  1.0000
  H   H2152     1.0  0.21015  0.76148  0.05455  1.0000
  H   H2153     1.0  0.23972  0.73276  0.05831  1.0000
  H   H2154     1.0  0.11012  0.85424  0.09490  1.0000
  C   C1229     1.0  0.47976  0.99262  0.16302  1.0000
  C   C1230     1.0  0.99645  0.93595  0.12859  1.0000
  H   H2155     1.0  0.45933  0.69255  0.11429  1.0000
  H   H2156     1.0  0.38685  0.83090  0.11099  1.0000
  H   H2157     1.0  0.40471  0.88973  0.21978  1.0000
  H   H2158     1.0  0.33544  0.72784  0.01469  1.0000
  C   C1231     1.0  0.40504  0.92311  0.07895  1.0000
  C   C1232     1.0  0.39213  0.91169  0.09307  1.0000
  C   C1233     1.0  0.39356  0.90761  0.11205  1.0000
  C   C1234     1.0  0.40782  0.91500  0.11699  1.0000
  C   C1235     1.0  0.42077  0.92633  0.10285  1.0000
  C   C1236     1.0  0.41934  0.93040  0.08390  1.0000
  H   H2159     1.0  0.38094  0.90619  0.08939  1.0000
  H   H2160     1.0  0.38348  0.89887  0.12295  1.0000
  H   H2161     1.0  0.43190  0.93198  0.10649  1.0000
  H   H2162     1.0  0.41923  0.77483  0.99390  1.0000
  C   C1237     1.0  0.38319  0.82566  0.04744  1.0000
  C   C1238     1.0  0.38731  0.80492  0.04692  1.0000
  C   C1239     1.0  0.37192  0.79348  0.05533  1.0000
  C   C1240     1.0  0.35261  0.80275  0.06448  1.0000
  C   C1241     1.0  0.34876  0.82334  0.06512  1.0000
  C   C1242     1.0  0.36389  0.83479  0.05651  1.0000
  H   H2163     1.0  0.40229  0.79778  0.04000  1.0000
  H   H2164     1.0  0.37503  0.77749  0.05505  1.0000
  H   H2165     1.0  0.33401  0.83059  0.07215  1.0000
  H   H2166     1.0  0.36054  0.85071  0.05704  1.0000
  C   C1243     1.0  0.30084  0.89068  0.05013  1.0000
  C   C1244     1.0  0.31174  0.87359  0.04263  1.0000
  C   C1245     1.0  0.30279  0.86538  0.03269  1.0000
  C   C1246     1.0  0.28262  0.87377  0.03081  1.0000
  C   C1247     1.0  0.27148  0.89060  0.03862  1.0000
  C   C1248     1.0  0.28067  0.89918  0.04810  1.0000
  H   H2167     1.0  0.32689  0.86629  0.04493  1.0000
  H   H2168     1.0  0.31132  0.85215  0.02695  1.0000
  H   H2169     1.0  0.25590  0.89718  0.03713  1.0000
  H   H2170     1.0  0.27220  0.91242  0.05384  1.0000
  H   H2171     1.0  0.17245  0.80517  0.10179  1.0000
  C   C1249     1.0  0.23117  0.76674  0.10596  1.0000
  H   H2172     1.0  0.37952  0.67193  0.08187  1.0000
  H   H2173     1.0  0.48637  0.80859  0.09037  1.0000
  C   C1250     1.0  0.26587  0.81381  0.99953  1.0000
  H   H2174     1.0  0.41340  0.70400  0.11744  1.0000
  H   H2175     1.0  0.40257  0.68791  0.16713  1.0000
  H   H2176     1.0  0.39059  0.75861  0.03084  1.0000
  H   H2177     1.0  0.16268  0.84034  0.10630  1.0000
  H   H2178     1.0  0.43619  0.86108  0.05326  1.0000
  H   H2179     1.0  0.03374  0.89292  0.18203  1.0000
  H   H2180     1.0  0.06672  0.90009  0.23598  1.0000
  H   H2181     1.0  0.19213  0.71922  0.09986  1.0000
  H   H2182     1.0  0.23571  0.75141  0.11506  1.0000
  C   C1251     1.0  0.00976  0.86819  0.13190  1.0000
  H   H2183     1.0  0.40163  0.67522  0.13962  1.0000
  H   H2184     1.0  0.22619  0.90910  0.99305  1.0000
  H   H2185     1.0  0.41084  0.74396  0.01600  1.0000
  C   C1252     1.0  0.03494  0.87169  0.16505  1.0000
  H   H2186     1.0  0.40138  0.79086  0.00892  1.0000
  C   C1253     1.0  0.42268  0.98508  0.19530  1.0000
  C   C1254     1.0  0.34439  0.72902  0.00034  1.0000
  C   C1255     1.0  0.40564  0.75863  0.02078  1.0000
  H   H2187     1.0  0.43029  0.86092  0.12262  1.0000
  C   C1256     1.0  0.36147  0.83918  0.00561  1.0000
  H   H2188     1.0  0.49350  0.90294  0.23402  1.0000
  S   S289      1.0  0.49544  0.94503  0.10410  1.0000
  C   C1257     1.0  0.46139  0.94476  0.23209  1.0000
  C   C1258     1.0  0.20106  0.77356  0.16642  1.0000
  C   C1259     1.0  0.40426  0.67135  0.16801  1.0000
  C   C1260     1.0  0.45456  0.92678  0.22901  1.0000
  C   C1261     1.0  0.40694  0.97213  0.22799  1.0000
  C   C1262     1.0  0.20176  0.74306  0.10663  1.0000
  H   H2189     1.0  0.09394  0.98527  0.11256  1.0000
  C   C1263     1.0  0.41279  0.66637  0.14846  1.0000
  H   H2190     1.0  0.47771  0.84491  0.05756  1.0000
  C   C1264     1.0  0.47090  0.95738  0.21316  1.0000
  H   H2191     1.0  0.20991  0.80246  0.01392  1.0000
  C   C1265     1.0  0.00540  0.93929  0.14167  1.0000
  H   H2192     1.0  0.48672  0.94938  0.20775  1.0000
  H   H2193     1.0  0.23425  0.76401  0.09146  1.0000
  H   H2194     1.0  0.99890  0.97933  0.10939  1.0000
  H   H2195     1.0  0.20991  0.77670  0.01354  1.0000
  H   H2196     1.0  0.16709  0.97572  0.07641  1.0000
  C   C1266     1.0  0.47508  0.83808  0.07293  1.0000
  C   C1267     1.0  0.21127  0.77844  0.14541  1.0000
  H   H2197     1.0  0.44397  0.66316  0.14988  1.0000
  N   N70       1.0  0.43779  0.85854  0.08224  1.0000
  C   C1268     1.0  0.05142  0.91420  0.10723  1.0000
  H   H2198     1.0  0.19904  0.79787  0.99670  1.0000
  H   H2199     1.0  0.43576  0.90385  0.02997  1.0000
  C   C1269     1.0  0.38668  0.77707  0.99445  1.0000
  H   H2200     1.0  0.37821  0.83326  0.08992  1.0000
  N   N71       1.0  0.27485  0.85046  0.09829  1.0000
  C   C1270     1.0  0.29747  0.84842  0.09640  1.0000
  C   C1271     1.0  0.27147  0.84355  0.08222  1.0000
  C   C1272     1.0  0.26482  0.87285  0.09696  1.0000
  C   C1273     1.0  0.26508  0.83881  0.11721  1.0000
  C   C1274     1.0  0.27274  0.81534  0.12154  1.0000
  C   C1275     1.0  0.30368  0.85708  0.11037  1.0000
  C   C1276     1.0  0.24263  0.87949  0.09365  1.0000
  C   C1277     1.0  0.28792  0.82577  0.07477  1.0000
  C   C1278     1.0  0.28080  0.81736  0.06161  1.0000
  C   C1279     1.0  0.26295  0.80563  0.14169  1.0000
  C   C1280     1.0  0.32698  0.85388  0.10663  1.0000
  C   C1281     1.0  0.23407  0.90212  0.09392  1.0000
  H   H2201     1.0  0.30419  0.85636  0.08190  1.0000
  H   H2202     1.0  0.30569  0.83223  0.09783  1.0000
  H   H2203     1.0  0.25619  0.83947  0.08606  1.0000
  H   H2204     1.0  0.27122  0.85631  0.06953  1.0000
  H   H2205     1.0  0.27419  0.88249  0.08537  1.0000
  H   H2206     1.0  0.26425  0.87760  0.11006  1.0000
  H   H2207     1.0  0.26666  0.84478  0.12886  1.0000
  H   H2208     1.0  0.24832  0.84138  0.11852  1.0000
  H   H2209     1.0  0.28957  0.81097  0.12004  1.0000
  H   H2210     1.0  0.26825  0.80869  0.11192  1.0000
  H   H2211     1.0  0.29751  0.87380  0.10865  1.0000
  H   H2212     1.0  0.29817  0.84933  0.12520  1.0000
  H   H2213     1.0  0.23216  0.87060  0.10470  1.0000
  H   H2214     1.0  0.24214  0.87748  0.07969  1.0000
  H   H2215     1.0  0.30199  0.83141  0.06652  1.0000
  H   H2216     1.0  0.29224  0.81286  0.08626  1.0000
  H   H2217     1.0  0.26711  0.81091  0.06916  1.0000
  H   H2218     1.0  0.27712  0.82958  0.04936  1.0000
  H   H2219     1.0  0.29318  0.80506  0.05629  1.0000
  H   H2220     1.0  0.24601  0.80912  0.14383  1.0000
  H   H2221     1.0  0.26842  0.78876  0.14422  1.0000
  H   H2222     1.0  0.26727  0.81133  0.15212  1.0000
  H   H2223     1.0  0.33313  0.86191  0.09200  1.0000
  H   H2224     1.0  0.33120  0.86023  0.11667  1.0000
  H   H2225     1.0  0.33420  0.83734  0.10845  1.0000
  H   H2226     1.0  0.23302  0.90493  0.10798  1.0000
  H   H2227     1.0  0.24393  0.91176  0.08290  1.0000
  H   H2228     1.0  0.21849  0.90677  0.09097  1.0000
  H   H2229     1.0  0.11322  0.96602  0.08692  1.0000
  H   H2230     1.0  0.18957  0.74318  0.08286  1.0000
  C   C1282     1.0  0.11491  0.98197  0.08512  1.0000
  H   H2231     1.0  0.17361  0.95496  0.04470  1.0000
  H   H2232     1.0  0.45463  0.88957  0.22799  1.0000
  H   H2233     1.0  0.37432  0.98338  0.16863  1.0000
  Fe  Fe146     1.0  0.34478  0.71295  0.08433  1.0000
  H   H2234     1.0  0.06849  0.85741  0.13870  1.0000
  H   H2235     1.0  0.07398  0.85130  0.10710  1.0000
  C   C1283     1.0  0.07607  0.99132  0.09195  1.0000
  N   N72       1.0  0.13481  0.98179  0.08962  1.0000
  H   H2236     1.0  0.27948  0.77766  0.09868  1.0000
  N   N73       1.0  0.20866  0.77557  0.11251  1.0000
  C   C1284     1.0  0.20417  0.79850  0.10525  1.0000
  C   C1285     1.0  0.20202  0.76957  0.13375  1.0000
  C   C1286     1.0  0.19655  0.76672  0.10405  1.0000
  S   S290      1.0  0.42742  0.98557  0.17113  1.0000
  H   H2237     1.0  0.43264  0.68812  0.13931  1.0000
  H   H2238     1.0  0.41863  0.87037  0.23578  1.0000
  H   H2239     1.0  0.44770  0.83058  0.07191  1.0000
  C   C1287     1.0  0.24659  0.77996  0.10437  1.0000
  H   H2240     1.0  0.20975  0.80220  0.08959  1.0000
  H   H2241     1.0  0.21277  0.80612  0.11063  1.0000
  H   H2242     1.0  0.03925  0.85804  0.11474  1.0000
  H   H2243     1.0  0.19856  0.77336  0.08859  1.0000
  H   H2244     1.0  0.47331  0.87017  0.11291  1.0000
  C   C1288     1.0  0.18136  0.80952  0.10966  1.0000
  H   H2245     1.0  0.48878  0.83646  0.15849  1.0000
  H   H2246     1.0  0.41685  0.75969  0.02828  1.0000
  H   H2247     1.0  0.44956  0.88798  0.11908  1.0000
  H   H2248     1.0  0.17445  0.80583  0.12499  1.0000
  H   H2249     1.0  0.15517  0.94092  0.08699  1.0000
  H   H2250     1.0  0.15071  0.98373  0.06037  1.0000
  H   H2251     1.0  0.31837  0.73333  0.98833  1.0000
  H   H2252     1.0  0.47147  0.97243  0.21505  1.0000
  H   H2253     1.0  0.04629  0.92271  0.11875  1.0000
  H   H2254     1.0  0.00899  0.88897  0.18210  1.0000
  H   H2255     1.0  0.45668  0.86490  0.13599  1.0000
  C   C1289     1.0  0.45068  0.89349  0.03147  1.0000
  C   C1290     1.0  0.02691  0.98397  0.08999  1.0000
  C   C1291     1.0  0.99753  0.93327  0.16104  1.0000
  H   H2256     1.0  0.20829  0.77966  0.17453  1.0000
  C   C1292     1.0  0.36255  0.81873  0.00114  1.0000
  C   C1293     1.0  0.15521  0.94960  0.13477  1.0000
  H   H2257     1.0  0.27809  0.81330  0.02319  1.0000
  H   H2258     1.0  0.07533  0.97508  0.09389  1.0000
  H   H2259     1.0  0.00268  0.93881  0.21937  1.0000
  H   H2260     1.0  0.03212  0.91838  0.23055  1.0000
  H   H2261     1.0  0.27218  0.75991  0.08971  1.0000
  H   H2262     1.0  0.37662  0.84026  0.00699  1.0000
  H   H2263     1.0  0.15078  0.93507  0.13577  1.0000
  C   C1294     1.0  0.18314  0.86098  0.99006  1.0000
  H   H2264     1.0  0.39373  0.70040  0.09634  1.0000
  H   H2265     1.0  0.28927  0.79130  0.01283  1.0000
  Fe  Fe147     1.0  0.06445  0.97619  0.15114  1.0000
  H   H2266     1.0  0.18693  0.83822  0.11168  1.0000
  H   H2267     1.0  0.11489  0.98910  0.06998  1.0000
  H   H2268     1.0  0.17031  0.94582  0.13861  1.0000
  H   H2269     1.0  0.03711  0.95225  0.22117  1.0000
  H   H2270     1.0  0.16873  0.95392  0.10518  1.0000
  H   H2271     1.0  0.12445  0.97560  0.11996  1.0000
  H   H2272     1.0  0.47419  0.98056  0.16028  1.0000
  C   C1295     1.0  0.40754  0.70714  0.09029  1.0000
  H   H2273     1.0  0.01829  0.89620  0.14654  1.0000
  H   H2274     1.0  0.35041  0.84061  0.01924  1.0000
  C   C1296     1.0  0.17911  0.83272  0.10362  1.0000
  H   H2275     1.0  0.36554  0.80664  0.01375  1.0000
  H   H2276     1.0  0.41522  0.70304  0.07641  1.0000
  C   C1297     1.0  0.15664  0.96273  0.11470  1.0000
  H   H2277     1.0  0.23106  0.82234  0.98938  1.0000
  H   H2278     1.0  0.38896  0.66737  0.17397  1.0000
  H   H2279     1.0  0.03626  0.97436  0.10028  1.0000
  H   H2280     1.0  0.00457  0.88100  0.12058  1.0000
  C   C1298     1.0  0.17374  0.94489  0.05896  1.0000
  H   H2281     1.0  0.24565  0.79282  0.09187  1.0000
  S   S291      1.0  0.47909  0.88600  0.19116  1.0000
  H   H2282     1.0  0.99700  0.98452  0.22692  1.0000
  H   H2283     1.0  0.43199  0.88155  0.21248  1.0000
  H   H2284     1.0  0.40902  0.95862  0.20472  1.0000
  C   C1299     1.0  0.40411  0.77664  0.00383  1.0000
  H   H2285     1.0  0.27071  0.75564  0.11472  1.0000
  H   H2286     1.0  0.46279  0.90247  0.02442  1.0000
  C   C1300     1.0  0.41696  0.85461  0.09330  1.0000
  C   C1301     1.0  0.40668  0.84325  0.08463  1.0000
  C   C1302     1.0  0.38553  0.84069  0.09682  1.0000
  H   H2287     1.0  0.43363  0.88555  0.09275  1.0000
  H   H2288     1.0  0.14109  0.95032  0.06857  1.0000
  H   H2289     1.0  0.42028  0.88161  0.06335  1.0000
  H   H2290     1.0  0.40621  0.86933  0.09535  1.0000
  H   H2291     1.0  0.41776  0.84519  0.10772  1.0000
  H   H2292     1.0  0.41584  0.82769  0.08369  1.0000
  H   H2293     1.0  0.40487  0.85175  0.07024  1.0000
  H   H2294     1.0  0.05654  0.94184  0.08636  1.0000
  S   S292      1.0  0.37764  0.72528  0.01493  1.0000
  H   H2295     1.0  0.14377  0.95795  0.14511  1.0000
  C   C1303     1.0  0.08207  0.96142  0.21042  1.0000
  C   C1304     1.0  0.43564  0.87114  0.06270  1.0000
  H   H2296     1.0  0.16159  0.97672  0.11440  1.0000
  C   C1305     1.0  0.42202  0.69965  0.10389  1.0000
  H   H2297     1.0  0.37267  0.77661  0.00593  1.0000
  H   H2298     1.0  0.07994  0.96739  0.19612  1.0000
  H   H2299     1.0  0.05090  0.86408  0.16613  1.0000
  Fe  Fe148     1.0  0.44011  0.95537  0.16252  1.0000
  H   H2300     1.0  0.03186  0.93609  0.08930  1.0000
  C   C1306     1.0  0.04833  0.92936  0.08876  1.0000
  H   H2301     1.0  0.44728  0.89874  0.05894  1.0000
  H   H2302     1.0  0.06806  0.90805  0.10550  1.0000
  H   H2303     1.0  0.00255  0.87261  0.14568  1.0000
  H   H2304     1.0  0.04257  0.89955  0.14637  1.0000
  C   C1307     1.0  0.03955  0.89689  0.11163  1.0000
  H   H2305     1.0  0.22777  0.77134  0.14416  1.0000
  H   H2306     1.0  0.03803  0.84885  0.13920  1.0000
  H   H2307     1.0  0.45331  0.88079  0.02425  1.0000
  H   H2308     1.0  0.17987  0.77105  0.11008  1.0000
  H   H2309     1.0  0.02306  0.90437  0.11368  1.0000
  H   H2310     1.0  0.25998  0.83041  0.99785  1.0000
  S   S293      1.0  0.35044  0.69090  0.11160  1.0000
  H   H2311     1.0  0.01851  0.94627  0.13672  1.0000
  H   H2312     1.0  0.02638  0.85985  0.16634  1.0000
  H   H2313     1.0  0.04284  0.89086  0.09864  1.0000
  C   C1308     1.0  0.44444  0.87051  0.09259  1.0000
  H   H2314     1.0  0.34890  0.99243  0.18147  1.0000
  S   S294      1.0  0.05129  0.95946  0.17991  1.0000
  C   C1309     1.0  0.44588  0.86029  0.11337  1.0000
  H   H2315     1.0  0.46688  0.91951  0.21845  1.0000
  C   C1310     1.0  0.45115  0.88532  0.05235  1.0000
  H   H2316     1.0  0.45945  0.87443  0.08505  1.0000
  C   C1311     1.0  0.45709  0.87153  0.12073  1.0000
  C   C1312     1.0  0.15229  0.97410  0.07457  1.0000
  C   C1313     1.0  0.07854  0.86480  0.10858  1.0000
  C   C1314     1.0  0.10144  0.85907  0.10826  1.0000
  H   H2317     1.0  0.17466  0.92899  0.05801  1.0000
  S   S295      1.0  0.05233  0.95992  0.13636  1.0000
  C   C1315     1.0  0.21151  0.79205  0.00457  1.0000
  H   H2318     1.0  0.46706  0.87754  0.05315  1.0000
  H   H2319     1.0  0.49434  0.92100  0.19138  1.0000
  C   C1316     1.0  0.45207  0.83807  0.08105  1.0000
  H   H2320     1.0  0.24347  0.78659  0.11685  1.0000
  H   H2321     1.0  0.34726  0.81933  0.99912  1.0000
  C   C1317     1.0  0.03350  0.86283  0.12851  1.0000
  H   H2322     1.0  0.45040  0.82743  0.09518  1.0000
  H   H2323     1.0  0.25363  0.80604  0.00912  1.0000
  H   H2324     1.0  0.17160  0.74032  0.10549  1.0000
  N   N74       1.0  0.04339  0.87972  0.12839  1.0000
  C   C1318     1.0  0.06599  0.87128  0.12728  1.0000
  H   H2325     1.0  0.07320  0.88238  0.13004  1.0000
  H   H2326     1.0  0.18757  0.94507  0.06351  1.0000
  H   H2327     1.0  0.02590  0.97434  0.08088  1.0000
  C   C1319     1.0  0.41284  0.97053  0.20895  1.0000
  H   H2328     1.0  0.18450  0.78078  0.16875  1.0000
  H   H2329     1.0  0.48286  0.80718  0.06786  1.0000
  H   H2330     1.0  0.18576  0.83727  0.08830  1.0000
  C   C1320     1.0  0.41927  0.88469  0.22472  1.0000
  H   H2331     1.0  0.48084  0.86060  0.16546  1.0000
  C   C1321     1.0  0.15435  0.95174  0.07324  1.0000
  H   H2332     1.0  0.42220  0.91539  0.22109  1.0000
  H   H2333     1.0  0.19969  0.73528  0.12178  1.0000
  C   C1322     1.0  0.01234  0.97813  0.21915  1.0000
  H   H2334     1.0  0.18505  0.77349  0.13827  1.0000
  C   C1323     1.0  0.28353  0.80814  0.00964  1.0000
  H   H2335     1.0  0.20292  0.75676  0.17193  1.0000
  H   H2336     1.0  0.46166  0.96023  0.20247  1.0000
  H   H2337     1.0  0.13104  0.95361  0.11041  1.0000
  H   H2338     1.0  0.00756  0.84529  0.11817  1.0000
  C   C1324     1.0  0.43421  0.67170  0.13959  1.0000
  C   C1325     1.0  0.03441  0.88787  0.14619  1.0000
  H   H2339     1.0  0.28614  0.91667  0.99484  1.0000
  H   H2340     1.0  0.44175  0.93403  0.22171  1.0000
  C   C1326     1.0  0.00143  0.84996  0.13196  1.0000
  C   C1327     1.0  0.09467  0.93347  0.23446  1.0000
  S   S296      1.0  0.18331  0.89724  0.99767  1.0000
  H   H2341     1.0  0.29625  0.81575  0.00092  1.0000
  C   C1328     1.0  0.46321  0.67640  0.11277  1.0000
  C   C1329     1.0  0.31662  0.91552  0.99643  1.0000
  C   C1330     1.0  0.23235  0.79054  0.99081  1.0000
  H   H2342     1.0  0.35615  0.85209  0.99441  1.0000
  H   H2343     1.0  0.43839  0.67322  0.09241  1.0000
  H   H2344     1.0  0.41442  0.66225  0.17778  1.0000
  C   C1331     1.0  0.43037  0.67621  0.10667  1.0000
  H   H2345     1.0  0.30329  0.89190  0.99508  1.0000
  H   H2346     1.0  0.34078  0.79247  0.99633  1.0000
  C   C1332     1.0  0.48784  0.81624  0.07518  1.0000
  H   H2347     1.0  0.03984  0.98995  0.20364  1.0000
  H   H2348     1.0  0.40794  0.66469  0.23531  1.0000
  H   H2349     1.0  0.33230  0.90630  0.99280  1.0000
  C   C1333     1.0  0.49433  0.84854  0.16149  1.0000
  H   H2350     1.0  0.06927  0.99041  0.21856  1.0000
  H   H2351     1.0  0.35274  0.76829  0.99060  1.0000
  H   H2352     1.0  0.31678  0.93196  0.99029  1.0000
  C   C1334     1.0  0.00541  0.99259  0.10033  1.0000
  C   C1335     1.0  0.48152  0.66532  0.12232  1.0000
  H   H2353     1.0  0.34109  0.66352  0.08603  1.0000
  N   N75       1.0  0.44442  0.66714  0.12028  1.0000
  C   C1336     1.0  0.38219  0.66288  0.09549  1.0000
  H   H2354     1.0  0.41719  0.66850  0.11093  1.0000
  H   H2355     1.0  0.47681  0.66354  0.13789  1.0000
  H   H2356     1.0  0.36472  0.66203  0.14247  1.0000
  C   C1337     1.0  0.41131  0.98797  0.23338  1.0000
  C   C1338     1.0  0.30175  0.90852  0.98918  1.0000
  H   H2357     1.0  0.39010  0.76235  0.98987  1.0000
  H   H2358     1.0  0.49352  0.69246  0.11864  1.0000
  H   H2359     1.0  0.47512  0.99204  0.17842  1.0000
  H   H2360     1.0  0.48366  0.88099  0.23535  1.0000
  C   C1339     1.0  0.09519  0.99263  0.09738  1.0000
  H   H2361     1.0  0.40413  0.94991  0.27777  1.0000
  H   H2362     1.0  0.05270  0.93270  0.24673  1.0000
  H   H2363     1.0  0.49247  0.92027  0.37241  1.0000
  H   H2364     1.0  0.00169  0.98742  0.33808  1.0000
  S   S297      1.0  0.31852  0.67759  0.42338  1.0000
  H   H2365     1.0  0.26295  0.67562  0.32575  1.0000
  N   N76       1.0  0.01154  0.94279  0.24322  1.0000
  S   S298      1.0  0.09605  0.67663  0.40521  1.0000
  H   H2366     1.0  0.10714  0.82526  0.47929  1.0000
  H   H2367     1.0  0.44306  0.94049  0.26871  1.0000
  C   C1340     1.0  0.47684  0.99092  0.28855  1.0000
  H   H2368     1.0  0.14270  0.87960  0.40688  1.0000
  C   C1341     1.0  0.04925  0.69004  0.38035  1.0000
  Fe  Fe149     1.0  0.07280  0.97243  0.32495  1.0000
  H   H2369     1.0  0.37492  0.68030  0.26623  1.0000
  C   C1342     1.0  0.13694  0.86772  0.40380  1.0000
  C   C1343     1.0  0.99866  0.93225  0.32792  1.0000
  Fe  Fe150     1.0  0.28237  0.70107  0.37097  1.0000
  S   S299      1.0  0.27048  0.69329  0.40218  1.0000
  S   S300      1.0  0.27799  0.73366  0.35457  1.0000
  C   C1344     1.0  0.08055  0.66158  0.36027  1.0000
  H   H2370     1.0  0.07670  0.74112  0.48651  1.0000
  H   H2371     1.0  0.04914  0.82591  0.35198  1.0000
  H   H2372     1.0  0.09779  0.87070  0.30448  1.0000
  H   H2373     1.0  0.01809  0.90986  0.25388  1.0000
  C   C1345     1.0  0.04462  0.91993  0.25349  1.0000
  H   H2374     1.0  0.08389  0.66492  0.37253  1.0000
  H   H2375     1.0  0.18239  0.89432  0.29946  1.0000
  S   S301      1.0  0.31458  0.68384  0.37154  1.0000
  H   H2376     1.0  0.20985  0.85545  0.35333  1.0000
  C   C1346     1.0  0.16270  0.88620  0.32728  1.0000
  H   H2377     1.0  0.07411  0.83676  0.37479  1.0000
  Fe  Fe151     1.0  0.14439  0.76808  0.39307  1.0000
  S   S302      1.0  0.15071  0.79906  0.37786  1.0000
  S   S303      1.0  0.14638  0.74684  0.37467  1.0000
  Fe  Fe152     1.0  0.14337  0.77499  0.43144  1.0000
  S   S304      1.0  0.14944  0.80653  0.41929  1.0000
  S   S305      1.0  0.14378  0.75993  0.46189  1.0000
  Fe  Fe153     1.0  0.12681  0.80987  0.40182  1.0000
  S   S306      1.0  0.10263  0.83880  0.39850  1.0000
  Fe  Fe154     1.0  0.17271  0.79267  0.39658  1.0000
  S   S307      1.0  0.20387  0.80049  0.38591  1.0000
  S   S308      1.0  0.11866  0.77916  0.41593  1.0000
  S   S309      1.0  0.16831  0.76093  0.40994  1.0000
  C   C1347     1.0  0.04803  0.87117  0.36277  1.0000
  S   S310      1.0  0.06335  0.93478  0.30008  1.0000
  H   H2378     1.0  0.21892  0.67240  0.48174  1.0000
  S   S311      1.0  0.06570  0.94193  0.34099  1.0000
  Fe  Fe155     1.0  0.08752  0.93012  0.31638  1.0000
  S   S312      1.0  0.11090  0.90038  0.31870  1.0000
  H   H2379     1.0  0.25062  0.74495  0.47602  1.0000
  H   H2380     1.0  0.41129  0.66351  0.32679  1.0000
  H   H2381     1.0  0.35300  0.69864  0.30171  1.0000
  Fe  Fe156     1.0  0.26429  0.66556  0.39705  1.0000
  H   H2382     1.0  0.36376  0.98817  0.24563  1.0000
  H   H2383     1.0  0.18574  0.87725  0.38591  1.0000
  H   H2384     1.0  0.19883  0.88956  0.36318  1.0000
  C   C1348     1.0  0.40701  0.69961  0.26053  1.0000
  H   H2385     1.0  0.18506  0.83970  0.48406  1.0000
  H   H2386     1.0  0.44614  0.98578  0.29581  1.0000
  C   C1349     1.0  0.18817  0.81538  0.33485  1.0000
  C   C1350     1.0  0.48598  0.89058  0.24376  1.0000
  C   C1351     1.0  0.10538  0.85572  0.37625  1.0000
  C   C1352     1.0  0.09615  0.87645  0.37498  1.0000
  C   C1353     1.0  0.09793  0.89028  0.35739  1.0000
  C   C1354     1.0  0.10861  0.88339  0.34092  1.0000
  C   C1355     1.0  0.11789  0.86265  0.34217  1.0000
  C   C1356     1.0  0.11624  0.84882  0.35979  1.0000
  H   H2387     1.0  0.08773  0.88188  0.38768  1.0000
  H   H2388     1.0  0.09127  0.90629  0.35666  1.0000
  H   H2389     1.0  0.12617  0.85722  0.32945  1.0000
  H   H2390     1.0  0.12300  0.83280  0.36056  1.0000
  C   C1357     1.0  0.43377  0.92867  0.27514  1.0000
  H   H2391     1.0  0.39849  0.96150  0.23842  1.0000
  C   C1358     1.0  0.12414  0.79706  0.47096  1.0000
  C   C1359     1.0  0.13620  0.77776  0.47640  1.0000
  H   H2392     1.0  0.33554  0.67493  0.32932  1.0000
  C   C1360     1.0  0.33090  0.67983  0.31555  1.0000
  H   H2393     1.0  0.08339  0.89275  0.29125  1.0000
  H   H2394     1.0  0.12000  0.80151  0.45738  1.0000
  H   H2395     1.0  0.02933  0.92092  0.37045  1.0000
  H   H2396     1.0  0.32530  0.68632  0.45602  1.0000
  C   C1361     1.0  0.25689  0.75153  0.36370  1.0000
  C   C1362     1.0  0.25626  0.77235  0.35581  1.0000
  C   C1363     1.0  0.23990  0.78714  0.36273  1.0000
  C   C1364     1.0  0.22377  0.78126  0.37737  1.0000
  C   C1365     1.0  0.22430  0.76040  0.38534  1.0000
  C   C1366     1.0  0.24093  0.74553  0.37860  1.0000
  H   H2397     1.0  0.26853  0.77707  0.34431  1.0000
  H   H2398     1.0  0.23966  0.80319  0.35657  1.0000
  H   H2399     1.0  0.21209  0.75571  0.39685  1.0000
  H   H2400     1.0  0.24125  0.72948  0.38469  1.0000
  H   H2401     1.0  0.02394  0.71611  0.37619  1.0000
  Fe  Fe157     1.0  0.07061  0.96590  0.28752  1.0000
  H   H2402     1.0  0.13285  0.85652  0.41720  1.0000
  H   H2403     1.0  0.12288  0.87502  0.39826  1.0000
  C   C1367     1.0  0.38231  0.67622  0.27851  1.0000
  H   H2404     1.0  0.17055  0.91543  0.31129  1.0000
  C   C1368     1.0  0.12858  0.97580  0.25535  1.0000
  H   H2405     1.0  0.47010  0.91079  0.26215  1.0000
  H   H2406     1.0  0.15840  0.88651  0.37202  1.0000
  H   H2407     1.0  0.49465  0.86331  0.26487  1.0000
  H   H2408     1.0  0.44783  0.95514  0.23870  1.0000
  H   H2409     1.0  0.21433  0.80997  0.48443  1.0000
  H   H2410     1.0  0.05599  0.68054  0.39241  1.0000
  C   C1369     1.0  0.30961  0.68464  0.45907  1.0000
  H   H2411     1.0  0.11746  0.96558  0.26010  1.0000
  C   C1370     1.0  0.28237  0.67704  0.44972  1.0000
  C   C1371     1.0  0.49337  0.93112  0.35844  1.0000
  H   H2412     1.0  0.01943  0.89452  0.36105  1.0000
  C   C1372     1.0  0.37672  0.66300  0.31366  1.0000
  H   H2413     1.0  0.06735  0.77810  0.47098  1.0000
  H   H2414     1.0  0.15561  0.90573  0.30104  1.0000
  H   H2415     1.0  0.11903  0.67244  0.34207  1.0000
  H   H2416     1.0  0.01911  0.69776  0.39843  1.0000
  H   H2417     1.0  0.19018  0.80354  0.34792  1.0000
  H   H2418     1.0  0.20670  0.83295  0.33920  1.0000
  H   H2419     1.0  0.21983  0.87975  0.38711  1.0000
  H   H2420     1.0  0.03582  0.71489  0.39502  1.0000
  H   H2421     1.0  0.23194  0.67073  0.37415  1.0000
  H   H2422     1.0  0.15989  0.87284  0.32384  1.0000
  Fe  Fe158     1.0  0.04223  0.94878  0.32369  1.0000
  H   H2423     1.0  0.14820  0.89385  0.33550  1.0000
  C   C1373     1.0  0.16774  0.67004  0.44484  1.0000
  C   C1374     1.0  0.17448  0.84435  0.35238  1.0000
  H   H2424     1.0  0.19012  0.68604  0.46228  1.0000
  N   N77       1.0  0.44834  0.91076  0.24630  1.0000
  C   C1375     1.0  0.15330  0.85670  0.38961  1.0000
  H   H2425     1.0  0.19630  0.84379  0.37527  1.0000
  C   C1376     1.0  0.08262  0.87751  0.30081  1.0000
  C   C1377     1.0  0.27608  0.68586  0.48014  1.0000
  C   C1378     1.0  0.10977  0.69635  0.39673  1.0000
  C   C1379     1.0  0.12905  0.69328  0.38462  1.0000
  C   C1380     1.0  0.14006  0.70897  0.37784  1.0000
  C   C1381     1.0  0.13205  0.72764  0.38345  1.0000
  C   C1382     1.0  0.11278  0.73075  0.39562  1.0000
  C   C1383     1.0  0.10157  0.71514  0.40217  1.0000
  H   H2426     1.0  0.13546  0.67888  0.38027  1.0000
  H   H2427     1.0  0.15494  0.70655  0.36835  1.0000
  H   H2428     1.0  0.10643  0.74529  0.39972  1.0000
  H   H2429     1.0  0.08663  0.71755  0.41151  1.0000
  H   H2430     1.0  0.06692  0.84728  0.32503  1.0000
  H   H2431     1.0  0.01477  0.94709  0.26949  1.0000
  H   H2432     1.0  0.12719  0.72894  0.44955  1.0000
  H   H2433     1.0  0.37806  0.70877  0.27861  1.0000
  C   C1384     1.0  0.15795  0.87137  0.37004  1.0000
  S   S313      1.0  0.27312  0.67510  0.36558  1.0000
  H   H2434     1.0  0.19779  0.80992  0.46981  1.0000
  C   C1385     1.0  0.07101  0.82662  0.36734  1.0000
  H   H2435     1.0  0.19974  0.81004  0.32278  1.0000
  H   H2436     1.0  0.19991  0.70143  0.37596  1.0000
  C   C1386     1.0  0.19841  0.87475  0.37351  1.0000
  H   H2437     1.0  0.45691  0.95056  0.29045  1.0000
  C   C1387     1.0  0.26915  0.68036  0.46686  1.0000
  C   C1388     1.0  0.19123  0.83574  0.33643  1.0000
  H   H2438     1.0  0.44118  0.88091  0.25138  1.0000
  H   H2439     1.0  0.09000  0.67218  0.32955  1.0000
  C   C1389     1.0  0.04310  0.67715  0.36970  1.0000
  H   H2440     1.0  0.09120  0.94065  0.26137  1.0000
  H   H2441     1.0  0.49072  0.90727  0.34712  1.0000
  H   H2442     1.0  0.00991  0.90099  0.29711  1.0000
  C   C1390     1.0  0.47209  0.94474  0.35821  1.0000
  C   C1391     1.0  0.00083  0.91026  0.30712  1.0000
  C   C1392     1.0  0.20444  0.70970  0.38433  1.0000
  S   S314      1.0  0.40277  0.99103  0.25680  1.0000
  H   H2443     1.0  0.03145  0.89735  0.38799  1.0000
  H   H2444     1.0  0.21933  0.70123  0.38796  1.0000
  S   S315      1.0  0.09672  0.96021  0.30165  1.0000
  H   H2445     1.0  0.05416  0.90494  0.37200  1.0000
  C   C1393     1.0  0.03600  0.89369  0.35918  1.0000
  H   H2446     1.0  0.46075  0.93542  0.35984  1.0000
  C   C1394     1.0  0.17982  0.87997  0.33855  1.0000
  N   N78       1.0  0.17696  0.86354  0.35636  1.0000
  C   C1395     1.0  0.16827  0.90134  0.30864  1.0000
  C   C1396     1.0  0.21306  0.77000  0.46869  1.0000
  H   H2447     1.0  0.19981  0.68362  0.41840  1.0000
  H   H2448     1.0  0.06784  0.79485  0.37404  1.0000
  H   H2449     1.0  0.34306  0.69121  0.28583  1.0000
  H   H2450     1.0  0.47280  0.93958  0.24108  1.0000
  C   C1397     1.0  0.19285  0.77270  0.46247  1.0000
  H   H2451     1.0  0.14099  0.96906  0.26326  1.0000
  H   H2452     1.0  0.20448  0.71286  0.46573  1.0000
  C   C1398     1.0  0.19662  0.77625  0.44097  1.0000
  H   H2453     1.0  0.40079  0.70288  0.24768  1.0000
  H   H2454     1.0  0.22318  0.75603  0.46428  1.0000
  H   H2455     1.0  0.22072  0.78275  0.45997  1.0000
  H   H2456     1.0  0.08047  0.85539  0.33757  1.0000
  C   C1399     1.0  0.46576  0.90014  0.25612  1.0000
  H   H2457     1.0  0.03364  0.98792  0.34995  1.0000
  C   C1400     1.0  0.39051  0.69491  0.27839  1.0000
  H   H2458     1.0  0.40483  0.92632  0.29548  1.0000
  C   C1401     1.0  0.03083  0.70564  0.38792  1.0000
  H   H2459     1.0  0.04167  0.86431  0.37778  1.0000
  C   C1402     1.0  0.34902  0.68538  0.29904  1.0000
  H   H2460     1.0  0.18635  0.75877  0.46867  1.0000
  H   H2461     1.0  0.18115  0.78589  0.46683  1.0000
  H   H2462     1.0  0.10314  0.69100  0.35574  1.0000
  N   N79       1.0  0.04799  0.85796  0.34985  1.0000
  H   H2463     1.0  0.19133  0.73173  0.44885  1.0000
  H   H2464     1.0  0.05124  0.88627  0.31395  1.0000
  H   H2465     1.0  0.04103  0.98797  0.38029  1.0000
  H   H2466     1.0  0.18218  0.77710  0.43699  1.0000
  H   H2467     1.0  0.20175  0.79087  0.43399  1.0000
  H   H2468     1.0  0.20826  0.76350  0.43565  1.0000
  H   H2469     1.0  0.08554  0.79953  0.38511  1.0000
  Fe  Fe159     1.0  0.30208  0.67454  0.40277  1.0000
  C   C1403     1.0  0.08298  0.76881  0.46711  1.0000
  N   N80       1.0  0.29184  0.74904  0.41177  1.0000
  C   C1404     1.0  0.28092  0.77093  0.41210  1.0000
  C   C1405     1.0  0.30736  0.74188  0.42417  1.0000
  C   C1406     1.0  0.30329  0.74856  0.39162  1.0000
  C   C1407     1.0  0.27717  0.73478  0.41746  1.0000
  C   C1408     1.0  0.26224  0.73463  0.43696  1.0000
  C   C1409     1.0  0.26440  0.78015  0.40010  1.0000
  C   C1410     1.0  0.31764  0.72789  0.38836  1.0000
  C   C1411     1.0  0.30196  0.75020  0.44243  1.0000
  C   C1412     1.0  0.31769  0.73961  0.45463  1.0000
  C   C1413     1.0  0.24479  0.72421  0.43897  1.0000
  C   C1414     1.0  0.25309  0.80155  0.40303  1.0000
  C   C1415     1.0  0.33009  0.73003  0.36799  1.0000
  H   H2470     1.0  0.29230  0.78098  0.40716  1.0000
  H   H2471     1.0  0.27325  0.77286  0.42665  1.0000
  H   H2472     1.0  0.31101  0.72482  0.42832  1.0000
  H   H2473     1.0  0.32217  0.74631  0.41611  1.0000
  H   H2474     1.0  0.31270  0.76053  0.38617  1.0000
  H   H2475     1.0  0.29248  0.75224  0.38210  1.0000
  H   H2476     1.0  0.26821  0.73784  0.40645  1.0000
  H   H2477     1.0  0.28576  0.71871  0.41803  1.0000
  H   H2478     1.0  0.25506  0.75019  0.43935  1.0000
  H   H2479     1.0  0.27058  0.72592  0.44829  1.0000
  H   H2480     1.0  0.27147  0.78160  0.38482  1.0000
  H   H2481     1.0  0.25277  0.77060  0.40404  1.0000
  H   H2482     1.0  0.30849  0.71619  0.39101  1.0000
  H   H2483     1.0  0.32869  0.72211  0.39773  1.0000
  H   H2484     1.0  0.30203  0.76681  0.43870  1.0000
  H   H2485     1.0  0.28673  0.74806  0.45112  1.0000
  C   C1416     1.0  0.01039  0.92023  0.31500  1.0000
  C   C1417     1.0  0.27260  0.66035  0.32421  1.0000
  H   H2486     1.0  0.33334  0.74128  0.44645  1.0000
  H   H2487     1.0  0.25077  0.70843  0.43669  1.0000
  H   H2488     1.0  0.23522  0.72332  0.45350  1.0000
  H   H2489     1.0  0.23516  0.73297  0.42864  1.0000
  H   H2490     1.0  0.24462  0.80089  0.41796  1.0000
  H   H2491     1.0  0.26398  0.81191  0.39924  1.0000
  H   H2492     1.0  0.24184  0.80799  0.39384  1.0000
  H   H2493     1.0  0.33972  0.74150  0.36469  1.0000
  H   H2494     1.0  0.34034  0.71511  0.36606  1.0000
  H   H2495     1.0  0.31980  0.73468  0.35792  1.0000
  N   N81       1.0  0.16787  0.69151  0.43283  1.0000
  C   C1418     1.0  0.18468  0.69119  0.41506  1.0000
  S   S316      1.0  0.07021  0.98313  0.25759  1.0000
  C   C1419     1.0  0.14772  0.69964  0.42673  1.0000
  C   C1420     1.0  0.16953  0.70548  0.44418  1.0000
  C   C1421     1.0  0.18960  0.70032  0.45113  1.0000
  C   C1422     1.0  0.18795  0.71219  0.40223  1.0000
  C   C1423     1.0  0.12801  0.69995  0.44290  1.0000
  C   C1424     1.0  0.19062  0.71733  0.45980  1.0000
  C   C1425     1.0  0.30250  0.67961  0.44561  1.0000
  C   C1426     1.0  0.11716  0.72154  0.44564  1.0000
  H   H2496     1.0  0.04153  0.90226  0.34473  1.0000
  H   H2497     1.0  0.08387  0.76272  0.45469  1.0000
  H   H2498     1.0  0.40880  0.90460  0.24418  1.0000
  H   H2499     1.0  0.03813  0.83418  0.37360  1.0000
  H   H2500     1.0  0.14652  0.69037  0.41728  1.0000
  H   H2501     1.0  0.14691  0.71536  0.41783  1.0000
  H   H2502     1.0  0.16709  0.72161  0.43611  1.0000
  H   H2503     1.0  0.15701  0.70539  0.45711  1.0000
  H   H2504     1.0  0.20331  0.69844  0.43950  1.0000
  H   H2505     1.0  0.17389  0.72144  0.39765  1.0000
  H   H2506     1.0  0.19316  0.72075  0.40979  1.0000
  H   H2507     1.0  0.13088  0.69056  0.45672  1.0000
  H   H2508     1.0  0.11709  0.69331  0.43928  1.0000
  C   C1427     1.0  0.46219  0.97939  0.29128  1.0000
  H   H2509     1.0  0.17700  0.72010  0.47138  1.0000
  H   H2510     1.0  0.42028  0.68644  0.25996  1.0000
  S   S317      1.0  0.04736  0.98034  0.30974  1.0000
  H   H2511     1.0  0.14750  0.84397  0.38811  1.0000
  H   H2512     1.0  0.03949  0.91957  0.26887  1.0000
  H   H2513     1.0  0.37763  0.67715  0.31729  1.0000
  H   H2514     1.0  0.11250  0.73121  0.43253  1.0000
  H   H2515     1.0  0.10316  0.72069  0.45706  1.0000
  C   C1428     1.0  0.06583  0.87984  0.31862  1.0000
  H   H2516     1.0  0.03058  0.96413  0.24048  1.0000
  H   H2517     1.0  0.09429  0.77877  0.46296  1.0000
  H   H2518     1.0  0.00882  0.86338  0.37173  1.0000
  C   C1429     1.0  0.02249  0.98366  0.36322  1.0000
  C   C1430     1.0  0.31301  0.69822  0.31687  1.0000
  H   H2519     1.0  0.06402  0.87153  0.36242  1.0000
  C   C1431     1.0  0.05056  0.83590  0.36065  1.0000
  H   H2520     1.0  0.31407  0.74656  0.46708  1.0000
  H   H2521     1.0  0.02984  0.85494  0.33200  1.0000
  C   C1432     1.0  0.19576  0.85839  0.36446  1.0000
  C   C1433     1.0  0.46827  0.95947  0.28817  1.0000
  C   C1434     1.0  0.00900  0.85925  0.35847  1.0000
  H   H2522     1.0  0.30737  0.70366  0.30356  1.0000
  H   H2523     1.0  0.30023  0.69375  0.32863  1.0000
  C   C1435     1.0  0.08857  0.94648  0.24721  1.0000
  H   H2524     1.0  0.46722  0.95277  0.37008  1.0000
  H   H2525     1.0  0.18074  0.89424  0.34190  1.0000
  H   H2526     1.0  0.16101  0.67041  0.45999  1.0000
  H   H2527     1.0  0.27418  0.76388  0.48098  1.0000
  H   H2528     1.0  0.16695  0.85000  0.39581  1.0000
  H   H2529     1.0  0.19472  0.87546  0.32884  1.0000
  C   C1436     1.0  0.08652  0.67833  0.34249  1.0000
  H   H2530     1.0  0.21842  0.85330  0.39123  1.0000
  H   H2531     1.0  0.02678  0.91856  0.31117  1.0000
  H   H2532     1.0  0.02865  0.67241  0.37838  1.0000
  H   H2533     1.0  0.20634  0.72502  0.37543  1.0000
  H   H2534     1.0  0.08402  0.82423  0.35516  1.0000
  H   H2535     1.0  0.15934  0.84660  0.34902  1.0000
  H   H2536     1.0  0.23172  0.86589  0.36853  1.0000
  C   C1437     1.0  0.03791  0.90484  0.37328  1.0000
  H   H2537     1.0  0.02513  0.87981  0.33576  1.0000
  C   C1438     1.0  0.07056  0.80579  0.38093  1.0000
  H   H2538     1.0  0.19078  0.84650  0.32254  1.0000
  H   H2539     1.0  0.14417  0.87433  0.36415  1.0000
  C   C1439     1.0  0.08776  0.75110  0.48359  1.0000
  H   H2540     1.0  0.47229  0.95643  0.34473  1.0000
  C   C1440     1.0  0.06578  0.85907  0.33296  1.0000
  H   H2541     1.0  0.18202  0.68191  0.40636  1.0000
  H   H2542     1.0  0.07935  0.86769  0.29309  1.0000
  C   C1441     1.0  0.42990  0.91964  0.26005  1.0000
  C   C1442     1.0  0.41362  0.93823  0.28697  1.0000
  H   H2543     1.0  0.44189  0.91644  0.28514  1.0000
  H   H2544     1.0  0.17268  0.81704  0.33248  1.0000
  H   H2545     1.0  0.31741  0.72311  0.45983  1.0000
  C   C1443     1.0  0.21834  0.86794  0.38050  1.0000
  H   H2546     1.0  0.17437  0.83190  0.36535  1.0000
  H   H2547     1.0  0.03870  0.68811  0.35687  1.0000
  H   H2548     1.0  0.46078  0.88798  0.26843  1.0000
  H   H2549     1.0  0.39593  0.66416  0.27512  1.0000
  N   N82       1.0  0.36772  0.66837  0.29641  1.0000
  H   H2550     1.0  0.42113  0.90760  0.26849  1.0000
  H   H2551     1.0  0.05273  0.88664  0.25788  1.0000
  S   S318      1.0  0.01013  0.94483  0.33811  1.0000
  H   H2552     1.0  0.25346  0.67891  0.46971  1.0000
  H   H2553     1.0  0.05845  0.80728  0.39393  1.0000
  C   C1444     1.0  0.29641  0.68773  0.47637  1.0000
  C   C1445     1.0  0.06009  0.90001  0.25121  1.0000
  H   H2554     1.0  0.06910  0.89088  0.32498  1.0000
  H   H2555     1.0  0.07388  0.69197  0.34121  1.0000
  C   C1446     1.0  0.19909  0.80768  0.48460  1.0000
  C   C1447     1.0  0.07906  0.96693  0.24158  1.0000
  C   C1448     1.0  0.10550  0.68526  0.34276  1.0000
  C   C1449     1.0  0.00254  0.94651  0.26288  1.0000
  H   H2556     1.0  0.31765  0.71091  0.31982  1.0000
  H   H2557     1.0  0.10871  0.69782  0.33028  1.0000
  H   H2558     1.0  0.00875  0.84271  0.36178  1.0000
  H   H2559     1.0  0.39747  0.69201  0.29070  1.0000
  C   C1450     1.0  0.48894  0.95138  0.28160  1.0000
  H   H2560     1.0  0.01667  0.97070  0.36221  1.0000
  C   C1451     1.0  0.02835  0.86347  0.34300  1.0000
  H   H2561     1.0  0.06083  0.69867  0.37073  1.0000
  H   H2562     1.0  0.21298  0.66306  0.35446  1.0000
  C   C1452     1.0  0.11674  0.81046  0.48343  1.0000
  C   C1453     1.0  0.03389  0.97590  0.37931  1.0000
  H   H2563     1.0  0.41248  0.71319  0.26057  1.0000
  H   H2564     1.0  0.48542  0.98601  0.24561  1.0000
  H   H2565     1.0  0.41926  0.93166  0.25217  1.0000
  H   H2566     1.0  0.04629  0.96249  0.37647  1.0000
  H   H2567     1.0  0.27693  0.67265  0.43963  1.0000
  H   H2568     1.0  0.02333  0.97116  0.39298  1.0000
  C   C1454     1.0  0.02610  0.92219  0.24479  1.0000
  H   H2569     1.0  0.41680  0.94582  0.29671  1.0000
  H   H2570     1.0  0.20037  0.66067  0.44678  1.0000
  H   H2571     1.0  0.07275  0.89846  0.25813  1.0000
  H   H2572     1.0  0.99569  0.93350  0.27219  1.0000
  H   H2573     1.0  0.11373  0.98939  0.31453  1.0000
  H   H2574     1.0  0.10333  0.74232  0.47872  1.0000
  H   H2575     1.0  0.30189  0.69182  0.48665  1.0000
  H   H2576     1.0  0.23812  0.78117  0.48233  1.0000
  H   H2577     1.0  0.10183  0.91760  0.23889  1.0000
  H   H2578     1.0  0.03056  0.66552  0.32037  1.0000
  H   H2579     1.0  0.13506  0.97664  0.24000  1.0000
  H   H2580     1.0  0.05640  0.66877  0.33505  1.0000
  C   C1455     1.0  0.44251  0.89480  0.23978  1.0000
  H   H2581     1.0  0.32511  0.66736  0.31356  1.0000
  H   H2582     1.0  0.15783  0.66266  0.44059  1.0000
  S   S319      1.0  0.19342  0.82800  0.54347  1.0000
  H   H2583     1.0  0.17672  0.88391  0.56890  1.0000
  H   H2584     1.0  0.21637  0.74526  0.52552  1.0000
  H   H2585     1.0  0.12973  0.73373  0.61968  1.0000
  H   H2586     1.0  0.01487  0.88288  0.62207  1.0000
  H   H2587     1.0  0.05084  0.99163  0.61329  1.0000
  S   S320      1.0  0.10669  0.68263  0.57888  1.0000
  C   C1456     1.0  0.16192  0.71630  0.68069  1.0000
  H   H2588     1.0  0.24423  0.73512  0.50108  1.0000
  H   H2589     1.0  0.15453  0.74042  0.65740  1.0000
  H   H2590     1.0  0.15690  0.66952  0.61476  1.0000
  C   C1457     1.0  0.17475  0.87118  0.60480  1.0000
  Fe  Fe160     1.0  0.12683  0.81327  0.54141  1.0000
  Fe  Fe161     1.0  0.27409  0.72572  0.54416  1.0000
  H   H2591     1.0  0.18174  0.86259  0.61706  1.0000
  S   S321      1.0  0.28212  0.70195  0.56952  1.0000
  H   H2592     1.0  0.19871  0.71907  0.54647  1.0000
  Fe  Fe162     1.0  0.14867  0.77716  0.56615  1.0000
  S   S322      1.0  0.15690  0.79642  0.58109  1.0000
  S   S323      1.0  0.16289  0.74389  0.56919  1.0000
  H   H2593     1.0  0.06031  0.75812  0.54815  1.0000
  Fe  Fe163     1.0  0.16441  0.81638  0.55250  1.0000
  H   H2594     1.0  0.17380  0.70233  0.68391  1.0000
  Fe  Fe164     1.0  0.12481  0.81479  0.58179  1.0000
  S   S324      1.0  0.10801  0.82330  0.60983  1.0000
  S   S325      1.0  0.11573  0.79332  0.56943  1.0000
  Fe  Fe165     1.0  0.03452  0.92225  0.67569  1.0000
  S   S326      1.0  0.06272  0.89792  0.67152  1.0000
  H   H2595     1.0  0.20340  0.70584  0.62648  1.0000
  Fe  Fe166     1.0  0.05840  0.95457  0.67159  1.0000
  S   S327      1.0  0.08906  0.93301  0.66641  1.0000
  C   C1458     1.0  0.06290  0.70093  0.55085  1.0000
  Fe  Fe167     1.0  0.07566  0.92173  0.64808  1.0000
  S   S328      1.0  0.09087  0.91488  0.61914  1.0000
  Fe  Fe168     1.0  0.07367  0.91073  0.69023  1.0000
  H   H2596     1.0  0.01074  0.98649  0.60679  1.0000
  S   S329      1.0  0.04640  0.94544  0.65097  1.0000
  S   S330      1.0  0.04411  0.93290  0.69674  1.0000
  H   H2597     1.0  0.14674  0.84872  0.60437  1.0000
  H   H2598     1.0  0.14958  0.90291  0.55092  1.0000
  H   H2599     1.0  0.08535  0.78860  0.54795  1.0000
  C   C1459     1.0  0.05306  0.82308  0.61735  1.0000
  H   H2600     1.0  0.08796  0.92740  0.71761  1.0000
  H   H2601     1.0  0.07071  0.69234  0.50208  1.0000
  C   C1460     1.0  0.23457  0.81336  0.53702  1.0000
  C   C1461     1.0  0.08617  0.75906  0.50140  1.0000
  C   C1462     1.0  0.02126  0.88379  0.63377  1.0000
  H   H2602     1.0  0.24040  0.83882  0.58702  1.0000
  H   H2603     1.0  0.02427  0.92321  0.61326  1.0000
  C   C1463     1.0  0.14809  0.70975  0.51721  1.0000
  C   C1464     1.0  0.02380  0.87728  0.72169  1.0000
  C   C1465     1.0  0.09713  0.91573  0.72647  1.0000
  S   S331      1.0  0.13297  0.83633  0.55390  1.0000
  H   H2604     1.0  0.12900  0.89095  0.55242  1.0000
  H   H2605     1.0  0.09396  0.97496  0.66997  1.0000
  C   C1466     1.0  0.10275  0.84891  0.61211  1.0000
  C   C1467     1.0  0.09935  0.85288  0.63011  1.0000
  C   C1468     1.0  0.09560  0.87303  0.63242  1.0000
  C   C1469     1.0  0.09489  0.88944  0.61678  1.0000
  C   C1470     1.0  0.09781  0.88550  0.59883  1.0000
  C   C1471     1.0  0.10175  0.86530  0.59649  1.0000
  H   H2606     1.0  0.09997  0.84029  0.64228  1.0000
  H   H2607     1.0  0.09376  0.87579  0.64626  1.0000
  H   H2608     1.0  0.09715  0.89812  0.58667  1.0000
  H   H2609     1.0  0.10396  0.86244  0.58260  1.0000
  C   C1472     1.0  0.25119  0.77740  0.54098  1.0000
  H   H2610     1.0  0.14783  0.89567  0.60094  1.0000
  C   C1473     1.0  0.09255  0.75429  0.53270  1.0000
  C   C1474     1.0  0.21405  0.78761  0.54645  1.0000
  C   C1475     1.0  0.23199  0.77217  0.54577  1.0000
  H   H2611     1.0  0.19926  0.78349  0.55051  1.0000
  H   H2612     1.0  0.23094  0.75630  0.54924  1.0000
  C   C1476     1.0  0.21538  0.80824  0.54217  1.0000
  H   H2613     1.0  0.16471  0.83171  0.59133  1.0000
  C   C1477     1.0  0.16797  0.82695  0.62006  1.0000
  H   H2614     1.0  0.45517  0.67313  0.72920  1.0000
  H   H2615     1.0  0.21165  0.71088  0.52480  1.0000
  S   S332      1.0  0.27413  0.75889  0.54065  1.0000
  H   H2616     1.0  0.19860  0.66020  0.55066  1.0000
  C   C1478     1.0  0.23601  0.84491  0.57313  1.0000
  C   C1479     1.0  0.08960  0.99125  0.66926  1.0000
  H   H2617     1.0  0.20366  0.83804  0.60136  1.0000
  C   C1480     1.0  0.12794  0.72265  0.52569  1.0000
  H   H2618     1.0  0.11285  0.71806  0.50597  1.0000
  H   H2619     1.0  0.06605  0.68848  0.56325  1.0000
  H   H2620     1.0  0.23685  0.83190  0.56688  1.0000
  H   H2621     1.0  0.26792  0.75285  0.50603  1.0000
  C   C1481     1.0  0.23185  0.76812  0.49237  1.0000
  C   C1482     1.0  0.12200  0.69960  0.57713  1.0000
  C   C1483     1.0  0.11306  0.71984  0.57871  1.0000
  C   C1484     1.0  0.12548  0.73377  0.57602  1.0000
  C   C1485     1.0  0.14678  0.72735  0.57193  1.0000
  C   C1486     1.0  0.15561  0.70707  0.57063  1.0000
  C   C1487     1.0  0.14326  0.69320  0.57332  1.0000
  H   H2622     1.0  0.09658  0.72476  0.58179  1.0000
  H   H2623     1.0  0.11859  0.74935  0.57729  1.0000
  H   H2624     1.0  0.17207  0.70198  0.56769  1.0000
  H   H2625     1.0  0.15024  0.67746  0.57270  1.0000
  S   S333      1.0  0.29674  0.70898  0.52289  1.0000
  H   H2626     1.0  0.05136  0.91786  0.60315  1.0000
  H   H2627     1.0  0.03225  0.88723  0.70955  1.0000
  H   H2628     1.0  0.48735  0.67992  0.72688  1.0000
  H   H2629     1.0  0.16758  0.83571  0.63045  1.0000
  H   H2630     1.0  0.09241  0.67730  0.48893  1.0000
  H   H2631     1.0  0.10381  0.76442  0.52656  1.0000
  C   C1488     1.0  0.19636  0.68333  0.50455  1.0000
  H   H2632     1.0  0.42575  0.68529  0.56888  1.0000
  H   H2633     1.0  0.26715  0.80213  0.53278  1.0000
  H   H2634     1.0  0.16188  0.74542  0.60511  1.0000
  H   H2635     1.0  0.43825  0.66387  0.60086  1.0000
  H   H2636     1.0  0.19584  0.68175  0.61609  1.0000
  C   C1489     1.0  0.00281  0.86298  0.66182  1.0000
  H   H2637     1.0  0.06126  0.69397  0.53989  1.0000
  H   H2638     1.0  0.04834  0.71150  0.55547  1.0000
  C   C1490     1.0  0.15240  0.81328  0.62933  1.0000
  H   H2639     1.0  0.05396  0.80929  0.62906  1.0000
  H   H2640     1.0  0.05515  0.85509  0.69090  1.0000
  H   H2641     1.0  0.16911  0.71066  0.60164  1.0000
  H   H2642     1.0  0.24717  0.85410  0.56356  1.0000
  H   H2643     1.0  0.21383  0.73553  0.49460  1.0000
  N   N83       1.0  0.17642  0.85717  0.59205  1.0000
  H   H2644     1.0  0.14342  0.86009  0.57358  1.0000
  H   H2645     1.0  0.04063  0.82386  0.61042  1.0000
  H   H2646     1.0  0.07381  0.84239  0.67348  1.0000
  H   H2647     1.0  0.40414  0.69121  0.55134  1.0000
  H   H2648     1.0  0.17794  0.67494  0.59511  1.0000
  H   H2649     1.0  0.04453  0.89859  0.63584  1.0000
  H   H2650     1.0  0.19639  0.73239  0.62579  1.0000
  H   H2651     1.0  0.12872  0.77438  0.62907  1.0000
  H   H2652     1.0  0.10726  0.76593  0.62700  1.0000
  H   H2653     1.0  0.16197  0.72722  0.68901  1.0000
  H   H2654     1.0  0.18392  0.88307  0.59730  1.0000
  C   C1491     1.0  0.15286  0.89296  0.62818  1.0000
  C   C1492     1.0  0.07189  0.76763  0.54075  1.0000
  H   H2655     1.0  0.08029  0.76672  0.56688  1.0000
  S   S334      1.0  0.24774  0.71349  0.54346  1.0000
  C   C1493     1.0  0.14536  0.88801  0.55297  1.0000
  C   C1494     1.0  0.07449  0.77818  0.55499  1.0000
  H   H2656     1.0  0.05952  0.78743  0.56081  1.0000
  C   C1495     1.0  0.14850  0.87435  0.57208  1.0000
  H   H2657     1.0  0.13178  0.73536  0.52939  1.0000
  C   C1496     1.0  0.48168  0.68208  0.69233  1.0000
  H   H2658     1.0  0.09467  0.70073  0.53959  1.0000
  H   H2659     1.0  0.04928  0.86393  0.73492  1.0000
  H   H2660     1.0  0.35196  0.66308  0.64913  1.0000
  H   H2661     1.0  0.13698  0.82267  0.63367  1.0000
  H   H2662     1.0  0.09786  0.74355  0.54510  1.0000
  N   N84       1.0  0.09243  0.74312  0.51817  1.0000
  H   H2663     1.0  0.35898  0.67681  0.61469  1.0000
  H   H2664     1.0  0.05421  0.88175  0.61975  1.0000
  C   C1497     1.0  0.22490  0.72721  0.59439  1.0000
  H   H2665     1.0  0.06773  0.82157  0.60668  1.0000
  C   C1498     1.0  0.21445  0.85830  0.57538  1.0000
  C   C1499     1.0  0.16323  0.84146  0.60135  1.0000
  H   H2666     1.0  0.15677  0.80244  0.64215  1.0000
  H   H2667     1.0  0.37115  0.71499  0.54925  1.0000
  C   C1500     1.0  0.17918  0.68236  0.62093  1.0000
  H   H2668     1.0  0.49043  0.69131  0.69570  1.0000
  H   H2669     1.0  0.15473  0.88037  0.54129  1.0000
  C   C1501     1.0  0.04073  0.89300  0.62502  1.0000
  C   C1502     1.0  0.05913  0.84186  0.68408  1.0000
  Fe  Fe169     1.0  0.27086  0.69475  0.52421  1.0000
  H   H2670     1.0  0.40280  0.66988  0.62036  1.0000
  H   H2671     1.0  0.22804  0.66976  0.50259  1.0000
  C   C1503     1.0  0.36505  0.67076  0.64200  1.0000
  C   C1504     1.0  0.07115  0.65976  0.50979  1.0000
  C   C1505     1.0  0.37300  0.69873  0.54888  1.0000
  H   H2672     1.0  0.19959  0.83302  0.58088  1.0000
  Fe  Fe170     1.0  0.25772  0.68810  0.56672  1.0000
  C   C1506     1.0  0.03879  0.86192  0.65918  1.0000
  H   H2673     1.0  0.21145  0.86487  0.56097  1.0000
  H   H2674     1.0  0.06198  0.84051  0.63194  1.0000
  C   C1507     1.0  0.19900  0.72231  0.53115  1.0000
  H   H2675     1.0  0.46517  0.68741  0.69809  1.0000
  H   H2676     1.0  0.05406  0.86297  0.64983  1.0000
  H   H2677     1.0  0.37751  0.66353  0.64978  1.0000
  C   C1508     1.0  0.08056  0.71224  0.54330  1.0000
  C   C1509     1.0  0.07721  0.72933  0.52563  1.0000
  H   H2678     1.0  0.13720  0.90183  0.63287  1.0000
  C   C1510     1.0  0.17122  0.86930  0.57335  1.0000
  H   H2679     1.0  0.19229  0.67981  0.52024  1.0000
  H   H2680     1.0  0.06594  0.77991  0.52946  1.0000
  H   H2681     1.0  0.18416  0.72072  0.52951  1.0000
  H   H2682     1.0  0.38754  0.69403  0.61189  1.0000
  H   H2683     1.0  0.16360  0.90360  0.62309  1.0000
  C   C1511     1.0  0.04947  0.84240  0.62479  1.0000
  C   C1512     1.0  0.12155  0.80471  0.50127  1.0000
  C   C1513     1.0  0.13509  0.74239  0.62706  1.0000
  H   H2684     1.0  0.18323  0.81667  0.61736  1.0000
  H   H2685     1.0  0.00670  0.93685  0.64429  1.0000
  S   S335      1.0  0.15906  0.79564  0.53745  1.0000
  H   H2686     1.0  0.06134  0.73848  0.52864  1.0000
  C   C1514     1.0  0.03744  0.91122  0.60856  1.0000
  C   C1515     1.0  0.02826  0.84592  0.63834  1.0000
  C   C1516     1.0  0.16682  0.70470  0.61717  1.0000
  H   H2687     1.0  0.22591  0.74037  0.59947  1.0000
  H   H2688     1.0  0.15713  0.88111  0.64054  1.0000
  H   H2689     1.0  0.14665  0.71220  0.68515  1.0000
  H   H2690     1.0  0.12081  0.71306  0.53888  1.0000
  H   H2691     1.0  0.17937  0.86075  0.56200  1.0000
  H   H2692     1.0  0.13713  0.78059  0.52048  1.0000
  C   C1517     1.0  0.39011  0.68519  0.55860  1.0000
  H   H2693     1.0  0.23058  0.77076  0.50661  1.0000
  H   H2694     1.0  0.13845  0.88216  0.58320  1.0000
  H   H2695     1.0  0.04086  0.98068  0.57968  1.0000
  C   C1518     1.0  0.09971  0.89508  0.72630  1.0000
  H   H2696     1.0  0.99976  0.87407  0.67102  1.0000
  C   C1519     1.0  0.04209  0.84220  0.67476  1.0000
  H   H2697     1.0  0.14166  0.87312  0.61827  1.0000
  H   H2698     1.0  0.47621  0.67790  0.66663  1.0000
  H   H2699     1.0  0.23569  0.82924  0.53357  1.0000
  H   H2700     1.0  0.15176  0.80433  0.61947  1.0000
  C   C1520     1.0  0.12407  0.76471  0.62215  1.0000
  H   H2701     1.0  0.02667  0.83139  0.64895  1.0000
  H   H2702     1.0  0.06129  0.82759  0.69512  1.0000
  H   H2703     1.0  0.21445  0.87098  0.58162  1.0000
  H   H2704     1.0  0.05033  0.85532  0.61230  1.0000
  H   H2705     1.0  0.18447  0.82389  0.50743  1.0000
  C   C1521     1.0  0.03960  0.97009  0.59379  1.0000
  C   C1522     1.0  0.25237  0.79802  0.53654  1.0000
  H   H2706     1.0  0.00299  0.84766  0.67149  1.0000
  H   H2707     1.0  0.19662  0.78567  0.51102  1.0000
  H   H2708     1.0  0.16615  0.98568  0.73212  1.0000
  H   H2709     1.0  0.16318  0.75174  0.62559  1.0000
  C   C1523     1.0  0.19838  0.84557  0.58798  1.0000
  H   H2710     1.0  0.09557  0.77100  0.49699  1.0000
  C   C1524     1.0  0.15300  0.88305  0.61239  1.0000
  H   H2711     1.0  0.12241  0.74071  0.49921  1.0000
  S   S336      1.0  0.33524  0.66657  0.54986  1.0000
  H   H2712     1.0  0.36000  0.68715  0.64272  1.0000
  S   S337      1.0  0.23565  0.67357  0.59120  1.0000
  H   H2713     1.0  0.15044  0.70367  0.62203  1.0000
  C   C1525     1.0  0.43435  0.68067  0.59550  1.0000
  H   H2714     1.0  0.19946  0.69900  0.49969  1.0000
  H   H2715     1.0  0.46105  0.68018  0.57206  1.0000
  H   H2716     1.0  0.03431  0.87520  0.66611  1.0000
  C   C1526     1.0  0.15867  0.74024  0.62068  1.0000
  S   S338      1.0  0.27901  0.66831  0.54758  1.0000
  S   S339      1.0  0.11144  0.82138  0.51698  1.0000
  C   C1527     1.0  0.17357  0.66928  0.61061  1.0000
  H   H2717     1.0  0.13017  0.73676  0.64250  1.0000
  C   C1528     1.0  0.11370  0.73109  0.51144  1.0000
  H   H2718     1.0  0.18930  0.75477  0.52877  1.0000
  H   H2719     1.0  0.41148  0.70349  0.58233  1.0000
  H   H2720     1.0  0.21470  0.68213  0.56076  1.0000
  H   H2721     1.0  0.07748  0.72131  0.51467  1.0000
  H   H2722     1.0  0.03247  0.95767  0.59360  1.0000
  C   C1529     1.0  0.13391  0.78551  0.50654  1.0000
  H   H2723     1.0  0.08170  0.71841  0.55494  1.0000
  C   C1530     1.0  0.37208  0.66864  0.62142  1.0000
  S   S340      1.0  0.08749  0.88716  0.71287  1.0000
  C   C1531     1.0  0.20239  0.74400  0.52205  1.0000
  H   H2724     1.0  0.05515  0.96311  0.59658  1.0000
  C   C1532     1.0  0.20394  0.74888  0.50041  1.0000
  H   H2725     1.0  0.45090  0.70466  0.57884  1.0000
  H   H2726     1.0  0.02803  0.84127  0.68610  1.0000
  H   H2727     1.0  0.02456  0.86294  0.71754  1.0000
  H   H2728     1.0  0.03460  0.90630  0.59686  1.0000
  C   C1533     1.0  0.38421  0.68482  0.58003  1.0000
  C   C1534     1.0  0.41783  0.68677  0.58351  1.0000
  N   N85       1.0  0.21117  0.76829  0.48946  1.0000
  H   H2729     1.0  0.26790  0.66333  0.61037  1.0000
  C   C1535     1.0  0.24844  0.74846  0.48998  1.0000
  C   C1536     1.0  0.19369  0.72033  0.62025  1.0000
  C   C1537     1.0  0.19598  0.78614  0.49632  1.0000
  H   H2730     1.0  0.35825  0.69387  0.55590  1.0000
  C   C1538     1.0  0.02642  0.98136  0.60923  1.0000
  C   C1539     1.0  0.16632  0.71140  0.64756  1.0000
  H   H2731     1.0  0.19408  0.73964  0.59142  1.0000
  H   H2732     1.0  0.12753  0.77063  0.60662  1.0000
  Fe  Fe171     1.0  0.30290  0.68415  0.54831  1.0000
  H   H2733     1.0  0.18150  0.73048  0.65601  1.0000
  S   S341      1.0  0.25865  0.69093  0.50093  1.0000
  C   C1540     1.0  0.39149  0.67754  0.61129  1.0000
  C   C1541     1.0  0.21510  0.66636  0.56818  1.0000
  H   H2734     1.0  0.37755  0.70082  0.58187  1.0000
  N   N86       1.0  0.17135  0.71917  0.62640  1.0000
  N   N87       1.0  0.40076  0.67512  0.59114  1.0000
  H   H2735     1.0  0.01703  0.84805  0.62962  1.0000
  H   H2736     1.0  0.04655  0.82836  0.66875  1.0000
  C   C1542     1.0  0.18295  0.82447  0.49301  1.0000
  H   H2737     1.0  0.02572  0.96998  0.62283  1.0000
  C   C1543     1.0  0.16639  0.72622  0.65961  1.0000
  H   H2738     1.0  0.37675  0.69749  0.53388  1.0000
  H   H2739     1.0  0.06085  0.66108  0.52377  1.0000
  H   H2740     1.0  0.09138  0.67702  0.51322  1.0000
  H   H2741     1.0  0.01000  0.89581  0.64049  1.0000
  H   H2742     1.0  0.23445  0.71303  0.60117  1.0000
  H   H2743     1.0  0.46518  0.68368  0.59339  1.0000
  C   C1544     1.0  0.08213  0.67767  0.50310  1.0000
  H   H2744     1.0  0.15654  0.71919  0.50462  1.0000
  H   H2745     1.0  0.18836  0.74958  0.49873  1.0000
  H   H2746     1.0  0.15117  0.70691  0.65224  1.0000
  N   N88       1.0  0.02323  0.86355  0.64799  1.0000
  H   H2747     1.0  0.14528  0.69679  0.51304  1.0000
  H   H2748     1.0  0.42854  0.68788  0.60794  1.0000
  H   H2749     1.0  0.04395  0.89984  0.73278  1.0000
  C   C1545     1.0  0.48508  0.68641  0.67080  1.0000
  H   H2750     1.0  0.01856  0.97976  0.72521  1.0000
  C   C1546     1.0  0.20266  0.72508  0.59860  1.0000
  H   H2751     1.0  0.17751  0.69712  0.65174  1.0000
  H   H2752     1.0  0.20239  0.71267  0.59211  1.0000
  H   H2753     1.0  0.18002  0.78505  0.49725  1.0000
  H   H2754     1.0  0.07001  0.76719  0.50522  1.0000
  H   H2755     1.0  0.19174  0.87298  0.73607  1.0000
  H   H2756     1.0  0.23119  0.72994  0.57891  1.0000
  H   H2757     1.0  0.39221  0.66952  0.55646  1.0000
  H   H2758     1.0  0.15060  0.75725  0.49839  1.0000
  H   H2759     1.0  0.15765  0.70353  0.52792  1.0000
  H   H2760     1.0  0.37140  0.67653  0.58548  1.0000
  C   C1547     1.0  0.14129  0.77213  0.49410  1.0000
  H   H2761     1.0  0.47998  0.70301  0.66518  1.0000
  H   H2762     1.0  0.18326  0.68286  0.49907  1.0000
  C   C1548     1.0  0.32780  0.66111  0.58858  1.0000
  S   S342      1.0  0.00396  0.91357  0.68345  1.0000
  C   C1549     1.0  0.45404  0.68781  0.58417  1.0000
  H   H2763     1.0  0.28064  0.73655  0.48953  1.0000
  C   C1550     1.0  0.15366  0.98399  0.72654  1.0000
  C   C1551     1.0  0.49380  0.66320  0.73012  1.0000
  H   H2764     1.0  0.17586  0.67512  0.63620  1.0000
  C   C1552     1.0  0.21533  0.66806  0.49741  1.0000
  S   S343      1.0  0.04978  0.98771  0.67402  1.0000
  H   H2765     1.0  0.16032  0.97972  0.71262  1.0000
  H   H2766     1.0  0.00748  0.88511  0.72501  1.0000
  H   H2767     1.0  0.00405  0.98673  0.68052  1.0000
  H   H2768     1.0  0.00270  0.99268  0.63900  1.0000
  H   H2769     1.0  0.06170  0.66148  0.49957  1.0000
  H   H2770     1.0  0.31418  0.67293  0.58749  1.0000
  C   C1553     1.0  0.00312  0.98838  0.73073  1.0000
  C   C1554     1.0  0.26904  0.75068  0.49171  1.0000
  H   H2771     1.0  0.16727  0.82280  0.49370  1.0000
  H   H2772     1.0  0.44762  0.66020  0.70513  1.0000
  H   H2773     1.0  0.41872  0.66639  0.73275  1.0000
  H   H2774     1.0  0.02495  0.98850  0.64762  1.0000
  H   H2775     1.0  0.45029  0.99178  0.73673  1.0000
  H   H2776     1.0  0.13179  0.96392  0.73519  1.0000
  H   H2777     1.0  0.13074  0.87379  0.75756  1.0000
  H   H2778     1.0  0.42444  0.91664  0.96078  1.0000
  H   H2779     1.0  0.30189  0.84171  0.86064  1.0000
  H   H2780     1.0  0.32660  0.92671  0.90221  1.0000
  H   H2781     1.0  0.36897  0.73197  0.83335  1.0000
  H   H2782     1.0  0.34981  0.74696  0.82009  1.0000
  Fe  Fe172     1.0  0.41116  0.90394  0.87504  1.0000
  S   S344      1.0  0.41941  0.87098  0.88931  1.0000
  S   S345      1.0  0.43343  0.92345  0.87172  1.0000
  Fe  Fe173     1.0  0.37088  0.89960  0.87015  1.0000
  S   S346      1.0  0.37611  0.86616  0.88369  1.0000
  S   S347      1.0  0.34161  0.91419  0.86030  1.0000
  Fe  Fe174     1.0  0.38656  0.87555  0.90485  1.0000
  S   S348      1.0  0.37687  0.86239  0.93583  1.0000
  Fe  Fe175     1.0  0.40807  0.86508  0.86669  1.0000
  S   S349      1.0  0.42603  0.84179  0.84963  1.0000
  S   S350      1.0  0.37920  0.90919  0.89254  1.0000
  S   S351      1.0  0.40216  0.89782  0.85112  1.0000
  Fe  Fe176     1.0  0.39501  0.74123  0.89381  1.0000
  S   S352      1.0  0.36441  0.76241  0.89911  1.0000
  S   S353      1.0  0.42555  0.74909  0.88879  1.0000
  Fe  Fe177     1.0  0.37753  0.70570  0.89381  1.0000
  S   S354      1.0  0.34517  0.72342  0.89967  1.0000
  S   S355      1.0  0.38578  0.67274  0.89106  1.0000
  Fe  Fe178     1.0  0.35721  0.74931  0.87827  1.0000
  S   S356      1.0  0.34321  0.76669  0.85349  1.0000
  Fe  Fe179     1.0  0.35490  0.73490  0.92021  1.0000
  S   S357      1.0  0.33364  0.73831  0.94822  1.0000
  S   S358      1.0  0.38886  0.73077  0.87079  1.0000
  S   S359      1.0  0.38615  0.71460  0.91655  1.0000
  Fe  Fe180     1.0  0.25472  0.85534  0.89538  1.0000
  C   C1555     1.0  0.33473  0.73217  0.98541  1.0000
  S   S360      1.0  0.28123  0.85565  0.90665  1.0000
  Fe  Fe181     1.0  0.21953  0.87337  0.87466  1.0000
  S   S361      1.0  0.20585  0.84550  0.88701  1.0000
  S   S362      1.0  0.20636  0.90075  0.85381  1.0000
  C   C1556     1.0  0.36258  0.85641  0.83385  1.0000
  Fe  Fe182     1.0  0.23834  0.82829  0.88043  1.0000
  S   S363      1.0  0.24801  0.80213  0.86578  1.0000
  S   S364      1.0  0.22404  0.87571  0.90235  1.0000
  S   S365      1.0  0.25184  0.85600  0.86634  1.0000
  Fe  Fe183     1.0  0.07213  0.95770  0.79910  1.0000
  S   S366      1.0  0.08911  0.92535  0.80710  1.0000
  S   S367      1.0  0.03939  0.96890  0.79587  1.0000
  Fe  Fe184     1.0  0.11007  0.97523  0.79025  1.0000
  S   S368      1.0  0.13039  0.94458  0.79710  1.0000
  H   H2783     1.0  0.43710  0.97315  0.77727  1.0000
  Fe  Fe185     1.0  0.11323  0.93428  0.78157  1.0000
  S   S369      1.0  0.13162  0.91215  0.76337  1.0000
  Fe  Fe186     1.0  0.10503  0.93810  0.82214  1.0000
  S   S370      1.0  0.11269  0.92002  0.85014  1.0000
  S   S371      1.0  0.09518  0.96559  0.77223  1.0000
  S   S372      1.0  0.08565  0.96991  0.81656  1.0000
  H   H2784     1.0  0.32075  0.73403  0.84602  1.0000
  H   H2785     1.0  0.08466  0.97485  0.85804  1.0000
  H   H2786     1.0  0.45724  0.68762  0.85931  1.0000
  H   H2787     1.0  0.05258  0.94372  0.76573  1.0000
  H   H2788     1.0  0.00223  0.97168  0.78554  1.0000
  C   C1557     1.0  0.37920  0.81522  0.98311  1.0000
  H   H2789     1.0  0.48496  0.87794  0.82122  1.0000
  H   H2790     1.0  0.24901  0.83549  0.94391  1.0000
  C   C1558     1.0  0.36508  0.81091  0.85649  1.0000
  C   C1559     1.0  0.44083  0.97766  0.83701  1.0000
  C   C1560     1.0  0.11842  0.90604  0.74959  1.0000
  C   C1561     1.0  0.32622  0.66803  0.88610  1.0000
  Fe  Fe187     1.0  0.21279  0.84645  0.91412  1.0000
  H   H2791     1.0  0.28664  0.81389  0.97224  1.0000
  H   H2792     1.0  0.32125  0.90245  0.93398  1.0000
  H   H2793     1.0  0.15657  0.95179  0.74039  1.0000
  C   C1562     1.0  0.44319  0.94061  0.91185  1.0000
  C   C1563     1.0  0.39519  0.79068  0.83666  1.0000
  H   H2794     1.0  0.26460  0.72326  0.89866  1.0000
  H   H2795     1.0  0.27884  0.79047  0.98366  1.0000
  H   H2796     1.0  0.44870  0.88931  0.85318  1.0000
  H   H2797     1.0  0.40505  0.93997  0.84676  1.0000
  H   H2798     1.0  0.02407  0.89108  0.79231  1.0000
  H   H2799     1.0  0.14892  0.86361  0.94245  1.0000
  C   C1564     1.0  0.18041  0.90554  0.85270  1.0000
  C   C1565     1.0  0.17231  0.92341  0.84071  1.0000
  C   C1566     1.0  0.15162  0.92789  0.83973  1.0000
  C   C1567     1.0  0.13882  0.91457  0.85087  1.0000
  C   C1568     1.0  0.14689  0.89670  0.86293  1.0000
  C   C1569     1.0  0.16769  0.89206  0.86363  1.0000
  H   H2800     1.0  0.18203  0.93398  0.83228  1.0000
  H   H2801     1.0  0.14551  0.94191  0.83069  1.0000
  H   H2802     1.0  0.13709  0.88629  0.87154  1.0000
  H   H2803     1.0  0.17385  0.87810  0.87268  1.0000
  C   C1570     1.0  0.31671  0.77609  0.85769  1.0000
  C   C1571     1.0  0.30551  0.78048  0.87515  1.0000
  C   C1572     1.0  0.28441  0.78899  0.87762  1.0000
  C   C1573     1.0  0.27444  0.79224  0.86291  1.0000
  C   C1574     1.0  0.28565  0.78741  0.84565  1.0000
  C   C1575     1.0  0.30680  0.77984  0.84290  1.0000
  H   H2804     1.0  0.31315  0.77766  0.88658  1.0000
  H   H2805     1.0  0.27576  0.79267  0.89098  1.0000
  H   H2806     1.0  0.27801  0.78999  0.83424  1.0000
  H   H2807     1.0  0.31547  0.77663  0.82934  1.0000
  C   C1576     1.0  0.14060  0.90482  0.94314  1.0000
  C   C1577     1.0  0.39676  0.67882  0.83422  1.0000
  C   C1578     1.0  0.39219  0.68337  0.85215  1.0000
  H   H2808     1.0  0.25860  0.85340  0.97276  1.0000
  C   C1579     1.0  0.27297  0.80735  0.98022  1.0000
  H   H2809     1.0  0.28086  0.72921  0.86406  1.0000
  H   H2810     1.0  0.39686  0.69109  0.82174  1.0000
  H   H2811     1.0  0.38865  0.69908  0.85341  1.0000
  H   H2812     1.0  0.34760  0.88848  0.83223  1.0000
  C   C1580     1.0  0.42565  0.81626  0.86128  1.0000
  C   C1581     1.0  0.44106  0.80082  0.85437  1.0000
  C   C1582     1.0  0.44105  0.78026  0.86310  1.0000
  C   C1583     1.0  0.42523  0.77500  0.87838  1.0000
  C   C1584     1.0  0.40963  0.79041  0.88526  1.0000
  C   C1585     1.0  0.41005  0.81109  0.87693  1.0000
  H   H2813     1.0  0.45313  0.80478  0.84231  1.0000
  H   H2814     1.0  0.45313  0.76839  0.85780  1.0000
  H   H2815     1.0  0.39753  0.78637  0.89726  1.0000
  H   H2816     1.0  0.39817  0.82297  0.88238  1.0000
  C   C1586     1.0  0.32361  0.89927  0.87347  1.0000
  C   C1587     1.0  0.30771  0.89832  0.86589  1.0000
  C   C1588     1.0  0.29427  0.88514  0.87607  1.0000
  C   C1589     1.0  0.29678  0.87308  0.89383  1.0000
  C   C1590     1.0  0.31234  0.87443  0.90154  1.0000
  C   C1591     1.0  0.32563  0.88759  0.89144  1.0000
  H   H2817     1.0  0.30608  0.90740  0.85201  1.0000
  H   H2818     1.0  0.28221  0.88412  0.87011  1.0000
  H   H2819     1.0  0.31423  0.86519  0.91531  1.0000
  H   H2820     1.0  0.33737  0.88881  0.89767  1.0000
  H   H2821     1.0  0.35754  0.90516  0.93027  1.0000
  H   H2822     1.0  0.44478  0.93070  0.95009  1.0000
  H   H2823     1.0  0.27354  0.83495  0.94723  1.0000
  C   C1592     1.0  0.45778  0.87972  0.84294  1.0000
  H   H2824     1.0  0.41437  0.91565  0.91216  1.0000
  C   C1593     1.0  0.40745  0.95345  0.90977  1.0000
  H   H2825     1.0  0.37099  0.88097  0.84084  1.0000
  H   H2826     1.0  0.46304  0.86406  0.85101  1.0000
  C   C1594     1.0  0.48945  0.93543  0.81771  1.0000
  C   C1595     1.0  0.42810  0.93212  0.95576  1.0000
  H   H2827     1.0  0.07272  0.83378  0.78822  1.0000
  C   C1596     1.0  0.02362  0.95108  0.80149  1.0000
  C   C1597     1.0  0.02819  0.93171  0.81310  1.0000
  H   H2828     1.0  0.13913  0.96892  0.75450  1.0000
  C   C1598     1.0  0.38176  0.87541  0.96494  1.0000
  H   H2829     1.0  0.04191  0.92721  0.81860  1.0000
  H   H2830     1.0  0.37332  0.98197  0.89945  1.0000
  H   H2831     1.0  0.09270  0.84749  0.77436  1.0000
  H   H2832     1.0  0.16956  0.92807  0.88530  1.0000
  C   C1599     1.0  0.42981  0.94623  0.85476  1.0000
  C   C1600     1.0  0.28899  0.73083  0.87414  1.0000
  C   C1601     1.0  0.06833  0.98122  0.86381  1.0000
  H   H2833     1.0  0.49469  0.69973  0.86336  1.0000
  H   H2834     1.0  0.33842  0.71535  0.82202  1.0000
  H   H2835     1.0  0.17674  0.91112  0.92607  1.0000
  H   H2836     1.0  0.48796  0.66801  0.84618  1.0000
  H   H2837     1.0  0.48760  0.71159  0.88333  1.0000
  H   H2838     1.0  0.41314  0.95138  0.89496  1.0000
  C   C1602     1.0  0.32152  0.84682  0.97173  1.0000
  H   H2839     1.0  0.05853  0.97706  0.85666  1.0000
  H   H2840     1.0  0.30565  0.69302  0.81646  1.0000
  C   C1603     1.0  0.26336  0.79733  0.95564  1.0000
  C   C1604     1.0  0.28400  0.79743  0.94090  1.0000
  C   C1605     1.0  0.28990  0.77906  0.93166  1.0000
  H   H2841     1.0  0.25121  0.79955  0.94778  1.0000
  H   H2842     1.0  0.26453  0.78149  0.96447  1.0000
  C   C1606     1.0  0.33559  0.68521  0.87091  1.0000
  H   H2843     1.0  0.29658  0.79680  0.94758  1.0000
  H   H2844     1.0  0.28281  0.81141  0.92944  1.0000
  H   H2845     1.0  0.30448  0.77960  0.92095  1.0000
  H   H2846     1.0  0.29214  0.76453  0.94240  1.0000
  H   H2847     1.0  0.27785  0.77919  0.92455  1.0000
  C   C1607     1.0  0.33420  0.82336  0.87874  1.0000
  C   C1608     1.0  0.34591  0.82163  0.89413  1.0000
  C   C1609     1.0  0.33363  0.81423  0.91397  1.0000
  H   H2848     1.0  0.37733  0.81435  0.86124  1.0000
  H   H2849     1.0  0.36186  0.79618  0.86597  1.0000
  H   H2850     1.0  0.32857  0.80894  0.88184  1.0000
  H   H2851     1.0  0.36221  0.84756  0.86319  1.0000
  H   H2852     1.0  0.34854  0.83682  0.89362  1.0000
  H   H2853     1.0  0.36090  0.81080  0.89231  1.0000
  H   H2854     1.0  0.39339  0.77652  0.84772  1.0000
  H   H2855     1.0  0.33144  0.79854  0.91566  1.0000
  H   H2856     1.0  0.34203  0.81388  0.92465  1.0000
  H   H2857     1.0  0.31846  0.82468  0.91668  1.0000
  C   C1610     1.0  0.38462  0.95179  0.91582  1.0000
  H   H2858     1.0  0.47542  0.67903  0.82109  1.0000
  C   C1611     1.0  0.37697  0.72923  0.97799  1.0000
  H   H2859     1.0  0.05045  0.90779  0.77565  1.0000
  H   H2860     1.0  0.32060  0.67267  0.89994  1.0000
  C   C1612     1.0  0.36728  0.73244  0.96306  1.0000
  C   C1613     1.0  0.43733  0.89959  0.92762  1.0000
  C   C1614     1.0  0.31016  0.93426  0.90548  1.0000
  C   C1615     1.0  0.19404  0.87502  0.95092  1.0000
  H   H2861     1.0  0.45437  0.93065  0.92022  1.0000
  H   H2862     1.0  0.19829  0.88048  0.93592  1.0000
  H   H2863     1.0  0.42420  0.70382  0.88606  1.0000
  C   C1616     1.0  0.41860  0.91739  0.92477  1.0000
  C   C1617     1.0  0.17892  0.91949  0.89584  1.0000
  S   S373      1.0  0.19299  0.83893  0.94325  1.0000
  H   H2864     1.0  0.44949  0.69163  0.82943  1.0000
  H   H2865     1.0  0.25765  0.88895  0.97784  1.0000
  H   H2866     1.0  0.40551  0.91424  0.93679  1.0000
  H   H2867     1.0  0.12245  0.93334  0.97828  1.0000
  N   N89       1.0  0.25747  0.81274  0.96801  1.0000
  H   H2868     1.0  0.30131  0.92753  0.89943  1.0000
  H   H2869     1.0  0.42253  0.87758  0.95006  1.0000
  H   H2870     1.0  0.31060  0.84477  0.81780  1.0000
  H   H2871     1.0  0.34070  0.82910  0.83103  1.0000
  C   C1618     1.0  0.40151  0.80929  0.94375  1.0000
  N   N90       1.0  0.48599  0.92183  0.80693  1.0000
  C   C1619     1.0  0.36270  0.91594  0.95234  1.0000
  H   H2872     1.0  0.40613  0.77747  0.95912  1.0000
  H   H2873     1.0  0.38737  0.81144  0.93873  1.0000
  H   H2874     1.0  0.41899  0.81589  0.91489  1.0000
  N   N91       1.0  0.42148  0.93894  0.92208  1.0000
  C   C1620     1.0  0.43099  0.87892  0.93511  1.0000
  H   H2875     1.0  0.37150  0.78305  0.95998  1.0000
  C   C1621     1.0  0.30762  0.67863  0.82741  1.0000
  C   C1622     1.0  0.45401  0.67775  0.80613  1.0000
  H   H2876     1.0  0.28062  0.73816  0.90197  1.0000
  C   C1623     1.0  0.29834  0.88158  0.96479  1.0000
  H   H2877     1.0  0.44479  0.86637  0.93448  1.0000
  H   H2878     1.0  0.35489  0.85528  0.82326  1.0000
  C   C1624     1.0  0.38046  0.89034  0.97470  1.0000
  C   C1625     1.0  0.34751  0.78465  0.98447  1.0000
  H   H2879     1.0  0.23986  0.88560  0.95522  1.0000
  C   C1626     1.0  0.47617  0.88862  0.83063  1.0000
  C   C1627     1.0  0.30088  0.84282  0.83233  1.0000
  H   H2880     1.0  0.00833  0.90398  0.77650  1.0000
  H   H2881     1.0  0.31363  0.71451  0.88837  1.0000
  H   H2882     1.0  0.09227  0.94292  0.90980  1.0000
  C   C1628     1.0  0.37395  0.88083  0.94864  1.0000
  H   H2883     1.0  0.28573  0.93988  0.92921  1.0000
  H   H2884     1.0  0.31549  0.85956  0.84273  1.0000
  H   H2885     1.0  0.42114  0.87708  0.92661  1.0000
  H   H2886     1.0  0.06456  0.97413  0.87912  1.0000
  H   H2887     1.0  0.31553  0.84497  0.98726  1.0000
  H   H2888     1.0  0.26196  0.75011  0.88767  1.0000
  H   H2889     1.0  0.35754  0.70044  0.83514  1.0000
  C   C1629     1.0  0.18508  0.84819  0.97789  1.0000
  H   H2890     1.0  0.23889  0.87207  0.93849  1.0000
  C   C1630     1.0  0.06367  0.86697  0.78465  1.0000
  H   H2891     1.0  0.26667  0.91421  0.94888  1.0000
  C   C1631     1.0  0.30200  0.93181  0.92682  1.0000
  H   H2892     1.0  0.48586  0.88873  0.84000  1.0000
  H   H2893     1.0  0.20566  0.93057  0.87764  1.0000
  H   H2894     1.0  0.39949  0.94440  0.94767  1.0000
  C   C1632     1.0  0.33053  0.78617  0.97460  1.0000
  H   H2895     1.0  0.33653  0.77803  0.96278  1.0000
  C   C1633     1.0  0.45920  0.67775  0.82455  1.0000
  H   H2896     1.0  0.05041  0.85679  0.76722  1.0000
  C   C1634     1.0  0.12670  0.91919  0.97273  1.0000
  C   C1635     1.0  0.43694  0.69399  0.89265  1.0000
  H   H2897     1.0  0.43434  0.80175  0.93190  1.0000
  C   C1636     1.0  0.39194  0.66760  0.86833  1.0000
  C   C1637     1.0  0.13440  0.92435  0.95126  1.0000
  H   H2898     1.0  0.43373  0.68083  0.86145  1.0000
  H   H2899     1.0  0.27045  0.93074  0.96128  1.0000
  C   C1638     1.0  0.41569  0.94519  0.94081  1.0000
  H   H2900     1.0  0.28695  0.85521  0.83235  1.0000
  C   C1639     1.0  0.46933  0.91032  0.81867  1.0000
  H   H2901     1.0  0.31243  0.84025  0.96580  1.0000
  H   H2902     1.0  0.31079  0.93958  0.93187  1.0000
  H   H2903     1.0  0.14538  0.85706  0.90476  1.0000
  C   C1640     1.0  0.24869  0.85257  0.96391  1.0000
  H   H2904     1.0  0.46050  0.90795  0.80944  1.0000
  H   H2905     1.0  0.29612  0.82790  0.83627  1.0000
  C   C1641     1.0  0.42672  0.98143  0.82574  1.0000
  C   C1642     1.0  0.47069  0.96155  0.89701  1.0000
  H   H2906     1.0  0.49024  0.94481  0.78078  1.0000
  H   H2907     1.0  0.39328  0.72830  0.97506  1.0000
  H   H2908     1.0  0.13890  0.90833  0.97956  1.0000
  C   C1643     1.0  0.45824  0.95085  0.79300  1.0000
  H   H2909     1.0  0.16675  0.84548  0.91615  1.0000
  C   C1644     1.0  0.19649  0.93035  0.89231  1.0000
  H   H2910     1.0  0.01940  0.85718  0.78154  1.0000
  C   C1645     1.0  0.44869  0.67504  0.86587  1.0000
  H   H2911     1.0  0.45057  0.98832  0.83454  1.0000
  C   C1646     1.0  0.36568  0.79328  0.97027  1.0000
  N   N92       1.0  0.14834  0.90767  0.92198  1.0000
  H   H2912     1.0  0.33520  0.68245  0.83211  1.0000
  C   C1647     1.0  0.15611  0.88701  0.91673  1.0000
  C   C1648     1.0  0.41506  0.95042  0.84407  1.0000
  C   C1649     1.0  0.13231  0.92092  0.91128  1.0000
  C   C1650     1.0  0.11266  0.91290  0.91454  1.0000
  C   C1651     1.0  0.27310  0.73577  0.89175  1.0000
  H   H2913     1.0  0.30867  0.95074  0.89856  1.0000
  C   C1652     1.0  0.14457  0.86966  0.92851  1.0000
  C   C1653     1.0  0.15005  0.85191  0.91855  1.0000
  C   C1654     1.0  0.09713  0.92875  0.90422  1.0000
  C   C1655     1.0  0.16603  0.91846  0.91641  1.0000
  C   C1656     1.0  0.32076  0.86934  0.96227  1.0000
  H   H2914     1.0  0.03581  0.96110  0.75137  1.0000
  H   H2915     1.0  0.12717  0.89751  0.94813  1.0000
  H   H2916     1.0  0.15648  0.88872  0.90158  1.0000
  H   H2917     1.0  0.17224  0.88066  0.91826  1.0000
  H   H2918     1.0  0.14768  0.93156  0.94850  1.0000
  C   C1657     1.0  0.45127  0.96133  0.77452  1.0000
  H   H2919     1.0  0.12783  0.93657  0.91412  1.0000
  H   H2920     1.0  0.13871  0.92310  0.89579  1.0000
  H   H2921     1.0  0.10519  0.90935  0.92974  1.0000
  H   H2922     1.0  0.11636  0.89907  0.90860  1.0000
  H   H2923     1.0  0.12162  0.99043  0.81859  1.0000
  H   H2924     1.0  0.45702  0.69183  0.79544  1.0000
  C   C1658     1.0  0.19137  0.88809  0.96302  1.0000
  C   C1659     1.0  0.37271  0.96575  0.90114  1.0000
  H   H2925     1.0  0.43186  0.69224  0.90822  1.0000
  H   H2926     1.0  0.12776  0.87485  0.93131  1.0000
  H   H2927     1.0  0.18231  0.83288  0.98369  1.0000
  H   H2928     1.0  0.47776  0.92572  0.78033  1.0000
  H   H2929     1.0  0.14203  0.83957  0.92752  1.0000
  C   C1660     1.0  0.03456  0.92937  0.75554  1.0000
  H   H2930     1.0  0.10379  0.93260  0.88878  1.0000
  H   H2931     1.0  0.08340  0.92244  0.90628  1.0000
  C   C1661     1.0  0.23640  0.91707  0.98076  1.0000
  H   H2932     1.0  0.30284  0.71132  0.84121  1.0000
  H   H2933     1.0  0.16051  0.93461  0.91797  1.0000
  H   H2934     1.0  0.32397  0.80240  0.96895  1.0000
  H   H2935     1.0  0.06865  0.87163  0.75427  1.0000
  H   H2936     1.0  0.46328  0.96889  0.76414  1.0000
  N   N93       1.0  0.17707  0.87872  0.79982  1.0000
  C   C1662     1.0  0.19068  0.86930  0.78365  1.0000
  C   C1663     1.0  0.18578  0.86924  0.81728  1.0000
  C   C1664     1.0  0.15649  0.87305  0.80400  1.0000
  C   C1665     1.0  0.17399  0.90176  0.79528  1.0000
  C   C1666     1.0  0.19233  0.91131  0.78256  1.0000
  C   C1667     1.0  0.18201  0.87476  0.76557  1.0000
  C   C1668     1.0  0.14026  0.88030  0.82095  1.0000
  C   C1669     1.0  0.20753  0.87181  0.81625  1.0000
  C   C1670     1.0  0.21595  0.85765  0.83308  1.0000
  C   C1671     1.0  0.18792  0.93430  0.78151  1.0000
  H   H2937     1.0  0.44795  0.95003  0.76847  1.0000
  C   C1672     1.0  0.11969  0.87527  0.82249  1.0000
  H   H2938     1.0  0.19401  0.85230  0.78825  1.0000
  H   H2939     1.0  0.20583  0.87353  0.77938  1.0000
  H   H2940     1.0  0.17600  0.87589  0.82943  1.0000
  H   H2941     1.0  0.18573  0.85256  0.82152  1.0000
  H   H2942     1.0  0.15837  0.85615  0.80646  1.0000
  H   H2943     1.0  0.14924  0.87973  0.79163  1.0000
  H   H2944     1.0  0.16117  0.90884  0.78785  1.0000
  H   H2945     1.0  0.16912  0.90746  0.80861  1.0000
  H   H2946     1.0  0.19529  0.90924  0.76791  1.0000
  H   H2947     1.0  0.20659  0.90435  0.78769  1.0000
  H   H2948     1.0  0.17004  0.86597  0.76775  1.0000
  H   H2949     1.0  0.17501  0.89127  0.76201  1.0000
  H   H2950     1.0  0.13784  0.89708  0.81922  1.0000
  H   H2951     1.0  0.14486  0.87258  0.83456  1.0000
  H   H2952     1.0  0.21868  0.86820  0.80336  1.0000
  H   H2953     1.0  0.20687  0.88772  0.81695  1.0000
  H   H2954     1.0  0.23087  0.86080  0.83284  1.0000
  H   H2955     1.0  0.20525  0.86030  0.84655  1.0000
  H   H2956     1.0  0.21835  0.84135  0.83256  1.0000
  H   H2957     1.0  0.18482  0.93740  0.79584  1.0000
  H   H2958     1.0  0.20138  0.94069  0.77263  1.0000
  H   H2959     1.0  0.17454  0.94222  0.77505  1.0000
  H   H2960     1.0  0.44545  0.90122  0.93765  1.0000
  H   H2961     1.0  0.37477  0.82788  0.97128  1.0000
  H   H2962     1.0  0.10818  0.88134  0.83423  1.0000
  H   H2963     1.0  0.11421  0.88241  0.80918  1.0000
  H   H2964     1.0  0.12106  0.85847  0.82547  1.0000
  H   H2965     1.0  0.34687  0.67819  0.85965  1.0000
  H   H2966     1.0  0.32323  0.90910  0.96222  1.0000
  H   H2967     1.0  0.29234  0.67559  0.83546  1.0000
  H   H2968     1.0  0.00976  0.99181  0.75575  1.0000
  C   C1673     1.0  0.18605  0.88103  0.98261  1.0000
  H   H2969     1.0  0.15257  0.89398  0.95036  1.0000
  H   H2970     1.0  0.29451  0.69243  0.86091  1.0000
  H   H2971     1.0  0.45787  0.91954  0.82839  1.0000
  C   C1674     1.0  0.31996  0.68018  0.84069  1.0000
  H   H2972     1.0  0.33980  0.72397  0.85959  1.0000
  C   C1675     1.0  0.47891  0.93534  0.78948  1.0000
  H   H2973     1.0  0.40247  0.97101  0.82094  1.0000
  H   H2974     1.0  0.45344  0.95708  0.86007  1.0000
  C   C1676     1.0  0.02015  0.88984  0.77940  1.0000
  H   H2975     1.0  0.11302  0.91229  0.97661  1.0000
  C   C1677     1.0  0.23597  0.81201  0.97934  1.0000
  H   H2976     1.0  0.01772  0.90245  0.74445  1.0000
  C   C1678     1.0  0.34687  0.71531  0.83254  1.0000
  H   H2977     1.0  0.35486  0.93150  0.94776  1.0000
  H   H2978     1.0  0.41621  0.96151  0.93875  1.0000
  C   C1679     1.0  0.27283  0.91432  0.96102  1.0000
  H   H2979     1.0  0.29660  0.69952  0.88844  1.0000
  H   H2980     1.0  0.00470  0.86766  0.80095  1.0000
  H   H2981     1.0  0.44839  0.89915  0.91381  1.0000
  H   H2982     1.0  0.02028  0.93215  0.76637  1.0000
  H   H2983     1.0  0.26333  0.87438  0.94075  1.0000
  C   C1680     1.0  0.33155  0.71982  0.85091  1.0000
  N   N94       1.0  0.03876  0.88973  0.76328  1.0000
  H   H2984     1.0  0.05115  0.86594  0.79751  1.0000
  H   H2985     1.0  0.43760  0.67744  0.80850  1.0000
  H   H2986     1.0  0.47513  0.95495  0.88425  1.0000
  H   H2987     1.0  0.08547  0.84467  0.79967  1.0000
  C   C1681     1.0  0.35976  0.73162  0.82358  1.0000
  H   H2988     1.0  0.45015  0.70168  0.88768  1.0000
  H   H2989     1.0  0.31308  0.66510  0.88237  1.0000
  C   C1682     1.0  0.30856  0.69749  0.85155  1.0000
  C   C1683     1.0  0.00575  0.95677  0.79452  1.0000
  H   H2990     1.0  0.33001  0.87506  0.96875  1.0000
  H   H2991     1.0  0.48551  0.91800  0.84696  1.0000
  H   H2992     1.0  0.30290  0.93057  0.96306  1.0000
  H   H2993     1.0  0.37041  0.72808  0.81035  1.0000
  H   H2994     1.0  0.35929  0.80844  0.96201  1.0000
  H   H2995     1.0  0.47488  0.94594  0.82243  1.0000
  C   C1684     1.0  0.34615  0.73383  0.96675  1.0000
  H   H2996     1.0  0.48031  0.95220  0.90718  1.0000
  C   C1685     1.0  0.07960  0.84697  0.78679  1.0000
  H   H2997     1.0  0.32034  0.83559  0.88119  1.0000
  H   H2998     1.0  0.40130  0.78645  0.82270  1.0000
  N   N95       1.0  0.29544  0.90450  0.95803  1.0000
  C   C1686     1.0  0.01458  0.91837  0.81807  1.0000
  C   C1687     1.0  0.44235  0.96009  0.85153  1.0000
  H   H2999     1.0  0.23056  0.91898  0.96795  1.0000
  H   H3000     1.0  0.40599  0.94329  0.97952  1.0000
  H   H3001     1.0  0.47467  0.66146  0.75892  1.0000
  H   H3002     1.0  0.33789  0.85999  0.85871  1.0000
  H   H3003     1.0  0.40642  0.79769  0.83931  1.0000
  C   C1688     1.0  0.33249  0.82745  0.84604  1.0000
  H   H3004     1.0  0.00789  0.98299  0.83216  1.0000
  H   H3005     1.0  0.20585  0.85290  0.75143  1.0000
  C   C1689     1.0  0.19072  0.85513  0.95828  1.0000
  H   H3006     1.0  0.37869  0.84784  0.83123  1.0000
  H   H3007     1.0  0.42671  0.95681  0.96904  1.0000
  H   H3008     1.0  0.44786  0.87875  0.83407  1.0000
  H   H3009     1.0  0.29024  0.87550  0.95738  1.0000
  C   C1690     1.0  0.30643  0.91360  0.96733  1.0000
  C   C1691     1.0  0.31235  0.84395  0.84649  1.0000
  N   N96       1.0  0.34605  0.82773  0.85845  1.0000
  C   C1692     1.0  0.35161  0.84825  0.85437  1.0000
  C   C1693     1.0  0.37462  0.80576  0.83672  1.0000
  H   H3010     1.0  0.37713  0.81942  0.82543  1.0000
  H   H3011     1.0  0.38943  0.85982  0.96968  1.0000
  C   C1694     1.0  0.25765  0.83360  0.95496  1.0000
  S   S374      1.0  0.24375  0.82616  0.90875  1.0000
  H   H3012     1.0  0.19380  0.90353  0.95723  1.0000
  C   C1695     1.0  0.36426  0.90106  0.94244  1.0000
  H   H3013     1.0  0.37911  0.96130  0.88726  1.0000
  H   H3014     1.0  0.41559  0.79422  0.96705  1.0000
  C   C1696     1.0  0.44800  0.96231  0.90613  1.0000
  H   H3015     1.0  0.20673  0.92219  0.90223  1.0000
  H   H3016     1.0  0.35645  0.96430  0.90580  1.0000
  H   H3017     1.0  0.48657  0.66401  0.87934  1.0000
  H   H3018     1.0  0.37209  0.88412  0.81611  1.0000
  C   C1697     1.0  0.37102  0.91063  0.96833  1.0000
  H   H3019     1.0  0.44713  0.93486  0.89862  1.0000
  C   C1698     1.0  0.00941  0.87140  0.78524  1.0000
  H   H3020     1.0  0.23288  0.85261  0.97239  1.0000
  H   H3021     1.0  0.37615  0.73408  0.94870  1.0000
  C   C1699     1.0  0.36331  0.87888  0.83062  1.0000
  H   H3022     1.0  0.32830  0.81226  0.84993  1.0000
  H   H3023     1.0  0.36441  0.79850  0.83288  1.0000
  H   H3024     1.0  0.01793  0.90355  0.82737  1.0000
  H   H3025     1.0  0.38287  0.93607  0.91719  1.0000
  H   H3026     1.0  0.43930  0.97254  0.89555  1.0000
  H   H3027     1.0  0.46000  0.96304  0.79892  1.0000
  C   C1700     1.0  0.25825  0.90439  0.97883  1.0000
  H   H3028     1.0  0.34509  0.69047  0.87763  1.0000
  H   H3029     1.0  0.18572  0.90400  0.89304  1.0000
  H   H3030     1.0  0.44429  0.96919  0.91861  1.0000
  H   H3031     1.0  0.29617  0.74423  0.86784  1.0000
  C   C1701     1.0  0.24770  0.87232  0.94862  1.0000
  C   C1702     1.0  0.30532  0.71126  0.87923  1.0000
  C   C1703     1.0  0.41350  0.96807  0.82955  1.0000
  H   H3032     1.0  0.22498  0.81797  0.96978  1.0000
  H   H3033     1.0  0.33762  0.83840  0.96908  1.0000
  H   H3034     1.0  0.12203  0.93563  0.94508  1.0000
  C   C1704     1.0  0.40222  0.79292  0.96247  1.0000
  N   N97       1.0  0.32032  0.70315  0.86281  1.0000
  C   C1705     1.0  0.04765  0.90786  0.76180  1.0000
  H   H3035     1.0  0.19048  0.94639  0.89398  1.0000
  H   H3036     1.0  0.44586  0.94348  0.80289  1.0000
  H   H3037     1.0  0.29779  0.90112  0.92974  1.0000
  H   H3038     1.0  0.41909  0.78914  0.92459  1.0000
  C   C1706     1.0  0.05536  0.87085  0.76660  1.0000
  N   N98       1.0  0.38305  0.79477  0.97801  1.0000
  C   C1707     1.0  0.41964  0.80358  0.92788  1.0000
  H   H3039     1.0  0.32811  0.87009  0.94709  1.0000
  H   H3040     1.0  0.40241  0.82412  0.94595  1.0000
  C   C1708     1.0  0.30450  0.90886  0.93699  1.0000
  S   S375      1.0  0.36947  0.92939  0.98031  1.0000
  C   C1709     1.0  0.04628  0.94595  0.75312  1.0000
  H   H3041     1.0  0.07139  0.87929  0.78395  1.0000
  H   H3042     1.0  0.43112  0.93149  0.98383  1.0000
  C   C1710     1.0  0.42260  0.94158  0.97304  1.0000
  H   H3043     1.0  0.03041  0.93128  0.74189  1.0000
  H   H3044     1.0  0.37727  0.95639  0.92951  1.0000
  H   H3045     1.0  0.05905  0.94580  0.74045  1.0000
  H   H3046     1.0  0.06280  0.90689  0.75176  1.0000
  C   C1711     1.0  0.03324  0.87236  0.73886  1.0000
  H   H3047     1.0  0.40742  0.96963  0.90916  1.0000
  H   H3048     1.0  0.29118  0.87728  0.98000  1.0000
  C   C1712     1.0  0.12120  0.88552  0.74908  1.0000
  H   H3049     1.0  0.02470  0.86204  0.75032  1.0000
  C   C1713     1.0  0.03304  0.89216  0.74471  1.0000
  C   C1714     1.0  0.19865  0.86944  0.74854  1.0000
  H   H3050     1.0  0.38714  0.88618  0.98693  1.0000
  H   H3051     1.0  0.23247  0.78096  0.98117  1.0000
  H   H3052     1.0  0.31822  0.77894  0.98485  1.0000
  C   C1715     1.0  0.44288  0.67304  0.88765  1.0000
  H   H3053     1.0  0.39364  0.81787  0.98481  1.0000
  H   H3054     1.0  0.47368  0.97728  0.89264  1.0000
  H   H3055     1.0  0.11362  0.86409  0.73764  1.0000
  H   H3056     1.0  0.49021  0.95269  0.84634  1.0000
  H   H3057     1.0  0.23573  0.93234  0.98310  1.0000
  H   H3058     1.0  0.10419  0.93711  0.73863  1.0000
  H   H3059     1.0  0.46349  0.66429  0.80038  1.0000
  C   C1716     1.0  0.10618  0.92120  0.73843  1.0000
  H   H3060     1.0  0.21056  0.87862  0.74509  1.0000
  S   S376      1.0  0.48681  0.99017  0.80522  1.0000
  H   H3061     1.0  0.32228  0.66515  0.85071  1.0000
  H   H3062     1.0  0.31588  0.66588  0.82017  1.0000
  C   C1717     1.0  0.99656  0.92424  0.81122  1.0000
  C   C1718     1.0  0.11160  0.88004  0.73774  1.0000
  H   H3063     1.0  0.45530  0.66378  0.89478  1.0000
  H   H3064     1.0  0.42954  0.66553  0.89383  1.0000
  C   C1719     1.0  0.14465  0.96612  0.73996  1.0000
  S   S377      1.0  0.50630  0.01718  0.17705  1.0000
  H   H3065     1.0  0.80909  0.19574  0.00590  1.0000
  S   S378      1.0  0.78211  0.12775  0.01387  1.0000
  Fe  Fe188     1.0  0.53013  0.02786  0.15248  1.0000
  S   S379      1.0  0.52644  0.04418  0.12313  1.0000
  Fe  Fe189     1.0  0.77970  0.14244  0.03771  1.0000
  C   C1720     1.0  0.75822  0.19446  0.98829  1.0000
  C   C1721     1.0  0.60109  0.05666  0.00147  1.0000
  S   S380      1.0  0.61976  0.14582  0.04343  1.0000
  C   C1722     1.0  0.68662  0.21878  0.02906  1.0000
  Fe  Fe190     1.0  0.65249  0.13392  0.03041  1.0000
  S   S381      1.0  0.67650  0.11293  0.04524  1.0000
  Fe  Fe191     1.0  0.61275  0.13399  0.02160  1.0000
  S   S382      1.0  0.59060  0.11375  0.02691  1.0000
  H   H3066     1.0  0.74155  0.29313  0.06410  1.0000
  S   S383      1.0  0.71578  0.29407  0.03723  1.0000
  C   C1723     1.0  0.67473  0.09315  0.10923  1.0000
  H   H3067     1.0  0.65991  0.10240  0.08595  1.0000
  H   H3068     1.0  0.58057  0.31308  0.08224  1.0000
  Fe  Fe192     1.0  0.79109  0.14189  0.07404  1.0000
  S   S384      1.0  0.76964  0.12669  0.06794  1.0000
  S   S385      1.0  0.80696  0.12586  0.09811  1.0000
  Fe  Fe193     1.0  0.74690  0.15600  0.07019  1.0000
  S   S386      1.0  0.71386  0.15846  0.08473  1.0000
  C   C1724     1.0  0.89438  0.99614  0.14928  1.0000
  S   S387      1.0  0.76731  0.17009  0.07868  1.0000
  Fe  Fe194     1.0  0.95336  0.09282  0.13068  1.0000
  S   S388      1.0  0.93258  0.12373  0.12902  1.0000
  H   H3069     1.0  0.72217  0.17214  0.01631  1.0000
  Fe  Fe195     1.0  0.91843  0.07069  0.14946  1.0000
  S   S389      1.0  0.89437  0.09965  0.15012  1.0000
  S   S390      1.0  0.91324  0.03894  0.16326  1.0000
  Fe  Fe196     1.0  0.91164  0.11010  0.12037  1.0000
  S   S391      1.0  0.89880  0.12650  0.09442  1.0000
  Fe  Fe197     1.0  0.91722  0.11084  0.15872  1.0000
  S   S392      1.0  0.91123  0.12945  0.18061  1.0000
  S   S393      1.0  0.93405  0.08017  0.11925  1.0000
  S   S394      1.0  0.93957  0.08086  0.16088  1.0000
  Fe  Fe198     1.0  0.55015  0.06027  0.12378  1.0000
  S   S395      1.0  0.57708  0.03756  0.11221  1.0000
  S   S396      1.0  0.54865  0.09398  0.11360  1.0000
  Fe  Fe199     1.0  0.57596  0.02201  0.14258  1.0000
  H   H3070     1.0  0.95638  0.22446  0.11582  1.0000
  S   S397      1.0  0.55109  0.04617  0.15414  1.0000
  Fe  Fe200     1.0  0.68271  0.29216  0.04763  1.0000
  C   C1725     1.0  0.81652  0.14098  0.99129  1.0000
  H   H3071     1.0  0.99334  0.10783  0.17513  1.0000
  S   S398      1.0  0.64927  0.23239  0.07554  1.0000
  H   H3072     1.0  0.67154  0.09417  0.12425  1.0000
  H   H3073     1.0  0.72239  0.22925  0.00186  1.0000
  C   C1726     1.0  0.57779  0.99389  0.18681  1.0000
  H   H3074     1.0  0.97752  0.13833  0.14542  1.0000
  H   H3075     1.0  0.86247  0.18278  0.01240  1.0000
  C   C1727     1.0  0.61163  0.99305  0.19010  1.0000
  H   H3076     1.0  0.95640  0.13224  0.17850  1.0000
  C   C1728     1.0  0.83190  0.12823  0.09685  1.0000
  C   C1729     1.0  0.83914  0.12251  0.11355  1.0000
  C   C1730     1.0  0.85957  0.12215  0.11297  1.0000
  C   C1731     1.0  0.87282  0.12784  0.09568  1.0000
  C   C1732     1.0  0.86536  0.13438  0.07902  1.0000
  C   C1733     1.0  0.84495  0.13448  0.07957  1.0000
  H   H3077     1.0  0.82897  0.11815  0.12700  1.0000
  H   H3078     1.0  0.86505  0.11747  0.12589  1.0000
  H   H3079     1.0  0.87555  0.13890  0.06561  1.0000
  H   H3080     1.0  0.83947  0.13892  0.06664  1.0000
  H   H3081     1.0  0.96289  0.05845  0.21088  1.0000
  C   C1734     1.0  0.97183  0.05799  0.07581  1.0000
  C   C1735     1.0  0.95574  0.14824  0.17899  1.0000
  H   H3082     1.0  0.65006  0.07945  0.07755  1.0000
  C   C1736     1.0  0.99012  0.03343  0.13065  1.0000
  H   H3083     1.0  0.77722  0.06628  0.00963  1.0000
  C   C1737     1.0  0.57786  0.10888  0.05074  1.0000
  C   C1738     1.0  0.57430  0.12323  0.06175  1.0000
  C   C1739     1.0  0.56471  0.11885  0.08097  1.0000
  C   C1740     1.0  0.55906  0.09996  0.08927  1.0000
  C   C1741     1.0  0.56239  0.08572  0.07820  1.0000
  C   C1742     1.0  0.57162  0.09026  0.05891  1.0000
  H   H3084     1.0  0.57858  0.13784  0.05539  1.0000
  H   H3085     1.0  0.56192  0.12998  0.08945  1.0000
  H   H3086     1.0  0.55776  0.07124  0.08447  1.0000
  H   H3087     1.0  0.57429  0.07916  0.05042  1.0000
  C   C1743     1.0  0.62004  0.21363  0.03768  1.0000
  H   H3088     1.0  0.65194  0.22744  0.00449  1.0000
  C   C1744     1.0  0.62562  0.24010  0.04978  1.0000
  S   S399      1.0  0.63000  0.31723  0.00792  1.0000
  H   H3089     1.0  0.74288  0.29468  0.08728  1.0000
  H   H3090     1.0  0.98768  0.01621  0.16024  1.0000
  H   H3091     1.0  0.89938  0.00141  0.17432  1.0000
  C   C1745     1.0  0.73397  0.27121  0.03554  1.0000
  S   S400      1.0  0.55589  0.00373  0.09146  1.0000
  H   H3092     1.0  0.71953  0.30575  0.07887  1.0000
  C   C1746     1.0  0.68618  0.12503  0.05728  1.0000
  C   C1747     1.0  0.67482  0.14310  0.06281  1.0000
  C   C1748     1.0  0.68289  0.15258  0.07245  1.0000
  C   C1749     1.0  0.70274  0.14473  0.07546  1.0000
  C   C1750     1.0  0.71395  0.12649  0.07013  1.0000
  C   C1751     1.0  0.70550  0.11641  0.06140  1.0000
  H   H3093     1.0  0.65985  0.14971  0.05972  1.0000
  H   H3094     1.0  0.67418  0.16646  0.07693  1.0000
  H   H3095     1.0  0.72911  0.12011  0.07279  1.0000
  C   C1752     1.0  0.61689  0.23427  0.03796  1.0000
  C   C1753     1.0  0.96918  0.22322  0.12248  1.0000
  C   C1754     1.0  0.91948  0.12256  0.21568  1.0000
  C   C1755     1.0  0.91444  0.11435  0.20292  1.0000
  C   C1756     1.0  0.91206  0.09408  0.20806  1.0000
  C   C1757     1.0  0.50747  0.03239  0.07013  1.0000
  C   C1758     1.0  0.99081  0.09784  0.15143  1.0000
  H   H3096     1.0  0.92095  0.13834  0.21189  1.0000
  H   H3097     1.0  0.90758  0.08784  0.19855  1.0000
  H   H3098     1.0  0.98721  0.04902  0.19646  1.0000
  H   H3099     1.0  0.91480  0.01253  0.19910  1.0000
  C   C1759     1.0  0.83210  0.00469  0.12055  1.0000
  S   S401      1.0  0.61089  0.20683  0.02137  1.0000
  H   H3100     1.0  0.68787  0.20325  0.05800  1.0000
  C   C1760     1.0  0.89981  0.00728  0.15938  1.0000
  H   H3101     1.0  0.97465  0.09805  0.15660  1.0000
  H   H3102     1.0  0.97290  0.17191  0.16639  1.0000
  H   H3103     1.0  0.52324  0.03532  0.06518  1.0000
  H   H3104     1.0  0.77374  0.26496  0.98966  1.0000
  C   C1761     1.0  0.90120  0.02202  0.12075  1.0000
  C   C1762     1.0  0.90642  0.03333  0.13090  1.0000
  C   C1763     1.0  0.90593  0.02582  0.15021  1.0000
  S   S402      1.0  0.65854  0.32107  0.04464  1.0000
  C   C1764     1.0  0.66072  0.23990  0.99929  1.0000
  H   H3105     1.0  0.90201  0.02755  0.10573  1.0000
  H   H3106     1.0  0.91108  0.04764  0.12374  1.0000
  C   C1765     1.0  0.89593  0.03543  0.21384  1.0000
  H   H3107     1.0  0.82140  0.02559  0.13908  1.0000
  C   C1766     1.0  0.95855  0.99625  0.12979  1.0000
  S   S403      1.0  0.60384  0.00996  0.15486  1.0000
  Fe  Fe201     1.0  0.64217  0.30676  0.07342  1.0000
  H   H3108     1.0  0.96193  0.19774  0.14461  1.0000
  C   C1767     1.0  0.71656  0.15787  0.01943  1.0000
  C   C1768     1.0  0.71633  0.09806  0.99532  1.0000
  H   H3109     1.0  0.83921  0.05672  0.17675  1.0000
  C   C1769     1.0  0.77515  0.20201  0.99200  1.0000
  H   H3110     1.0  0.63354  0.18273  0.04975  1.0000
  C   C1770     1.0  0.63671  0.22522  0.06200  1.0000
  H   H3111     1.0  0.96670  0.08038  0.22736  1.0000
  C   C1771     1.0  0.69214  0.19951  0.04386  1.0000
  H   H3112     1.0  0.73969  0.21930  0.04414  1.0000
  H   H3113     1.0  0.54475  0.01591  0.21799  1.0000
  H   H3114     1.0  0.99526  0.14967  0.07723  1.0000
  H   H3115     1.0  0.68838  0.25606  0.00346  1.0000
  H   H3116     1.0  0.60796  0.24581  0.02883  1.0000
  C   C1772     1.0  0.79726  0.13771  0.99222  1.0000
  H   H3117     1.0  0.65705  0.24751  0.01137  1.0000
  C   C1773     1.0  0.97380  0.03172  0.10659  1.0000
  S   S404      1.0  0.65680  0.16309  0.00936  1.0000
  H   H3118     1.0  0.97589  0.04484  0.13473  1.0000
  C   C1774     1.0  0.97402  0.15616  0.16516  1.0000
  C   C1775     1.0  0.72850  0.25211  0.04034  1.0000
  H   H3119     1.0  0.75885  0.11369  0.99684  1.0000
  C   C1776     1.0  0.50533  0.05572  0.22800  1.0000
  H   H3120     1.0  0.68245  0.08152  0.01817  1.0000
  S   S405      1.0  0.55495  0.00241  0.14328  1.0000
  N   N99       1.0  0.98576  0.01892  0.12129  1.0000
  H   H3121     1.0  0.96255  0.01362  0.14707  1.0000
  H   H3122     1.0  0.69705  0.05855  0.03011  1.0000
  C   C1777     1.0  0.94108  0.03252  0.20591  1.0000
  N   N100      1.0  0.51705  0.03384  0.23195  1.0000
  H   H3123     1.0  0.82211  0.13756  0.00409  1.0000
  H   H3124     1.0  0.62375  0.25611  0.04941  1.0000
  H   H3125     1.0  0.95895  0.04024  0.11365  1.0000
  C   C1778     1.0  0.91223  0.01513  0.21351  1.0000
  S   S406      1.0  0.62536  0.29121  0.06196  1.0000
  H   H3126     1.0  0.90505  0.00243  0.22316  1.0000
  H   H3127     1.0  0.67064  0.22618  0.03431  1.0000
  H   H3128     1.0  0.68356  0.18793  0.04446  1.0000
  H   H3129     1.0  0.71178  0.08835  0.02646  1.0000
  C   C1779     1.0  0.76455  0.23532  0.03505  1.0000
  S   S407      1.0  0.75511  0.17071  0.03951  1.0000
  H   H3130     1.0  0.99323  0.19208  0.10742  1.0000
  N   N101      1.0  0.99100  0.16422  0.12891  1.0000
  H   H3131     1.0  0.57212  0.22194  0.99250  1.0000
  H   H3132     1.0  0.50936  0.02569  0.09902  1.0000
  H   H3133     1.0  0.60552  0.04010  0.00138  1.0000
  Fe  Fe202     1.0  0.64643  0.15031  0.99035  1.0000
  H   H3134     1.0  0.70048  0.20786  0.08175  1.0000
  H   H3135     1.0  0.84756  0.01265  0.13765  1.0000
  S   S408      1.0  0.61316  0.16308  0.99954  1.0000
  Fe  Fe203     1.0  0.77777  0.18214  0.04770  1.0000
  H   H3136     1.0  0.87943  0.02873  0.19624  1.0000
  H   H3137     1.0  0.74730  0.09483  0.01377  1.0000
  H   H3138     1.0  0.70881  0.19298  0.04068  1.0000
  Fe  Fe204     1.0  0.62321  0.17387  0.02020  1.0000
  H   H3139     1.0  0.53004  0.03332  0.20245  1.0000
  C   C1780     1.0  0.94627  0.99428  0.21518  1.0000
  C   C1781     1.0  0.83575  0.02051  0.12919  1.0000
  H   H3140     1.0  0.70486  0.20499  0.00548  1.0000
  C   C1782     1.0  0.63110  0.19870  0.04990  1.0000
  H   H3141     1.0  0.95641  0.06593  0.08229  1.0000
  H   H3142     1.0  0.64749  0.19305  0.07188  1.0000
  C   C1783     1.0  0.69746  0.07057  0.01687  1.0000
  H   H3143     1.0  0.83623  0.18277  0.02453  1.0000
  C   C1784     1.0  0.72611  0.14711  0.00301  1.0000
  C   C1785     1.0  0.67508  0.31842  0.11457  1.0000
  H   H3144     1.0  0.67912  0.20222  0.01260  1.0000
  C   C1786     1.0  0.63903  0.20451  0.06236  1.0000
  N   N102      1.0  0.73960  0.23346  0.09741  1.0000
  C   C1787     1.0  0.75758  0.21728  0.09087  1.0000
  C   C1788     1.0  0.72058  0.23035  0.09354  1.0000
  C   C1789     1.0  0.74361  0.25395  0.08546  1.0000
  C   C1790     1.0  0.73655  0.23367  0.11802  1.0000
  C   C1791     1.0  0.74270  0.21286  0.13161  1.0000
  C   C1792     1.0  0.77898  0.22070  0.09014  1.0000
  C   C1793     1.0  0.72559  0.27261  0.08756  1.0000
  C   C1794     1.0  0.71369  0.20999  0.10394  1.0000
  C   C1795     1.0  0.69575  0.20816  0.09699  1.0000
  C   C1796     1.0  0.73524  0.21465  0.15226  1.0000
  C   C1797     1.0  0.79558  0.20136  0.08838  1.0000
  H   H3145     1.0  0.75772  0.21618  0.07636  1.0000
  H   H3146     1.0  0.75618  0.20190  0.09974  1.0000
  H   H3147     1.0  0.70713  0.24249  0.09751  1.0000
  H   H3148     1.0  0.72257  0.23176  0.07811  1.0000
  H   H3149     1.0  0.74823  0.25344  0.07021  1.0000
  H   H3150     1.0  0.75678  0.25754  0.08867  1.0000
  H   H3151     1.0  0.74545  0.24397  0.11964  1.0000
  H   H3152     1.0  0.72027  0.24038  0.12374  1.0000
  H   H3153     1.0  0.75960  0.20772  0.12889  1.0000
  H   H3154     1.0  0.73646  0.20058  0.12993  1.0000
  H   H3155     1.0  0.78330  0.23281  0.07756  1.0000
  H   H3156     1.0  0.77905  0.22559  0.10292  1.0000
  H   H3157     1.0  0.71799  0.27240  0.10261  1.0000
  H   H3158     1.0  0.71409  0.27251  0.07990  1.0000
  H   H3159     1.0  0.72610  0.19650  0.10158  1.0000
  H   H3160     1.0  0.70826  0.20952  0.11931  1.0000
  H   H3161     1.0  0.69986  0.06328  0.00483  1.0000
  H   H3162     1.0  0.69066  0.19371  0.10487  1.0000
  H   H3163     1.0  0.68258  0.22115  0.09917  1.0000
  H   H3164     1.0  0.74167  0.22638  0.15484  1.0000
  H   H3165     1.0  0.71826  0.21880  0.15603  1.0000
  H   H3166     1.0  0.74033  0.19973  0.16158  1.0000
  H   H3167     1.0  0.81059  0.20429  0.08812  1.0000
  H   H3168     1.0  0.79216  0.18853  0.10054  1.0000
  H   H3169     1.0  0.79686  0.19681  0.07502  1.0000
  N   N103      1.0  0.84318  0.05746  0.11987  1.0000
  C   C1798     1.0  0.84789  0.05164  0.13929  1.0000
  C   C1799     1.0  0.84327  0.03851  0.11362  1.0000
  C   C1800     1.0  0.86000  0.06748  0.10628  1.0000
  C   C1801     1.0  0.82318  0.07264  0.11913  1.0000
  C   C1802     1.0  0.80373  0.06586  0.13244  1.0000
  C   C1803     1.0  0.85064  0.06914  0.14684  1.0000
  C   C1804     1.0  0.85935  0.07301  0.08501  1.0000
  H   H3170     1.0  0.84933  0.16561  0.00869  1.0000
  C   C1805     1.0  0.96464  0.03038  0.20254  1.0000
  C   C1806     1.0  0.78510  0.08354  0.13164  1.0000
  C   C1807     1.0  0.85321  0.06162  0.16725  1.0000
  C   C1808     1.0  0.87907  0.07945  0.07269  1.0000
  H   H3171     1.0  0.86222  0.03969  0.13941  1.0000
  H   H3172     1.0  0.83597  0.04440  0.15008  1.0000
  H   H3173     1.0  0.83416  0.04263  0.10256  1.0000
  H   H3174     1.0  0.85912  0.03167  0.10674  1.0000
  H   H3175     1.0  0.87519  0.05760  0.10783  1.0000
  H   H3176     1.0  0.85981  0.08212  0.10962  1.0000
  H   H3177     1.0  0.82400  0.08722  0.12185  1.0000
  H   H3178     1.0  0.82026  0.07681  0.10463  1.0000
  H   H3179     1.0  0.80523  0.06069  0.14735  1.0000
  H   H3180     1.0  0.80046  0.05344  0.12787  1.0000
  H   H3181     1.0  0.86463  0.07484  0.13840  1.0000
  H   H3182     1.0  0.83723  0.08206  0.14653  1.0000
  H   H3183     1.0  0.84646  0.08608  0.08225  1.0000
  H   H3184     1.0  0.85758  0.05998  0.08026  1.0000
  C   C1809     1.0  0.84752  0.18115  0.01104  1.0000
  H   H3185     1.0  0.91243  0.06665  0.23005  1.0000
  N   N104      1.0  0.93226  0.01440  0.21819  1.0000
  H   H3186     1.0  0.90165  0.04821  0.20287  1.0000
  H   H3187     1.0  0.86523  0.04837  0.20905  1.0000
  H   H3188     1.0  0.78258  0.08916  0.11698  1.0000
  H   H3189     1.0  0.77122  0.07831  0.14102  1.0000
  H   H3190     1.0  0.78728  0.09642  0.13640  1.0000
  H   H3191     1.0  0.86649  0.04858  0.16826  1.0000
  H   H3192     1.0  0.85605  0.07413  0.17206  1.0000
  C   C1810     1.0  0.98866  0.13849  0.08952  1.0000
  H   H3193     1.0  0.87783  0.08449  0.05767  1.0000
  H   H3194     1.0  0.88182  0.09234  0.07700  1.0000
  H   H3195     1.0  0.89235  0.06641  0.07393  1.0000
  C   C1811     1.0  0.50290  0.02030  0.23278  1.0000
  C   C1812     1.0  0.98226  0.18605  0.12030  1.0000
  H   H3196     1.0  0.70044  0.10636  0.99416  1.0000
  H   H3197     1.0  0.60428  0.09521  0.99377  1.0000
  H   H3198     1.0  0.58163  0.31707  0.05736  1.0000
  H   H3199     1.0  0.96755  0.10278  0.20837  1.0000
  H   H3200     1.0  0.78577  0.25548  0.02584  1.0000
  H   H3201     1.0  0.51446  0.06644  0.22840  1.0000
  H   H3202     1.0  0.49794  0.04290  0.06032  1.0000
  C   C1813     1.0  0.97039  0.05108  0.19869  1.0000
  H   H3203     1.0  0.96399  0.23384  0.13229  1.0000
  H   H3204     1.0  0.50286  0.06083  0.17317  1.0000
  H   H3205     1.0  0.74429  0.25367  0.98770  1.0000
  C   C1814     1.0  0.75463  0.27229  0.02995  1.0000
  H   H3206     1.0  0.67401  0.30363  0.99819  1.0000
  H   H3207     1.0  0.72129  0.14809  0.03248  1.0000
  H   H3208     1.0  0.86912  0.02185  0.22136  1.0000
  H   H3209     1.0  0.81929  0.01141  0.11313  1.0000
  H   H3210     1.0  0.93762  0.03649  0.19160  1.0000
  C   C1815     1.0  0.71824  0.24120  0.98959  1.0000
  H   H3211     1.0  0.97248  0.02331  0.19024  1.0000
  C   C1816     1.0  0.71804  0.12732  0.00655  1.0000
  S   S409      1.0  0.64525  0.12008  0.01031  1.0000
  C   C1817     1.0  0.97424  0.09358  0.22064  1.0000
  H   H3212     1.0  0.97224  0.13664  0.11822  1.0000
  H   H3213     1.0  0.72230  0.15800  0.99000  1.0000
  C   C1818     1.0  0.73291  0.29274  0.07895  1.0000
  H   H3214     1.0  0.98234  0.22799  0.11135  1.0000
  H   H3215     1.0  0.98642  0.05966  0.09667  1.0000
  H   H3216     1.0  0.71848  0.11911  0.02138  1.0000
  C   C1819     1.0  0.91504  0.08203  0.22573  1.0000
  H   H3217     1.0  0.75891  0.28699  0.02621  1.0000
  H   H3218     1.0  0.70144  0.13206  0.00643  1.0000
  H   H3219     1.0  0.71420  0.10226  0.05737  1.0000
  H   H3220     1.0  0.97123  0.02059  0.21455  1.0000
  H   H3221     1.0  0.74505  0.19482  0.00059  1.0000
  H   H3222     1.0  0.55076  0.05021  0.22452  1.0000
  N   N105      1.0  0.61809  0.10123  0.10425  1.0000
  C   C1820     1.0  0.61555  0.12307  0.09305  1.0000
  C   C1821     1.0  0.61791  0.08752  0.09187  1.0000
  C   C1822     1.0  0.59961  0.09987  0.12046  1.0000
  C   C1823     1.0  0.63715  0.09418  0.11225  1.0000
  C   C1824     1.0  0.65593  0.10368  0.10084  1.0000
  C   C1825     1.0  0.61099  0.13966  0.10468  1.0000
  C   C1826     1.0  0.59812  0.07806  0.13257  1.0000
  C   C1827     1.0  0.63510  0.08704  0.07376  1.0000
  C   C1828     1.0  0.63156  0.07480  0.06137  1.0000
  H   H3223     1.0  0.69014  0.31360  0.10533  1.0000
  C   C1829     1.0  0.61485  0.16020  0.09199  1.0000
  C   C1830     1.0  0.58321  0.07886  0.15163  1.0000
  H   H3224     1.0  0.60276  0.12669  0.08565  1.0000
  H   H3225     1.0  0.62923  0.12535  0.08156  1.0000
  H   H3226     1.0  0.61918  0.07135  0.09983  1.0000
  H   H3227     1.0  0.60295  0.09188  0.08757  1.0000
  H   H3228     1.0  0.58522  0.10646  0.11518  1.0000
  H   H3229     1.0  0.59927  0.10930  0.13034  1.0000
  H   H3230     1.0  0.63383  0.09737  0.12662  1.0000
  H   H3231     1.0  0.64227  0.07725  0.11437  1.0000
  H   H3232     1.0  0.65283  0.12014  0.10100  1.0000
  H   H3233     1.0  0.59464  0.14208  0.11221  1.0000
  H   H3234     1.0  0.62050  0.13504  0.11540  1.0000
  H   H3235     1.0  0.61315  0.06903  0.13539  1.0000
  H   H3236     1.0  0.59246  0.06972  0.12509  1.0000
  H   H3237     1.0  0.63589  0.10255  0.06499  1.0000
  H   H3238     1.0  0.63082  0.05888  0.06928  1.0000
  H   H3239     1.0  0.61710  0.08216  0.05649  1.0000
  H   H3240     1.0  0.67943  0.07684  0.10824  1.0000
  H   H3241     1.0  0.63132  0.15897  0.08510  1.0000
  H   H3242     1.0  0.60567  0.16533  0.08096  1.0000
  H   H3243     1.0  0.61044  0.17197  0.10059  1.0000
  H   H3244     1.0  0.56755  0.08669  0.14955  1.0000
  H   H3245     1.0  0.58288  0.06303  0.15993  1.0000
  H   H3246     1.0  0.58817  0.08696  0.15982  1.0000
  C   C1831     1.0  0.98451  0.04750  0.09078  1.0000
  C   C1832     1.0  0.53524  0.03160  0.21566  1.0000
  C   C1833     1.0  0.54922  0.04715  0.21137  1.0000
  C   C1834     1.0  0.57068  0.03959  0.20035  1.0000
  H   H3247     1.0  0.56996  0.03636  0.18699  1.0000
  H   H3248     1.0  0.96559  0.06135  0.18590  1.0000
  C   C1835     1.0  0.84053  0.19759  0.99457  1.0000
  H   H3249     1.0  0.96848  0.18687  0.11520  1.0000
  C   C1836     1.0  0.97549  0.20135  0.13345  1.0000
  H   H3250     1.0  0.54248  0.06189  0.20273  1.0000
  H   H3251     1.0  0.93320  0.04627  0.21174  1.0000
  H   H3252     1.0  0.68765  0.10081  0.10124  1.0000
  Fe  Fe205     1.0  0.64395  0.30316  0.03345  1.0000
  C   C1837     1.0  0.69470  0.24800  0.99160  1.0000
  H   H3253     1.0  0.57991  0.05144  0.19686  1.0000
  H   H3254     1.0  0.57847  0.02547  0.20893  1.0000
  C   C1838     1.0  0.74385  0.23408  0.04007  1.0000
  H   H3255     1.0  0.72920  0.06994  0.01396  1.0000
  H   H3256     1.0  0.71252  0.25119  0.04468  1.0000
  S   S410      1.0  0.66792  0.27948  0.07754  1.0000
  S   S411      1.0  0.78453  0.21360  0.03560  1.0000
  C   C1839     1.0  0.92318  0.11019  0.23312  1.0000
  C   C1840     1.0  0.71472  0.08159  0.01406  1.0000
  H   H3257     1.0  0.64435  0.07435  0.04872  1.0000
  H   H3258     1.0  0.99107  0.05188  0.15844  1.0000
  Fe  Fe206     1.0  0.65211  0.26503  0.06410  1.0000
  C   C1841     1.0  0.87624  0.03342  0.20987  1.0000
  H   H3259     1.0  0.76841  0.21717  0.99568  1.0000
  S   S412      1.0  0.80346  0.15499  0.04340  1.0000
  Fe  Fe207     1.0  0.55343  0.02008  0.11407  1.0000
  H   H3260     1.0  0.95587  0.14848  0.19362  1.0000
  H   H3261     1.0  0.96945  0.02208  0.09947  1.0000
  H   H3262     1.0  0.69649  0.22932  0.02812  1.0000
  N   N106      1.0  0.72929  0.11314  0.99327  1.0000
  S   S413      1.0  0.62326  0.32075  0.09821  1.0000
  H   H3263     1.0  0.78022  0.19101  0.00439  1.0000
  S   S414      1.0  0.98753  0.08765  0.11981  1.0000
  H   H3264     1.0  0.95942  0.16140  0.14158  1.0000
  H   H3265     1.0  0.94563  0.00861  0.12576  1.0000
  C   C1842     1.0  0.97496  0.15494  0.14465  1.0000
  H   H3266     1.0  0.62703  0.27218  0.00247  1.0000
  C   C1843     1.0  0.68896  0.21348  0.00980  1.0000
  H   H3267     1.0  0.94115  0.15798  0.17556  1.0000
  C   C1844     1.0  0.57711  0.32473  0.06946  1.0000
  H   H3268     1.0  0.67297  0.30615  0.12755  1.0000
  H   H3269     1.0  0.72057  0.26609  0.00078  1.0000
  H   H3270     1.0  0.50256  0.06015  0.21340  1.0000
  H   H3271     1.0  0.56722  0.16322  0.98931  1.0000
  S   S415      1.0  0.66922  0.27528  0.03452  1.0000
  C   C1845     1.0  0.76982  0.25445  0.02975  1.0000
  C   C1846     1.0  0.89516  0.00343  0.12993  1.0000
  H   H3272     1.0  0.95104  0.00487  0.18392  1.0000
  H   H3273     1.0  0.79472  0.23004  0.99590  1.0000
  H   H3274     1.0  0.84610  0.99910  0.11038  1.0000
  C   C1847     1.0  0.74954  0.10243  0.99848  1.0000
  H   H3275     1.0  0.97015  0.04665  0.06876  1.0000
  H   H3276     1.0  0.50830  0.01630  0.06979  1.0000
  H   H3277     1.0  0.60865  0.05947  0.01144  1.0000
  H   H3278     1.0  0.58423  0.06073  0.00660  1.0000
  N   N107      1.0  0.68344  0.23133  0.99414  1.0000
  H   H3279     1.0  0.97958  0.06955  0.06493  1.0000
  H   H3280     1.0  0.98801  0.14642  0.16988  1.0000
  H   H3281     1.0  0.74289  0.14388  0.00137  1.0000
  H   H3282     1.0  0.66297  0.32032  0.10685  1.0000
  H   H3283     1.0  0.89159  0.03980  0.22767  1.0000
  C   C1848     1.0  0.62892  0.26490  0.99052  1.0000
  H   H3284     1.0  0.61977  0.25283  0.99514  1.0000
  H   H3285     1.0  0.56637  0.99876  0.17842  1.0000
  H   H3286     1.0  0.97097  0.10327  0.23107  1.0000
  H   H3287     1.0  0.83905  0.21262  0.99777  1.0000
  H   H3288     1.0  0.98791  0.20117  0.14008  1.0000
  C   C1849     1.0  0.49868  0.03583  0.09022  1.0000
  C   C1850     1.0  0.81991  0.19523  0.99205  1.0000
  C   C1851     1.0  0.97301  0.00510  0.13630  1.0000
  H   H3289     1.0  0.49869  0.05190  0.08981  1.0000
  C   C1852     1.0  0.59726  0.99828  0.17886  1.0000
  H   H3290     1.0  0.69959  0.16154  0.02189  1.0000
  C   C1853     1.0  0.98014  0.14780  0.10699  1.0000
  H   H3291     1.0  0.97616  0.13415  0.08597  1.0000
  H   H3292     1.0  0.52283  0.99832  0.21579  1.0000
  H   H3293     1.0  0.96858  0.16182  0.10340  1.0000
  C   C1854     1.0  0.78201  0.07511  0.99503  1.0000
  H   H3294     1.0  0.79104  0.08597  0.99535  1.0000
  C   C1855     1.0  0.72766  0.25913  0.98824  1.0000
  H   H3295     1.0  0.82218  0.17946  0.99017  1.0000
  H   H3296     1.0  0.62662  0.99664  0.18408  1.0000
  C   C1856     1.0  0.51271  0.99822  0.23006  1.0000
  H   H3297     1.0  0.57586  0.12661  0.99080  1.0000
  H   H3298     1.0  0.81011  0.22237  0.47797  1.0000
  C   C1857     1.0  0.52316  0.02956  0.25068  1.0000
  H   H3299     1.0  0.77825  0.22571  0.45901  1.0000
  H   H3300     1.0  0.87270  0.30486  0.33828  1.0000
  H   H3301     1.0  0.99255  0.99560  0.37859  1.0000
  H   H3302     1.0  0.94988  0.03087  0.24040  1.0000
  Fe  Fe208     1.0  0.84424  0.23643  0.39707  1.0000
  S   S416      1.0  0.87291  0.22466  0.37708  1.0000
  S   S417      1.0  0.81787  0.25758  0.38494  1.0000
  Fe  Fe209     1.0  0.86198  0.21535  0.43161  1.0000
  S   S418      1.0  0.89226  0.20212  0.41471  1.0000
  H   H3303     1.0  0.85445  0.27931  0.37658  1.0000
  Fe  Fe210     1.0  0.88888  0.23291  0.39512  1.0000
  S   S419      1.0  0.91431  0.24993  0.38196  1.0000
  Fe  Fe211     1.0  0.87386  0.19476  0.39816  1.0000
  S   S420      1.0  0.88310  0.16292  0.39222  1.0000
  S   S421      1.0  0.86020  0.24701  0.41349  1.0000
  S   S422      1.0  0.84353  0.20564  0.41673  1.0000
  Fe  Fe212     1.0  0.93756  0.06902  0.32074  1.0000
  S   S423      1.0  0.91355  0.08956  0.30583  1.0000
  S   S424      1.0  0.92771  0.04484  0.34590  1.0000
  Fe  Fe213     1.0  0.97115  0.08990  0.29430  1.0000
  S   S425      1.0  0.94970  0.11162  0.27674  1.0000
  H   H3304     1.0  0.78509  0.28947  0.47238  1.0000
  Fe  Fe214     1.0  0.92860  0.11480  0.30487  1.0000
  S   S426      1.0  0.91264  0.14671  0.30921  1.0000
  Fe  Fe215     1.0  0.93686  0.08437  0.27951  1.0000
  S   S427      1.0  0.92772  0.07292  0.25856  1.0000
  S   S428      1.0  0.95083  0.09460  0.32222  1.0000
  S   S429      1.0  0.96029  0.06216  0.29459  1.0000
  C   C1858     1.0  0.84811  0.32439  0.48146  1.0000
  H   H3305     1.0  0.93289  0.18934  0.44695  1.0000
  H   H3306     1.0  0.95396  0.15135  0.28684  1.0000
  C   C1859     1.0  0.93825  0.01510  0.26826  1.0000
  C   C1860     1.0  0.89219  0.15897  0.36897  1.0000
  C   C1861     1.0  0.89103  0.17518  0.35321  1.0000
  C   C1862     1.0  0.89750  0.17129  0.33489  1.0000
  C   C1863     1.0  0.90545  0.15123  0.33225  1.0000
  C   C1864     1.0  0.90706  0.13510  0.34797  1.0000
  C   C1865     1.0  0.90032  0.13894  0.36627  1.0000
  H   H3307     1.0  0.88471  0.19065  0.35514  1.0000
  H   H3308     1.0  0.89622  0.18385  0.32275  1.0000
  H   H3309     1.0  0.91341  0.11967  0.34603  1.0000
  H   H3310     1.0  0.90132  0.12634  0.37841  1.0000
  C   C1866     1.0  0.77705  0.30678  0.41640  1.0000
  C   C1867     1.0  0.79207  0.29184  0.42452  1.0000
  C   C1868     1.0  0.80453  0.27654  0.41508  1.0000
  C   C1869     1.0  0.80215  0.27625  0.39735  1.0000
  C   C1870     1.0  0.78724  0.29131  0.38916  1.0000
  C   C1871     1.0  0.77476  0.30663  0.39861  1.0000
  H   H3311     1.0  0.79414  0.29215  0.43810  1.0000
  H   H3312     1.0  0.81598  0.26499  0.42148  1.0000
  H   H3313     1.0  0.78536  0.29116  0.37543  1.0000
  C   C1872     1.0  0.79940  0.25890  0.48718  1.0000
  C   C1873     1.0  0.90516  0.26118  0.41584  1.0000
  H   H3314     1.0  0.96037  0.00037  0.31071  1.0000
  H   H3315     1.0  0.66478  0.99742  0.34550  1.0000
  H   H3316     1.0  0.83385  0.29861  0.39940  1.0000
  C   C1874     1.0  0.91994  0.28464  0.38838  1.0000
  C   C1875     1.0  0.91344  0.26613  0.39642  1.0000
  C   C1876     1.0  0.76820  0.24037  0.46203  1.0000
  H   H3317     1.0  0.56036  0.99820  0.27523  1.0000
  H   H3318     1.0  0.92645  0.28842  0.37337  1.0000
  S   S430      1.0  0.90386  0.31156  0.43304  1.0000
  H   H3319     1.0  0.77289  0.26938  0.46334  1.0000
  H   H3320     1.0  0.94322  0.05073  0.37946  1.0000
  C   C1877     1.0  0.85709  0.25780  0.47921  1.0000
  H   H3321     1.0  0.96826  0.17303  0.35416  1.0000
  H   H3322     1.0  0.99003  0.04583  0.36995  1.0000
  H   H3323     1.0  0.89639  0.27113  0.44213  1.0000
  C   C1878     1.0  0.97996  0.14720  0.29934  1.0000
  H   H3324     1.0  0.87165  0.29191  0.40286  1.0000
  H   H3325     1.0  0.86117  0.29825  0.43526  1.0000
  H   H3326     1.0  0.92141  0.26865  0.47397  1.0000
  H   H3327     1.0  0.84306  0.28691  0.43073  1.0000
  C   C1879     1.0  0.91166  0.01067  0.35684  1.0000
  C   C1880     1.0  0.91941  0.02405  0.32305  1.0000
  C   C1881     1.0  0.91913  0.02529  0.34141  1.0000
  H   H3328     1.0  0.86651  0.31879  0.40301  1.0000
  H   H3329     1.0  0.91171  0.00760  0.30627  1.0000
  H   H3330     1.0  0.89042  0.14055  0.26320  1.0000
  H   H3331     1.0  0.92505  0.03536  0.31102  1.0000
  C   C1882     1.0  0.97645  0.02977  0.35631  1.0000
  H   H3332     1.0  0.54045  0.99746  0.25375  1.0000
  N   N108      1.0  0.85166  0.12515  0.32634  1.0000
  C   C1883     1.0  0.83182  0.11799  0.33556  1.0000
  C   C1884     1.0  0.84955  0.14682  0.32816  1.0000
  C   C1885     1.0  0.85600  0.12517  0.30550  1.0000
  C   C1886     1.0  0.86941  0.11094  0.33420  1.0000
  C   C1887     1.0  0.86732  0.10640  0.35585  1.0000
  C   C1888     1.0  0.83175  0.09602  0.33452  1.0000
  C   C1889     1.0  0.87363  0.13561  0.29243  1.0000
  C   C1890     1.0  0.83605  0.15293  0.34676  1.0000
  C   C1891     1.0  0.83781  0.17401  0.34777  1.0000
  C   C1892     1.0  0.88387  0.08814  0.36210  1.0000
  C   C1893     1.0  0.81129  0.09014  0.34522  1.0000
  C   C1894     1.0  0.87791  0.13275  0.27220  1.0000
  H   H3333     1.0  0.81923  0.12871  0.32911  1.0000
  H   H3334     1.0  0.82706  0.11851  0.35074  1.0000
  H   H3335     1.0  0.86495  0.15019  0.32599  1.0000
  H   H3336     1.0  0.84251  0.15801  0.31676  1.0000
  H   H3337     1.0  0.84206  0.13288  0.29972  1.0000
  H   H3338     1.0  0.86001  0.10923  0.30335  1.0000
  H   H3339     1.0  0.87301  0.09606  0.32992  1.0000
  H   H3340     1.0  0.88350  0.11723  0.32794  1.0000
  H   H3341     1.0  0.85240  0.10264  0.36394  1.0000
  H   H3342     1.0  0.86935  0.11980  0.35987  1.0000
  H   H3343     1.0  0.83410  0.09481  0.31968  1.0000
  H   H3344     1.0  0.84389  0.08460  0.34094  1.0000
  H   H3345     1.0  0.88797  0.12898  0.29741  1.0000
  H   H3346     1.0  0.86989  0.15229  0.29188  1.0000
  H   H3347     1.0  0.81969  0.15376  0.34740  1.0000
  H   H3348     1.0  0.84020  0.14190  0.35948  1.0000
  H   H3349     1.0  0.83325  0.18584  0.33551  1.0000
  H   H3350     1.0  0.82767  0.17819  0.36098  1.0000
  H   H3351     1.0  0.85373  0.17388  0.34793  1.0000
  H   H3352     1.0  0.89937  0.09043  0.35402  1.0000
  H   H3353     1.0  0.88321  0.08618  0.37737  1.0000
  H   H3354     1.0  0.88153  0.07386  0.35988  1.0000
  H   H3355     1.0  0.79856  0.10087  0.33911  1.0000
  H   H3356     1.0  0.81159  0.07446  0.34412  1.0000
  H   H3357     1.0  0.80845  0.09030  0.36043  1.0000
  H   H3358     1.0  0.89435  0.31021  0.35528  1.0000
  H   H3359     1.0  0.97803  0.13171  0.30769  1.0000
  H   H3360     1.0  0.93434  0.00006  0.27593  1.0000
  H   H3361     1.0  0.68931  0.32272  0.45012  1.0000
  C   C1895     1.0  0.84955  0.30085  0.42684  1.0000
  H   H3362     1.0  0.79550  0.25225  0.45578  1.0000
  H   H3363     1.0  0.90030  0.24681  0.42213  1.0000
  C   C1896     1.0  0.97048  0.15173  0.28225  1.0000
  H   H3364     1.0  0.95716  0.06873  0.36218  1.0000
  C   C1897     1.0  0.54243  0.01261  0.25390  1.0000
  C   C1898     1.0  0.93313  0.19969  0.35345  1.0000
  H   H3365     1.0  0.92490  0.31300  0.47320  1.0000
  C   C1899     1.0  0.91714  0.29870  0.39959  1.0000
  H   H3366     1.0  0.74357  0.31311  0.46888  1.0000
  H   H3367     1.0  0.95844  0.00323  0.24479  1.0000
  C   C1900     1.0  0.88910  0.27382  0.34350  1.0000
  C   C1901     1.0  0.78074  0.25313  0.46651  1.0000
  C   C1902     1.0  0.94515  0.01600  0.24701  1.0000
  H   H3368     1.0  0.86408  0.13943  0.26617  1.0000
  H   H3369     1.0  0.98366  0.13919  0.35428  1.0000
  H   H3370     1.0  0.75537  0.23672  0.47405  1.0000
  C   C1903     1.0  0.97627  0.03951  0.37258  1.0000
  H   H3371     1.0  0.93673  0.19108  0.48348  1.0000
  H   H3372     1.0  0.98853  0.12834  0.33452  1.0000
  H   H3373     1.0  0.77209  0.25436  0.43192  1.0000
  H   H3374     1.0  0.92123  0.00103  0.24766  1.0000
  N   N109      1.0  0.78485  0.24671  0.48619  1.0000
  C   C1904     1.0  0.91023  0.19771  0.47164  1.0000
  C   C1905     1.0  0.94354  0.18609  0.33917  1.0000
  C   C1906     1.0  0.97783  0.14032  0.34164  1.0000
  H   H3375     1.0  0.96966  0.10138  0.35215  1.0000
  H   H3376     1.0  0.96538  0.11061  0.37342  1.0000
  C   C1907     1.0  0.98843  0.99918  0.34308  1.0000
  H   H3377     1.0  0.97326  0.04246  0.34403  1.0000
  H   H3378     1.0  0.98917  0.01302  0.31301  1.0000
  H   H3379     1.0  0.92467  0.02746  0.27132  1.0000
  C   C1908     1.0  0.86980  0.29010  0.34773  1.0000
  H   H3380     1.0  0.93332  0.19067  0.36810  1.0000
  S   S431      1.0  0.76089  0.32487  0.42921  1.0000
  C   C1909     1.0  0.85597  0.22418  0.47629  1.0000
  H   H3381     1.0  0.89953  0.18920  0.47018  1.0000
  H   H3382     1.0  0.85248  0.31295  0.47249  1.0000
  S   S432      1.0  0.85583  0.20676  0.46341  1.0000
  H   H3383     1.0  0.94170  0.19543  0.32495  1.0000
  C   C1910     1.0  0.83274  0.31712  0.36400  1.0000
  C   C1911     1.0  0.90299  0.27492  0.42714  1.0000
  H   H3384     1.0  0.80102  0.30971  0.48344  1.0000
  H   H3385     1.0  0.88981  0.31788  0.37705  1.0000
  C   C1912     1.0  0.97775  0.00866  0.32618  1.0000
  H   H3386     1.0  0.89239  0.27275  0.32849  1.0000
  C   C1913     1.0  0.96959  0.16342  0.31157  1.0000
  C   C1914     1.0  0.90845  0.29391  0.41892  1.0000
  H   H3387     1.0  0.90246  0.27773  0.34599  1.0000
  H   H3388     1.0  0.82039  0.29126  0.47191  1.0000
  C   C1915     1.0  0.92751  0.01473  0.23894  1.0000
  C   C1916     1.0  0.84344  0.31035  0.39361  1.0000
  H   H3389     1.0  0.82459  0.30417  0.36898  1.0000
  H   H3390     1.0  0.53371  0.00789  0.28470  1.0000
  H   H3391     1.0  0.64467  0.00197  0.33293  1.0000
  H   H3392     1.0  0.76322  0.31813  0.39225  1.0000
  H   H3393     1.0  0.52607  0.04364  0.25286  1.0000
  C   C1917     1.0  0.91210  0.00821  0.32031  1.0000
  H   H3394     1.0  0.97555  0.02789  0.38611  1.0000
  H   H3395     1.0  0.85847  0.27346  0.47273  1.0000
  C   C1918     1.0  0.96667  0.17792  0.33917  1.0000
  H   H3396     1.0  0.66890  0.30343  0.47745  1.0000
  H   H3397     1.0  0.91691  0.20603  0.35246  1.0000
  C   C1919     1.0  0.95747  0.05676  0.37540  1.0000
  H   H3398     1.0  0.75059  0.24210  0.44172  1.0000
  H   H3399     1.0  0.94403  0.10777  0.36591  1.0000
  H   H3400     1.0  0.81375  0.25649  0.47612  1.0000
  H   H3401     1.0  0.91540  0.02814  0.24208  1.0000
  H   H3402     1.0  0.86111  0.24942  0.45261  1.0000
  N   N110      1.0  0.97812  0.16108  0.32862  1.0000
  H   H3403     1.0  0.97355  0.19174  0.33308  1.0000
  H   H3404     1.0  0.94964  0.13495  0.33765  1.0000
  C   C1920     1.0  0.80773  0.29317  0.48447  1.0000
  H   H3405     1.0  0.93518  0.17365  0.34262  1.0000
  C   C1921     1.0  0.95686  0.13408  0.34931  1.0000
  C   C1922     1.0  0.85953  0.30538  0.40572  1.0000
  H   H3406     1.0  0.94081  0.21267  0.35058  1.0000
  C   C1923     1.0  0.92377  0.20333  0.45201  1.0000
  C   C1924     1.0  0.86343  0.29140  0.36892  1.0000
  H   H3407     1.0  0.97236  0.16695  0.27314  1.0000
  H   H3408     1.0  0.96582  0.02245  0.32838  1.0000
  C   C1925     1.0  0.88667  0.32276  0.36279  1.0000
  C   C1926     1.0  0.70103  0.32174  0.48004  1.0000
  H   H3409     1.0  0.90120  0.21217  0.47581  1.0000
  H   H3410     1.0  0.91137  0.01152  0.37103  1.0000
  H   H3411     1.0  0.95783  0.06384  0.38678  1.0000
  H   H3412     1.0  0.94655  0.14392  0.35890  1.0000
  H   H3413     1.0  0.87730  0.28649  0.37491  1.0000
  H   H3414     1.0  0.85718  0.28625  0.34386  1.0000
  C   C1927     1.0  0.95920  0.11209  0.36090  1.0000
  H   H3415     1.0  0.88291  0.11625  0.27183  1.0000
  C   C1928     1.0  0.75950  0.25158  0.44451  1.0000
  H   H3416     1.0  0.97828  0.13996  0.27374  1.0000
  H   H3417     1.0  0.96262  0.02287  0.36143  1.0000
  C   C1929     1.0  0.79110  0.28223  0.48534  1.0000
  H   H3418     1.0  0.91398  0.21233  0.44188  1.0000
  H   H3419     1.0  0.95309  0.16294  0.31566  1.0000
  H   H3420     1.0  0.88709  0.25870  0.35257  1.0000
  H   H3421     1.0  0.89676  0.30077  0.47194  1.0000
  H   H3422     1.0  0.97046  0.17881  0.30219  1.0000
  H   H3423     1.0  0.74925  0.26647  0.44657  1.0000
  C   C1930     1.0  0.88919  0.29807  0.48716  1.0000
  C   C1931     1.0  0.85850  0.24425  0.46781  1.0000
  H   H3424     1.0  0.83753  0.31906  0.34838  1.0000
  H   H3425     1.0  0.63983  0.01228  0.35358  1.0000
  N   N111      1.0  0.85125  0.31199  0.37257  1.0000
  H   H3426     1.0  0.83721  0.31397  0.43052  1.0000
  H   H3427     1.0  0.55092  0.02533  0.27333  1.0000
  C   C1932     1.0  0.54705  0.01097  0.27300  1.0000
  H   H3428     1.0  0.55628  0.01589  0.24302  1.0000
  H   H3429     1.0  0.93420  0.21285  0.45221  1.0000
  H   H3430     1.0  0.92776  0.11635  0.24264  1.0000
  H   H3431     1.0  0.83335  0.32497  0.39666  1.0000
  H   H3432     1.0  0.92165  0.31324  0.39326  1.0000
  H   H3433     1.0  0.95069  0.01733  0.27357  1.0000
  C   C1933     1.0  0.64809  0.99896  0.34711  1.0000
  H   H3434     1.0  0.51026  0.02570  0.26265  1.0000
  H   H3435     1.0  0.92909  0.16892  0.48274  1.0000
  H   H3436     1.0  0.70774  0.30813  0.47358  1.0000
  C   C1934     1.0  0.96757  0.99336  0.32304  1.0000
  C   C1935     1.0  0.90407  0.99523  0.35412  1.0000
  C   C1936     1.0  0.92311  0.18429  0.48629  1.0000
  C   C1937     1.0  0.92133  0.08976  0.23795  1.0000
  H   H3437     1.0  0.49641  0.02573  0.34013  1.0000
  C   C1938     1.0  0.90425  0.99385  0.33591  1.0000
  N   N112      1.0  0.99524  0.01400  0.35019  1.0000
  H   H3438     1.0  0.78609  0.21490  0.48737  1.0000
  C   C1939     1.0  0.66657  0.31384  0.48711  1.0000
  Fe  Fe216     1.0  0.61686  0.00741  0.66774  1.0000
  S   S433      1.0  0.58761  0.03016  0.66478  1.0000
  C   C1940     1.0  0.96901  0.16178  0.72903  1.0000
  Fe  Fe217     1.0  0.60098  0.03377  0.63367  1.0000
  S   S434      1.0  0.60312  0.06369  0.61292  1.0000
  H   H3439     1.0  0.86470  0.17205  0.65006  1.0000
  H   H3440     1.0  0.60345  0.04172  0.69352  1.0000
  H   H3441     1.0  0.91334  0.06964  0.73179  1.0000
  S   S435      1.0  0.52461  0.13157  0.59837  1.0000
  H   H3442     1.0  0.74146  0.30283  0.60117  1.0000
  S   S436      1.0  0.56590  0.14185  0.68657  1.0000
  H   H3443     1.0  0.91650  0.28763  0.49964  1.0000
  C   C1941     1.0  0.92209  0.09547  0.73574  1.0000
  C   C1942     1.0  0.88968  0.23530  0.60558  1.0000
  C   C1943     1.0  0.99120  0.02434  0.60864  1.0000
  H   H3444     1.0  0.86408  0.25216  0.66953  1.0000
  H   H3445     1.0  0.54178  0.05710  0.61453  1.0000
  H   H3446     1.0  0.74957  0.27829  0.63044  1.0000
  C   C1944     1.0  0.88032  0.19791  0.63787  1.0000
  C   C1945     1.0  0.90576  0.03557  0.62877  1.0000
  H   H3447     1.0  0.85520  0.30443  0.63071  1.0000
  Fe  Fe218     1.0  0.83106  0.25579  0.54269  1.0000
  S   S437      1.0  0.81321  0.23207  0.54611  1.0000
  S   S438      1.0  0.84883  0.26821  0.51375  1.0000
  Fe  Fe219     1.0  0.81887  0.25569  0.58438  1.0000
  S   S439      1.0  0.80045  0.23169  0.59092  1.0000
  S   S440      1.0  0.81948  0.26628  0.60972  1.0000
  Fe  Fe220     1.0  0.82686  0.21623  0.57134  1.0000
  S   S441      1.0  0.83842  0.18195  0.57759  1.0000
  Fe  Fe221     1.0  0.78881  0.25001  0.56508  1.0000
  S   S442      1.0  0.75622  0.25283  0.56382  1.0000
  S   S443      1.0  0.84631  0.23890  0.56681  1.0000
  S   S444      1.0  0.80540  0.27526  0.55977  1.0000
  Fe  Fe222     1.0  0.92514  0.07432  0.62942  1.0000
  S   S445      1.0  0.94829  0.09377  0.61435  1.0000
  S   S446      1.0  0.91914  0.05414  0.61387  1.0000
  Fe  Fe223     1.0  0.91610  0.08898  0.66572  1.0000
  S   S447      1.0  0.93806  0.11009  0.65352  1.0000
  S   S448      1.0  0.90025  0.08329  0.69638  1.0000
  Fe  Fe224     1.0  0.92498  0.11807  0.62761  1.0000
  S   S449      1.0  0.91833  0.15059  0.61080  1.0000
  Fe  Fe225     1.0  0.95896  0.08383  0.64160  1.0000
  S   S450      1.0  0.90104  0.09916  0.64101  1.0000
  S   S451      1.0  0.93778  0.06217  0.65543  1.0000
  C   C1946     1.0  0.90966  0.09560  0.70856  1.0000
  C   C1947     1.0  0.91178  0.11584  0.70098  1.0000
  C   C1948     1.0  0.91846  0.12608  0.71098  1.0000
  C   C1949     1.0  0.52021  0.99512  0.70908  1.0000
  H   H3448     1.0  0.92439  0.25212  0.49648  1.0000
  H   H3449     1.0  0.90795  0.12368  0.68752  1.0000
  H   H3450     1.0  0.91991  0.14180  0.70511  1.0000
  H   H3451     1.0  0.97725  0.09836  0.67741  1.0000
  C   C1950     1.0  0.85325  0.25117  0.49898  1.0000
  C   C1951     1.0  0.85199  0.23086  0.50714  1.0000
  C   C1952     1.0  0.98267  0.14094  0.72693  1.0000
  H   H3452     1.0  0.53800  0.02381  0.71901  1.0000
  H   H3453     1.0  0.89267  0.20279  0.64122  1.0000
  C   C1953     1.0  0.86159  0.23264  0.64295  1.0000
  H   H3454     1.0  0.85032  0.22526  0.52219  1.0000
  H   H3455     1.0  0.85106  0.20214  0.50253  1.0000
  C   C1954     1.0  0.89120  0.00617  0.63286  1.0000
  C   C1955     1.0  0.84235  0.19770  0.62255  1.0000
  C   C1956     1.0  0.86138  0.17278  0.58562  1.0000
  C   C1957     1.0  0.86548  0.15278  0.59634  1.0000
  C   C1958     1.0  0.88316  0.14558  0.60381  1.0000
  C   C1959     1.0  0.89686  0.15834  0.60050  1.0000
  C   C1960     1.0  0.89311  0.17806  0.58919  1.0000
  C   C1961     1.0  0.87540  0.18528  0.58184  1.0000
  H   H3456     1.0  0.85471  0.14302  0.59923  1.0000
  H   H3457     1.0  0.88603  0.13028  0.61225  1.0000
  H   H3458     1.0  0.90381  0.18787  0.58637  1.0000
  H   H3459     1.0  0.87253  0.20055  0.57337  1.0000
  C   C1962     1.0  0.70930  0.31277  0.55410  1.0000
  C   C1963     1.0  0.70369  0.29383  0.55922  1.0000
  C   C1964     1.0  0.71825  0.27575  0.56255  1.0000
  C   C1965     1.0  0.73868  0.27635  0.56062  1.0000
  C   C1966     1.0  0.74452  0.29530  0.55533  1.0000
  C   C1967     1.0  0.72976  0.31360  0.55219  1.0000
  H   H3460     1.0  0.68797  0.29309  0.56067  1.0000
  H   H3461     1.0  0.71370  0.26116  0.56648  1.0000
  H   H3462     1.0  0.76040  0.29578  0.55331  1.0000
  S   S452      1.0  0.63585  0.00519  0.68824  1.0000
  H   H3463     1.0  0.89398  0.09283  0.57276  1.0000
  C   C1968     1.0  0.89134  0.16520  0.66139  1.0000
  C   C1969     1.0  0.52717  0.04804  0.65223  1.0000
  H   H3464     1.0  0.95423  0.11766  0.68067  1.0000
  C   C1970     1.0  0.86732  0.30354  0.60136  1.0000
  C   C1971     1.0  0.85429  0.29879  0.61902  1.0000
  C   C1972     1.0  0.83965  0.28732  0.62140  1.0000
  C   C1973     1.0  0.83823  0.28027  0.60624  1.0000
  C   C1974     1.0  0.85159  0.28455  0.58866  1.0000
  C   C1975     1.0  0.86624  0.29610  0.58627  1.0000
  H   H3465     1.0  0.54262  0.03850  0.64852  1.0000
  H   H3466     1.0  0.82926  0.28413  0.63498  1.0000
  H   H3467     1.0  0.85057  0.27909  0.57691  1.0000
  H   H3468     1.0  0.51211  0.08511  0.72547  1.0000
  H   H3469     1.0  0.84887  0.01590  0.62934  1.0000
  S   S453      1.0  0.63115  0.01279  0.63677  1.0000
  H   H3470     1.0  0.95337  0.99458  0.65365  1.0000
  H   H3471     1.0  0.89987  0.04756  0.65366  1.0000
  H   H3472     1.0  0.83763  0.25782  0.66773  1.0000
  H   H3473     1.0  0.92442  0.02132  0.71767  1.0000
  C   C1976     1.0  0.52449  0.15428  0.69967  1.0000
  C   C1977     1.0  0.54024  0.14892  0.68461  1.0000
  C   C1978     1.0  0.53553  0.14898  0.66770  1.0000
  H   H3474     1.0  0.81383  0.28720  0.49750  1.0000
  H   H3475     1.0  0.52821  0.15471  0.71252  1.0000
  H   H3476     1.0  0.54763  0.14534  0.65582  1.0000
  H   H3477     1.0  0.88381  0.18287  0.49991  1.0000
  C   C1979     1.0  0.58082  0.08207  0.60962  1.0000
  C   C1980     1.0  0.56245  0.08216  0.62324  1.0000
  C   C1981     1.0  0.54513  0.09769  0.62023  1.0000
  C   C1982     1.0  0.54616  0.11282  0.60347  1.0000
  C   C1983     1.0  0.56459  0.11267  0.59000  1.0000
  C   C1984     1.0  0.58188  0.09746  0.59313  1.0000
  H   H3478     1.0  0.56173  0.07048  0.63615  1.0000
  H   H3479     1.0  0.53097  0.09781  0.63071  1.0000
  H   H3480     1.0  0.56550  0.12434  0.57706  1.0000
  H   H3481     1.0  0.59611  0.09749  0.58264  1.0000
  C   C1985     1.0  0.63233  0.02478  0.70016  1.0000
  C   C1986     1.0  0.64715  0.02349  0.70994  1.0000
  C   C1987     1.0  0.97882  0.12248  0.68992  1.0000
  H   H3482     1.0  0.94682  0.18885  0.51338  1.0000
  C   C1988     1.0  0.61277  0.05558  0.71140  1.0000
  C   C1989     1.0  0.61508  0.04087  0.70084  1.0000
  H   H3483     1.0  0.96094  0.09860  0.70081  1.0000
  H   H3484     1.0  0.50416  0.10458  0.54094  1.0000
  H   H3485     1.0  0.59938  0.06784  0.71216  1.0000
  C   C1990     1.0  0.51128  0.05088  0.61704  1.0000
  C   C1991     1.0  0.84343  0.21122  0.63535  1.0000
  H   H3486     1.0  0.76962  0.24997  0.51464  1.0000
  H   H3487     1.0  0.75298  0.28108  0.48813  1.0000
  C   C1992     1.0  0.99159  0.99837  0.67470  1.0000
  C   C1993     1.0  0.80107  0.21439  0.50866  1.0000
  H   H3488     1.0  0.50515  0.30943  0.63316  1.0000
  H   H3489     1.0  0.67614  0.30661  0.51491  1.0000
  C   C1994     1.0  0.53070  0.01583  0.62964  1.0000
  H   H3490     1.0  0.52740  0.01705  0.60086  1.0000
  H   H3491     1.0  0.83997  0.22121  0.66907  1.0000
  H   H3492     1.0  0.91718  0.21290  0.50273  1.0000
  H   H3493     1.0  0.90227  0.22511  0.61221  1.0000
  H   H3494     1.0  0.87676  0.29929  0.57279  1.0000
  C   C1995     1.0  0.79856  0.10978  0.60940  1.0000
  H   H3495     1.0  0.49720  0.12714  0.72759  1.0000
  H   H3496     1.0  0.53609  0.05073  0.71562  1.0000
  H   H3497     1.0  0.51431  0.14016  0.55103  1.0000
  H   H3498     1.0  0.79810  0.18353  0.51006  1.0000
  C   C1996     1.0  0.66099  0.19145  0.73399  1.0000
  H   H3499     1.0  0.52263  0.03776  0.68304  1.0000
  C   C1997     1.0  0.85009  0.24578  0.67314  1.0000
  H   H3500     1.0  0.50860  0.00501  0.70174  1.0000
  H   H3501     1.0  0.72766  0.25966  0.52484  1.0000
  C   C1998     1.0  0.87059  0.22556  0.61146  1.0000
  H   H3502     1.0  0.96305  0.03852  0.59898  1.0000
  H   H3503     1.0  0.54178  0.12077  0.52990  1.0000
  H   H3504     1.0  0.98760  0.10288  0.71525  1.0000
  C   C1999     1.0  0.73373  0.27299  0.51519  1.0000
  H   H3505     1.0  0.89534  0.27573  0.51292  1.0000
  C   C2000     1.0  0.54702  0.03579  0.71584  1.0000
  H   H3506     1.0  0.96614  0.04867  0.61730  1.0000
  C   C2001     1.0  0.51019  0.03795  0.65152  1.0000
  H   H3507     1.0  0.94244  0.00297  0.69130  1.0000
  C   C2002     1.0  0.62773  0.05406  0.72125  1.0000
  H   H3508     1.0  0.81465  0.18489  0.52413  1.0000
  H   H3509     1.0  0.92924  0.15163  0.51590  1.0000
  H   H3510     1.0  0.98536  0.13105  0.67576  1.0000
  H   H3511     1.0  0.72072  0.28557  0.51185  1.0000
  H   H3512     1.0  0.88822  0.19033  0.62576  1.0000
  H   H3513     1.0  0.73625  0.32171  0.49081  1.0000
  H   H3514     1.0  0.54724  0.11629  0.55290  1.0000
  C   C2003     1.0  0.51509  0.15315  0.66624  1.0000
  H   H3515     1.0  0.87635  0.23733  0.64054  1.0000
  H   H3516     1.0  0.67447  0.27028  0.49993  1.0000
  H   H3517     1.0  0.89879  0.15811  0.50567  1.0000
  N   N113      1.0  0.51176  0.03225  0.63316  1.0000
  H   H3518     1.0  0.87859  0.02270  0.67385  1.0000
  S   S454      1.0  0.99080  0.06940  0.64607  1.0000
  S   S455      1.0  0.54567  0.99769  0.67436  1.0000
  H   H3519     1.0  0.51090  0.06419  0.67486  1.0000
  C   C2004     1.0  0.90269  0.02058  0.62132  1.0000
  C   C2005     1.0  0.49996  0.12070  0.54257  1.0000
  H   H3520     1.0  0.90920  0.02011  0.60660  1.0000
  C   C2006     1.0  0.57439  0.01065  0.73199  1.0000
  H   H3521     1.0  0.63001  0.29989  0.59670  1.0000
  C   C2007     1.0  0.51487  0.12361  0.55306  1.0000
  H   H3522     1.0  0.74233  0.27849  0.52250  1.0000
  H   H3523     1.0  0.86645  0.21545  0.67096  1.0000
  H   H3524     1.0  0.83159  0.22551  0.63287  1.0000
  C   C2008     1.0  0.86998  0.31387  0.51398  1.0000
  H   H3525     1.0  0.53874  0.09706  0.54699  1.0000
  S   S456      1.0  0.88494  0.31868  0.59832  1.0000
  C   C2009     1.0  0.53218  0.05620  0.60545  1.0000
  H   H3526     1.0  0.85437  0.16616  0.52007  1.0000
  H   H3527     1.0  0.99075  0.15248  0.69628  1.0000
  H   H3528     1.0  0.54414  0.08060  0.58390  1.0000
  C   C2010     1.0  0.88224  0.00709  0.65173  1.0000
  H   H3529     1.0  0.92027  0.99628  0.67772  1.0000
  C   C2011     1.0  0.82315  0.18868  0.62994  1.0000
  H   H3530     1.0  0.64475  0.29845  0.57317  1.0000
  S   S457      1.0  0.60397  0.12925  0.71796  1.0000
  H   H3531     1.0  0.87827  0.11337  0.58385  1.0000
  H   H3532     1.0  0.70355  0.24344  0.73182  1.0000
  C   C2012     1.0  0.55923  0.03176  0.73099  1.0000
  H   H3533     1.0  0.58745  0.01310  0.71976  1.0000
  C   C2013     1.0  0.95856  0.16056  0.53130  1.0000
  H   H3534     1.0  0.53820  0.05651  0.67261  1.0000
  H   H3535     1.0  0.99527  0.06354  0.69006  1.0000
  C   C2014     1.0  0.97429  0.04294  0.60426  1.0000
  S   S458      1.0  0.56860  0.10053  0.73358  1.0000
  C   C2015     1.0  0.90386  0.28154  0.49843  1.0000
  C   C2016     1.0  0.91322  0.26345  0.48877  1.0000
  H   H3536     1.0  0.81271  0.22112  0.51077  1.0000
  H   H3537     1.0  0.88065  0.06712  0.59904  1.0000
  C   C2017     1.0  0.93999  0.01145  0.71713  1.0000
  H   H3538     1.0  0.86461  0.17829  0.71249  1.0000
  H   H3539     1.0  0.78744  0.21627  0.52039  1.0000
  H   H3540     1.0  0.82336  0.18862  0.49879  1.0000
  H   H3541     1.0  0.88565  0.25020  0.60988  1.0000
  C   C2018     1.0  0.52906  0.07660  0.59126  1.0000
  H   H3542     1.0  0.56470  0.00695  0.59957  1.0000
  C   C2019     1.0  0.77975  0.32579  0.57157  1.0000
  H   H3543     1.0  0.52617  0.06321  0.64243  1.0000
  H   H3544     1.0  0.77288  0.26580  0.61652  1.0000
  C   C2020     1.0  0.87319  0.18061  0.65458  1.0000
  C   C2021     1.0  0.80982  0.19145  0.51045  1.0000
  C   C2022     1.0  0.92344  0.11598  0.72842  1.0000
  C   C2023     1.0  0.52446  0.05181  0.67191  1.0000
  H   H3545     1.0  0.88535  0.24944  0.57691  1.0000
  C   C2024     1.0  0.85429  0.22704  0.66470  1.0000
  H   H3546     1.0  0.95990  0.16771  0.71793  1.0000
  C   C2025     1.0  0.89747  0.03605  0.64782  1.0000
  H   H3547     1.0  0.76540  0.30909  0.61957  1.0000
  H   H3548     1.0  0.83802  0.20362  0.65023  1.0000
  H   H3549     1.0  0.75904  0.23505  0.50587  1.0000
  H   H3550     1.0  0.84528  0.24140  0.68878  1.0000
  C   C2026     1.0  0.65111  0.05169  0.65066  1.0000
  C   C2027     1.0  0.92651  0.16723  0.51859  1.0000
  C   C2028     1.0  0.88541  0.02202  0.65922  1.0000
  H   H3551     1.0  0.91040  0.24788  0.58034  1.0000
  N   N114      1.0  0.86403  0.21637  0.63229  1.0000
  H   H3552     1.0  0.54116  0.04449  0.59724  1.0000
  C   C2029     1.0  0.98930  0.04162  0.71692  1.0000
  S   S459      1.0  0.58771  0.00939  0.63020  1.0000
  H   H3553     1.0  0.85075  0.24660  0.63747  1.0000
  C   C2030     1.0  0.64491  0.03806  0.72033  1.0000
  H   H3554     1.0  0.87389  0.21381  0.60303  1.0000
  H   H3555     1.0  0.65454  0.05292  0.66379  1.0000
  C   C2031     1.0  0.89766  0.23967  0.58416  1.0000
  H   H3556     1.0  0.90182  0.15823  0.64969  1.0000
  C   C2032     1.0  0.68249  0.27860  0.50528  1.0000
  N   N115      1.0  0.60637  0.09993  0.65031  1.0000
  C   C2033     1.0  0.61097  0.10920  0.62936  1.0000
  C   C2034     1.0  0.61756  0.07783  0.65414  1.0000
  C   C2035     1.0  0.58364  0.10054  0.65644  1.0000
  C   C2036     1.0  0.61150  0.11194  0.66163  1.0000
  C   C2037     1.0  0.63412  0.11362  0.65738  1.0000
  C   C2038     1.0  0.59848  0.13100  0.62290  1.0000
  C   C2039     1.0  0.57582  0.08800  0.67648  1.0000
  C   C2040     1.0  0.63914  0.07211  0.64145  1.0000
  H   H3557     1.0  0.78711  0.10109  0.61926  1.0000
  C   C2041     1.0  0.63689  0.12753  0.66861  1.0000
  C   C2042     1.0  0.60560  0.13914  0.60169  1.0000
  C   C2043     1.0  0.55257  0.09074  0.68082  1.0000
  H   H3558     1.0  0.60811  0.09919  0.62153  1.0000
  H   H3559     1.0  0.62735  0.10977  0.62388  1.0000
  H   H3560     1.0  0.61877  0.07274  0.66921  1.0000
  H   H3561     1.0  0.60865  0.06774  0.65211  1.0000
  H   H3562     1.0  0.57863  0.09499  0.64628  1.0000
  H   H3563     1.0  0.57495  0.11653  0.65618  1.0000
  H   H3564     1.0  0.60192  0.12766  0.66002  1.0000
  H   H3565     1.0  0.60749  0.10508  0.67700  1.0000
  H   H3566     1.0  0.63980  0.12004  0.64221  1.0000
  H   H3567     1.0  0.64375  0.09836  0.66178  1.0000
  H   H3568     1.0  0.58198  0.13088  0.62549  1.0000
  H   H3569     1.0  0.60018  0.14190  0.63039  1.0000
  H   H3570     1.0  0.57973  0.09293  0.68759  1.0000
  H   H3571     1.0  0.58236  0.07144  0.67758  1.0000
  H   H3572     1.0  0.63748  0.07066  0.62765  1.0000
  H   H3573     1.0  0.64856  0.08362  0.63836  1.0000
  C   C2044     1.0  0.53698  0.11381  0.54514  1.0000
  H   H3574     1.0  0.66575  0.04708  0.64076  1.0000
  H   H3575     1.0  0.85992  0.32333  0.55056  1.0000
  H   H3576     1.0  0.62678  0.14289  0.66579  1.0000
  H   H3577     1.0  0.63335  0.12060  0.68396  1.0000
  H   H3578     1.0  0.65302  0.12934  0.66456  1.0000
  H   H3579     1.0  0.62187  0.14045  0.59821  1.0000
  H   H3580     1.0  0.60388  0.12883  0.59356  1.0000
  H   H3581     1.0  0.59612  0.15452  0.59735  1.0000
  H   H3582     1.0  0.54508  0.10656  0.68248  1.0000
  H   H3583     1.0  0.54756  0.08765  0.66931  1.0000
  H   H3584     1.0  0.54746  0.08004  0.69420  1.0000
  H   H3585     1.0  0.89890  0.09583  0.59395  1.0000
  C   C2045     1.0  0.75750  0.29459  0.60110  1.0000
  H   H3586     1.0  0.80920  0.20107  0.63087  1.0000
  H   H3587     1.0  0.85590  0.18497  0.62151  1.0000
  C   C2046     1.0  0.88665  0.09721  0.58656  1.0000
  H   H3588     1.0  0.52144  0.07555  0.58054  1.0000
  H   H3589     1.0  0.90350  0.22515  0.57917  1.0000
  H   H3590     1.0  0.86955  0.15106  0.71420  1.0000
  C   C2047     1.0  0.75708  0.27484  0.61629  1.0000
  H   H3591     1.0  0.78619  0.29852  0.60329  1.0000
  Fe  Fe226     1.0  0.60012  0.09872  0.73675  1.0000
  H   H3592     1.0  0.98836  0.04096  0.68840  1.0000
  H   H3593     1.0  0.84182  0.20708  0.60807  1.0000
  H   H3594     1.0  0.52952  0.10238  0.71840  1.0000
  H   H3595     1.0  0.89996  0.17266  0.66696  1.0000
  H   H3596     1.0  0.84015  0.31395  0.54623  1.0000
  H   H3597     1.0  0.98390  0.01296  0.62010  1.0000
  H   H3598     1.0  0.79518  0.31555  0.57077  1.0000
  H   H3599     1.0  0.85282  0.15802  0.54517  1.0000
  H   H3600     1.0  0.85790  0.23759  0.60639  1.0000
  H   H3601     1.0  0.88876  0.99473  0.62699  1.0000
  C   C2048     1.0  0.76565  0.24901  0.50158  1.0000
  H   H3602     1.0  0.74837  0.26541  0.61313  1.0000
  H   H3603     1.0  0.88801  0.16239  0.71843  1.0000
  N   N116      1.0  0.84558  0.07730  0.63081  1.0000
  C   C2049     1.0  0.84748  0.05694  0.62626  1.0000
  C   C2050     1.0  0.86325  0.08714  0.61861  1.0000
  C   C2051     1.0  0.84693  0.07322  0.65123  1.0000
  C   C2052     1.0  0.82535  0.09154  0.62873  1.0000
  C   C2053     1.0  0.82025  0.09695  0.60902  1.0000
  C   C2054     1.0  0.83178  0.04385  0.63891  1.0000
  C   C2055     1.0  0.84658  0.09209  0.65864  1.0000
  C   C2056     1.0  0.87196  0.08317  0.59831  1.0000
  H   H3604     1.0  0.82895  0.03060  0.61687  1.0000
  H   H3605     1.0  0.94200  0.00431  0.73178  1.0000
  H   H3606     1.0  0.65363  0.17969  0.71335  1.0000
  C   C2057     1.0  0.85317  0.08545  0.67753  1.0000
  H   H3607     1.0  0.86293  0.04733  0.62732  1.0000
  H   H3608     1.0  0.84665  0.05878  0.61141  1.0000
  H   H3609     1.0  0.85912  0.10400  0.61744  1.0000
  H   H3610     1.0  0.87669  0.08156  0.62538  1.0000
  H   H3611     1.0  0.86105  0.06168  0.65357  1.0000
  H   H3612     1.0  0.83402  0.06641  0.66089  1.0000
  H   H3613     1.0  0.81257  0.08542  0.63943  1.0000
  H   H3614     1.0  0.82470  0.10644  0.63190  1.0000
  H   H3615     1.0  0.82117  0.08308  0.60405  1.0000
  H   H3616     1.0  0.83080  0.10630  0.59866  1.0000
  H   H3617     1.0  0.83497  0.03765  0.65328  1.0000
  H   H3618     1.0  0.81587  0.05284  0.64010  1.0000
  H   H3619     1.0  0.83083  0.10158  0.66093  1.0000
  H   H3620     1.0  0.85686  0.10191  0.64867  1.0000
  H   H3621     1.0  0.96024  0.14381  0.53320  1.0000
  H   H3622     1.0  0.85987  0.08547  0.59057  1.0000
  H   H3623     1.0  0.86296  0.18651  0.66686  1.0000
  C   C2058     1.0  0.94314  0.99500  0.70610  1.0000
  C   C2059     1.0  0.98533  0.05228  0.69725  1.0000
  C   C2060     1.0  0.64684  0.18230  0.72787  1.0000
  H   H3624     1.0  0.73849  0.26304  0.48941  1.0000
  H   H3625     1.0  0.55741  0.03602  0.70169  1.0000
  C   C2061     1.0  0.89379  0.17330  0.50961  1.0000
  H   H3626     1.0  0.86910  0.07630  0.67589  1.0000
  H   H3627     1.0  0.85270  0.09913  0.68264  1.0000
  H   H3628     1.0  0.84282  0.07615  0.68834  1.0000
  H   H3629     1.0  0.70195  0.31620  0.49504  1.0000
  H   H3630     1.0  0.95777  0.16773  0.50191  1.0000
  C   C2062     1.0  0.49929  0.15804  0.68144  1.0000
  H   H3631     1.0  0.49742  0.28517  0.64081  1.0000
  C   C2063     1.0  0.90605  0.20320  0.51150  1.0000
  C   C2064     1.0  0.90404  0.20418  0.53229  1.0000
  H   H3632     1.0  0.65435  0.29792  0.51569  1.0000
  H   H3633     1.0  0.84083  0.31710  0.49588  1.0000
  C   C2065     1.0  0.87941  0.17087  0.52953  1.0000
  C   C2066     1.0  0.86346  0.15872  0.53107  1.0000
  C   C2067     1.0  0.89533  0.22597  0.53524  1.0000
  H   H3634     1.0  0.96908  0.06045  0.69844  1.0000
  N   N117      1.0  0.91221  0.18225  0.50689  1.0000
  H   H3635     1.0  0.91949  0.16544  0.53393  1.0000
  C   C2068     1.0  0.83315  0.02548  0.63087  1.0000
  H   H3636     1.0  0.98681  0.11325  0.63214  1.0000
  C   C2069     1.0  0.50402  0.15929  0.69791  1.0000
  C   C2070     1.0  0.91482  0.08538  0.72596  1.0000
  C   C2071     1.0  0.94788  0.17226  0.51508  1.0000
  H   H3637     1.0  0.89129  0.21142  0.50748  1.0000
  H   H3638     1.0  0.91915  0.19916  0.53617  1.0000
  H   H3639     1.0  0.89400  0.19429  0.54241  1.0000
  H   H3640     1.0  0.50375  0.12989  0.52796  1.0000
  H   H3641     1.0  0.88567  0.15279  0.67289  1.0000
  H   H3642     1.0  0.79687  0.12423  0.61382  1.0000
  H   H3643     1.0  0.88782  0.16273  0.54088  1.0000
  H   H3644     1.0  0.87091  0.18616  0.53220  1.0000
  H   H3645     1.0  0.87097  0.14285  0.52950  1.0000
  H   H3646     1.0  0.94969  0.16521  0.54471  1.0000
  H   H3647     1.0  0.80419  0.25351  0.50090  1.0000
  H   H3648     1.0  0.88028  0.23209  0.53126  1.0000
  H   H3649     1.0  0.89319  0.22606  0.55034  1.0000
  H   H3650     1.0  0.90599  0.23613  0.52673  1.0000
  H   H3651     1.0  0.50370  0.04923  0.60651  1.0000
  H   H3652     1.0  0.97403  0.16397  0.52810  1.0000
  S   S460      1.0  0.62554  0.07096  0.73565  1.0000
  H   H3653     1.0  0.68484  0.26974  0.51950  1.0000
  H   H3654     1.0  0.53110  0.00317  0.64241  1.0000
  C   C2072     1.0  0.74774  0.26721  0.49707  1.0000
  H   H3655     1.0  0.98272  0.00734  0.68552  1.0000
  H   H3656     1.0  0.81058  0.31529  0.59516  1.0000
  H   H3657     1.0  0.77887  0.28515  0.49793  1.0000
  H   H3658     1.0  0.50168  0.06463  0.62240  1.0000
  H   H3659     1.0  0.49585  0.04919  0.65502  1.0000
  H   H3660     1.0  0.98745  0.02433  0.65183  1.0000
  H   H3661     1.0  0.86006  0.30282  0.51662  1.0000
  H   H3662     1.0  0.54471  0.02166  0.62743  1.0000
  H   H3663     1.0  0.51159  0.15266  0.65329  1.0000
  C   C2073     1.0  0.96719  0.10826  0.68709  1.0000
  H   H3664     1.0  0.66392  0.20544  0.72310  1.0000
  Fe  Fe227     1.0  0.57733  0.00342  0.66177  1.0000
  H   H3665     1.0  0.50010  0.99368  0.73647  1.0000
  H   H3666     1.0  0.96744  0.13351  0.69782  1.0000
  C   C2074     1.0  0.87145  0.16308  0.72031  1.0000
  H   H3667     1.0  0.82334  0.17834  0.64407  1.0000
  H   H3668     1.0  0.64215  0.03960  0.65428  1.0000
  H   H3669     1.0  0.82256  0.17968  0.62008  1.0000
  H   H3670     1.0  0.51961  0.08899  0.59854  1.0000
  C   C2075     1.0  0.53283  0.00577  0.61299  1.0000
  Fe  Fe228     1.0  0.57167  0.13192  0.71603  1.0000
  H   H3671     1.0  0.82248  0.01585  0.64066  1.0000
  H   H3672     1.0  0.95136  0.02129  0.71012  1.0000
  H   H3673     1.0  0.98521  0.05348  0.72538  1.0000
  H   H3674     1.0  0.56717  0.99973  0.72905  1.0000
  H   H3675     1.0  0.76428  0.29001  0.58736  1.0000
  H   H3676     1.0  0.88097  0.30611  0.52333  1.0000
  H   H3677     1.0  0.64999  0.32116  0.48907  1.0000
  C   C2076     1.0  0.77039  0.30779  0.60452  1.0000
  H   H3678     1.0  0.79539  0.11376  0.59503  1.0000
  H   H3679     1.0  0.52342  0.99389  0.61781  1.0000
  C   C2077     1.0  0.66964  0.29999  0.50673  1.0000
  Fe  Fe229     1.0  0.49631  0.13259  0.62162  1.0000
  H   H3680     1.0  0.90106  0.25590  0.48864  1.0000
  H   H3681     1.0  0.66044  0.01107  0.70956  1.0000
  H   H3682     1.0  0.97877  0.03087  0.72345  1.0000
  H   H3683     1.0  0.87637  0.29098  0.48804  1.0000
  H   H3684     1.0  0.63161  0.19275  0.72796  1.0000
  C   C2078     1.0  0.85304  0.21756  0.49589  1.0000
  H   H3685     1.0  0.51136  0.11670  0.56836  1.0000
  H   H3686     1.0  0.65650  0.03678  0.72791  1.0000
  H   H3687     1.0  0.77046  0.31802  0.56711  1.0000
  H   H3688     1.0  0.50938  0.02427  0.66342  1.0000
  H   H3689     1.0  0.61741  0.30770  0.57701  1.0000
  C   C2079     1.0  0.63139  0.30751  0.58150  1.0000
  H   H3690     1.0  0.72068  0.21861  0.73218  1.0000
  C   C2080     1.0  0.79569  0.22445  0.48904  1.0000
  C   C2081     1.0  0.52257  0.09107  0.73033  1.0000
  H   H3691     1.0  0.67569  0.18026  0.73398  1.0000
  H   H3692     1.0  0.97835  0.17287  0.72806  1.0000
  H   H3693     1.0  0.53493  0.07812  0.73465  1.0000
  H   H3694     1.0  0.56786  0.04416  0.72738  1.0000
  N   N118      1.0  0.88124  0.31799  0.49355  1.0000
  H   H3695     1.0  0.98061  0.05537  0.59328  1.0000
  H   H3696     1.0  0.97272  0.13031  0.72845  1.0000
  H   H3697     1.0  0.93218  0.99813  0.64303  1.0000
  C   C2082     1.0  0.55499  0.99538  0.60600  1.0000
  H   H3698     1.0  0.90635  0.32096  0.50390  1.0000
  H   H3699     1.0  0.69767  0.27937  0.49567  1.0000
  Fe  Fe230     1.0  0.65988  0.30024  0.87834  1.0000
  H   H3700     1.0  0.90482  0.00996  0.81914  1.0000
  H   H3701     1.0  0.53502  0.04137  0.78680  1.0000
  H   H3702     1.0  0.77460  0.30009  0.82961  1.0000
  H   H3703     1.0  0.75196  0.24027  0.84356  1.0000
  S   S461      1.0  0.55787  0.14746  0.74036  1.0000
  H   H3704     1.0  0.56523  0.16915  0.79429  1.0000
  H   H3705     1.0  0.58361  0.03110  0.75263  1.0000
  H   H3706     1.0  0.87954  0.07170  0.79801  1.0000
  Fe  Fe231     1.0  0.50094  0.99440  0.77428  1.0000
  S   S462      1.0  0.66437  0.15165  0.96067  1.0000
  Fe  Fe232     1.0  0.65377  0.15409  0.83322  1.0000
  S   S463      1.0  0.63267  0.18289  0.84066  1.0000
  S   S464      1.0  0.65052  0.13394  0.81577  1.0000
  Fe  Fe233     1.0  0.68498  0.15514  0.85439  1.0000
  S   S465      1.0  0.66664  0.18378  0.86359  1.0000
  S   S466      1.0  0.71661  0.14077  0.85944  1.0000
  Fe  Fe234     1.0  0.63972  0.16928  0.86942  1.0000
  S   S467      1.0  0.61600  0.17080  0.89640  1.0000
  Fe  Fe235     1.0  0.66152  0.19472  0.83423  1.0000
  S   S468      1.0  0.66797  0.22567  0.81877  1.0000
  S   S469      1.0  0.65854  0.13946  0.86264  1.0000
  S   S470      1.0  0.68197  0.16716  0.82436  1.0000
  Fe  Fe236     1.0  0.80858  0.21063  0.88204  1.0000
  S   S471      1.0  0.79262  0.20022  0.91192  1.0000
  H   H3707     1.0  0.84431  0.16335  0.74248  1.0000
  Fe  Fe237     1.0  0.81960  0.16817  0.87353  1.0000
  S   S472      1.0  0.80414  0.15413  0.90290  1.0000
  S   S473      1.0  0.83291  0.14883  0.85158  1.0000
  Fe  Fe238     1.0  0.77927  0.18229  0.89962  1.0000
  S   S474      1.0  0.74548  0.18373  0.90837  1.0000
  Fe  Fe239     1.0  0.81908  0.17338  0.91224  1.0000
  S   S475      1.0  0.83647  0.16259  0.93547  1.0000
  S   S476      1.0  0.79331  0.19476  0.86954  1.0000
  S   S477      1.0  0.83642  0.18535  0.88318  1.0000
  H   H3708     1.0  0.62848  0.02311  0.75924  1.0000
  C   C2083     1.0  0.72910  0.23766  0.81909  1.0000
  H   H3709     1.0  0.80229  0.15333  0.80188  1.0000
  Fe  Fe240     1.0  0.94447  0.11014  0.76517  1.0000
  S   S478      1.0  0.92857  0.09122  0.79169  1.0000
  H   H3710     1.0  0.64776  0.31746  0.94007  1.0000
  Fe  Fe241     1.0  0.98449  0.10005  0.77793  1.0000
  S   S479      1.0  0.97209  0.08057  0.80548  1.0000
  H   H3711     1.0  0.55709  0.01392  0.77152  1.0000
  Fe  Fe242     1.0  0.95843  0.06831  0.78834  1.0000
  S   S480      1.0  0.96514  0.03404  0.79375  1.0000
  Fe  Fe243     1.0  0.94366  0.10530  0.80625  1.0000
  S   S481      1.0  0.92907  0.11859  0.83210  1.0000
  S   S482      1.0  0.97295  0.08603  0.76054  1.0000
  S   S483      1.0  0.95738  0.12599  0.77992  1.0000
  C   C2084     1.0  0.82151  0.15264  0.95716  1.0000
  C   C2085     1.0  0.93074  0.99939  0.77418  1.0000
  H   H3712     1.0  0.90094  0.17738  0.78208  1.0000
  H   H3713     1.0  0.93765  0.99738  0.82975  1.0000
  S   S484      1.0  0.50793  0.02786  0.82243  1.0000
  C   C2086     1.0  0.80218  0.14957  0.95810  1.0000
  C   C2087     1.0  0.60173  0.00924  0.77082  1.0000
  H   H3714     1.0  0.98830  0.00976  0.74924  1.0000
  H   H3715     1.0  0.70097  0.17308  0.75456  1.0000
  H   H3716     1.0  0.79647  0.15308  0.94537  1.0000
  C   C2088     1.0  0.85971  0.14134  0.84520  1.0000
  C   C2089     1.0  0.87244  0.15148  0.84897  1.0000
  C   C2090     1.0  0.89376  0.14457  0.84463  1.0000
  C   C2091     1.0  0.90246  0.12778  0.83611  1.0000
  C   C2092     1.0  0.88977  0.11797  0.83181  1.0000
  C   C2093     1.0  0.86842  0.12470  0.83643  1.0000
  H   H3717     1.0  0.86589  0.16458  0.85533  1.0000
  H   H3718     1.0  0.90355  0.15227  0.84788  1.0000
  H   H3719     1.0  0.89637  0.10484  0.82545  1.0000
  H   H3720     1.0  0.85862  0.11672  0.83357  1.0000
  H   H3721     1.0  0.80826  0.15529  0.82296  1.0000
  C   C2094     1.0  0.86111  0.16024  0.74130  1.0000
  H   H3722     1.0  0.59199  0.26790  0.93723  1.0000
  Fe  Fe244     1.0  0.58994  0.14186  0.74409  1.0000
  C   C2095     1.0  0.80471  0.23114  0.98147  1.0000
  H   H3723     1.0  0.72356  0.20306  0.86119  1.0000
  C   C2096     1.0  0.65921  0.24171  0.83502  1.0000
  C   C2097     1.0  0.64276  0.23838  0.85030  1.0000
  H   H3724     1.0  0.51879  0.08125  0.85138  1.0000
  H   H3725     1.0  0.68560  0.23917  0.87633  1.0000
  C   C2098     1.0  0.66255  0.26997  0.84633  1.0000
  C   C2099     1.0  0.66886  0.25772  0.83289  1.0000
  H   H3726     1.0  0.63510  0.22615  0.85196  1.0000
  H   H3727     1.0  0.67034  0.28204  0.84478  1.0000
  H   H3728     1.0  0.68131  0.26051  0.82097  1.0000
  C   C2100     1.0  0.72447  0.15268  0.87318  1.0000
  C   C2101     1.0  0.71017  0.16283  0.88650  1.0000
  C   C2102     1.0  0.71673  0.17215  0.89742  1.0000
  C   C2103     1.0  0.73756  0.17166  0.89484  1.0000
  C   C2104     1.0  0.75189  0.16155  0.88150  1.0000
  C   C2105     1.0  0.74535  0.15191  0.87082  1.0000
  H   H3729     1.0  0.69410  0.16301  0.88877  1.0000
  H   H3730     1.0  0.70568  0.17965  0.90795  1.0000
  H   H3731     1.0  0.76803  0.16091  0.87957  1.0000
  H   H3732     1.0  0.75648  0.14391  0.86067  1.0000
  C   C2106     1.0  0.65051  0.15736  0.94311  1.0000
  C   C2107     1.0  0.62977  0.16691  0.94611  1.0000
  C   C2108     1.0  0.61910  0.17107  0.93172  1.0000
  C   C2109     1.0  0.62905  0.16524  0.91457  1.0000
  C   C2110     1.0  0.64972  0.15558  0.91169  1.0000
  C   C2111     1.0  0.66048  0.15186  0.92586  1.0000
  H   H3733     1.0  0.62210  0.17146  0.95929  1.0000
  H   H3734     1.0  0.60320  0.17888  0.93376  1.0000
  H   H3735     1.0  0.65753  0.15106  0.89849  1.0000
  H   H3736     1.0  0.67654  0.14454  0.92346  1.0000
  C   C2112     1.0  0.56673  0.27156  0.91433  1.0000
  H   H3737     1.0  0.66147  0.21248  0.97930  1.0000
  H   H3738     1.0  0.74684  0.17721  0.80343  1.0000
  C   C2113     1.0  0.95233  0.02151  0.78488  1.0000
  C   C2114     1.0  0.93627  0.03196  0.77579  1.0000
  H   H3739     1.0  0.59863  0.18332  0.78392  1.0000
  H   H3740     1.0  0.93188  0.04846  0.77336  1.0000
  C   C2115     1.0  0.61198  0.15735  0.77102  1.0000
  C   C2116     1.0  0.62611  0.13875  0.77160  1.0000
  C   C2117     1.0  0.63811  0.13194  0.78521  1.0000
  C   C2118     1.0  0.63591  0.14359  0.79841  1.0000
  C   C2119     1.0  0.62151  0.16203  0.79806  1.0000
  C   C2120     1.0  0.60970  0.16900  0.78425  1.0000
  H   H3741     1.0  0.62799  0.12970  0.76141  1.0000
  H   H3742     1.0  0.64905  0.11752  0.78559  1.0000
  H   H3743     1.0  0.61917  0.17063  0.80868  1.0000
  H   H3744     1.0  0.58228  0.14607  0.82786  1.0000
  H   H3745     1.0  0.64397  0.18427  0.76298  1.0000
  H   H3746     1.0  0.52896  0.06675  0.87173  1.0000
  C   C2121     1.0  0.53502  0.07270  0.78565  1.0000
  H   H3747     1.0  0.79812  0.27253  0.97986  1.0000
  H   H3748     1.0  0.58178  0.13265  0.80171  1.0000
  H   H3749     1.0  0.51910  0.16603  0.76560  1.0000
  H   H3750     1.0  0.71729  0.29093  0.80387  1.0000
  Fe  Fe245     1.0  0.70326  0.30642  0.86274  1.0000
  N   N119      1.0  0.88058  0.11275  0.90728  1.0000
  C   C2122     1.0  0.90276  0.10189  0.90526  1.0000
  C   C2123     1.0  0.86971  0.10815  0.92785  1.0000
  C   C2124     1.0  0.87093  0.10379  0.89658  1.0000
  C   C2125     1.0  0.87791  0.13554  0.89941  1.0000
  C   C2126     1.0  0.89401  0.14627  0.90115  1.0000
  C   C2127     1.0  0.91516  0.10207  0.88463  1.0000
  C   C2128     1.0  0.84771  0.11219  0.89742  1.0000
  C   C2129     1.0  0.87804  0.11406  0.94221  1.0000
  C   C2130     1.0  0.86776  0.10524  0.96251  1.0000
  C   C2131     1.0  0.88758  0.16951  0.89520  1.0000
  C   C2132     1.0  0.93821  0.09640  0.88352  1.0000
  C   C2133     1.0  0.83980  0.10164  0.88642  1.0000
  H   H3751     1.0  0.90394  0.08555  0.91287  1.0000
  H   H3752     1.0  0.91099  0.10834  0.91213  1.0000
  H   H3753     1.0  0.85346  0.11646  0.92980  1.0000
  H   H3754     1.0  0.86945  0.09152  0.93264  1.0000
  H   H3755     1.0  0.87349  0.08683  0.90154  1.0000
  H   H3756     1.0  0.87826  0.10681  0.88122  1.0000
  H   H3757     1.0  0.87820  0.13910  0.88410  1.0000
  H   H3758     1.0  0.86243  0.14352  0.90580  1.0000
  H   H3759     1.0  0.90899  0.14160  0.89173  1.0000
  H   H3760     1.0  0.89644  0.14251  0.91568  1.0000
  H   H3761     1.0  0.91137  0.09074  0.87894  1.0000
  H   H3762     1.0  0.91161  0.11730  0.87524  1.0000
  H   H3763     1.0  0.84483  0.12885  0.89112  1.0000
  H   H3764     1.0  0.83843  0.10955  0.91206  1.0000
  H   H3765     1.0  0.89473  0.10831  0.94085  1.0000
  H   H3766     1.0  0.87442  0.13092  0.94041  1.0000
  H   H3767     1.0  0.64992  0.08352  0.95467  1.0000
  H   H3768     1.0  0.50688  0.18314  0.74708  1.0000
  H   H3769     1.0  0.85084  0.10993  0.96469  1.0000
  H   H3770     1.0  0.88552  0.17406  0.88040  1.0000
  H   H3771     1.0  0.87304  0.17522  0.90472  1.0000
  H   H3772     1.0  0.89958  0.17679  0.89606  1.0000
  H   H3773     1.0  0.94250  0.08104  0.89256  1.0000
  H   H3774     1.0  0.94647  0.09608  0.86867  1.0000
  H   H3775     1.0  0.94307  0.10793  0.88804  1.0000
  H   H3776     1.0  0.84864  0.10320  0.87158  1.0000
  H   H3777     1.0  0.84090  0.08515  0.89318  1.0000
  H   H3778     1.0  0.82351  0.10885  0.88623  1.0000
  H   H3779     1.0  0.69950  0.23911  0.89331  1.0000
  H   H3780     1.0  0.75296  0.20427  0.97547  1.0000
  H   H3781     1.0  0.74307  0.29637  0.95720  1.0000
  H   H3782     1.0  0.73924  0.23595  0.80509  1.0000
  C   C2134     1.0  0.69934  0.23141  0.88230  1.0000
  C   C2135     1.0  0.68938  0.22405  0.97591  1.0000
  S   S485      1.0  0.58941  0.11101  0.76314  1.0000
  H   H3783     1.0  0.60716  0.10111  0.90988  1.0000
  C   C2136     1.0  0.77304  0.28741  0.84168  1.0000
  C   C2137     1.0  0.65143  0.21751  0.77527  1.0000
  H   H3784     1.0  0.55913  0.08286  0.85984  1.0000
  H   H3785     1.0  0.87215  0.08827  0.96574  1.0000
  C   C2138     1.0  0.87820  0.07411  0.78317  1.0000
  C   C2139     1.0  0.72553  0.26027  0.82036  1.0000
  H   H3786     1.0  0.78767  0.26362  0.91119  1.0000
  N   N120      1.0  0.75423  0.29803  0.91802  1.0000
  H   H3787     1.0  0.84524  0.14935  0.80814  1.0000
  C   C2140     1.0  0.82877  0.14817  0.97370  1.0000
  H   H3788     1.0  0.54465  0.99813  0.80466  1.0000
  C   C2141     1.0  0.72121  0.27493  0.80197  1.0000
  S   S486      1.0  0.63743  0.28212  0.87835  1.0000
  C   C2142     1.0  0.67438  0.30668  0.95218  1.0000
  H   H3789     1.0  0.78244  0.25409  0.82393  1.0000
  C   C2143     1.0  0.92549  0.02085  0.77036  1.0000
  H   H3790     1.0  0.50595  0.08900  0.75920  1.0000
  H   H3791     1.0  0.84196  0.16347  0.77485  1.0000
  H   H3792     1.0  0.55887  0.27887  0.92653  1.0000
  H   H3793     1.0  0.50767  0.09871  0.81989  1.0000
  C   C2144     1.0  0.61951  0.22768  0.79987  1.0000
  H   H3794     1.0  0.72484  0.16654  0.81648  1.0000
  H   H3795     1.0  0.96363  0.00593  0.83134  1.0000
  H   H3796     1.0  0.89468  0.12813  0.77577  1.0000
  C   C2145     1.0  0.83483  0.14441  0.80230  1.0000
  C   C2146     1.0  0.75367  0.28329  0.85080  1.0000
  C   C2147     1.0  0.65350  0.31432  0.95274  1.0000
  H   H3797     1.0  0.89092  0.06321  0.77620  1.0000
  H   H3798     1.0  0.78080  0.24531  0.96485  1.0000
  S   S487      1.0  0.51062  0.02337  0.77189  1.0000
  H   H3799     1.0  0.72659  0.31872  0.92833  1.0000
  C   C2148     1.0  0.59452  0.12723  0.96180  1.0000
  C   C2149     1.0  0.65109  0.19710  0.75354  1.0000
  Fe  Fe246     1.0  0.68237  0.30877  0.90358  1.0000
  C   C2150     1.0  0.87961  0.09600  0.77250  1.0000
  H   H3800     1.0  0.68957  0.14325  0.79236  1.0000
  C   C2151     1.0  0.73697  0.17336  0.81770  1.0000
  C   C2152     1.0  0.64592  0.26679  0.86149  1.0000
  H   H3801     1.0  0.70389  0.20669  0.76574  1.0000
  C   C2153     1.0  0.58373  0.21578  0.98087  1.0000
  H   H3802     1.0  0.87936  0.09713  0.75759  1.0000
  H   H3803     1.0  0.83387  0.12837  0.80947  1.0000
  H   H3804     1.0  0.68716  0.23722  0.96377  1.0000
  H   H3805     1.0  0.60561  0.03989  0.76918  1.0000
  H   H3806     1.0  0.84379  0.15045  0.97296  1.0000
  H   H3807     1.0  0.70529  0.12657  0.96394  1.0000
  H   H3808     1.0  0.67961  0.21736  0.94500  1.0000
  C   C2154     1.0  0.63233  0.21079  0.78955  1.0000
  H   H3809     1.0  0.66220  0.17612  0.78647  1.0000
  C   C2155     1.0  0.74327  0.31520  0.92818  1.0000
  H   H3810     1.0  0.73904  0.26386  0.82278  1.0000
  H   H3811     1.0  0.77021  0.23493  0.80818  1.0000
  H   H3812     1.0  0.67569  0.19171  0.95538  1.0000
  C   C2156     1.0  0.87964  0.13767  0.78102  1.0000
  H   H3813     1.0  0.81372  0.17409  0.80147  1.0000
  C   C2157     1.0  0.61460  0.02390  0.77087  1.0000
  H   H3814     1.0  0.70600  0.21713  0.97276  1.0000
  H   H3815     1.0  0.56466  0.12113  0.79705  1.0000
  H   H3816     1.0  0.88509  0.13336  0.74711  1.0000
  C   C2158     1.0  0.82035  0.21680  0.93924  1.0000
  C   C2159     1.0  0.83819  0.21960  0.92220  1.0000
  H   H3817     1.0  0.80499  0.25336  0.95455  1.0000
  H   H3818     1.0  0.81383  0.20438  0.93816  1.0000
  H   H3819     1.0  0.80847  0.23100  0.93801  1.0000
  H   H3820     1.0  0.85017  0.20531  0.92242  1.0000
  H   H3821     1.0  0.83263  0.22319  0.90894  1.0000
  H   H3822     1.0  0.84496  0.23237  0.92214  1.0000
  C   C2160     1.0  0.69540  0.21996  0.75690  1.0000
  C   C2161     1.0  0.58524  0.09104  0.81813  1.0000
  H   H3823     1.0  0.69856  0.21525  0.88913  1.0000
  H   H3824     1.0  0.70066  0.19708  0.95140  1.0000
  H   H3825     1.0  0.53864  0.11532  0.83991  1.0000
  C   C2162     1.0  0.52920  0.05381  0.79407  1.0000
  H   H3826     1.0  0.84735  0.10924  0.77936  1.0000
  H   H3827     1.0  0.58339  0.16827  0.96610  1.0000
  H   H3828     1.0  0.78945  0.28394  0.89015  1.0000
  H   H3829     1.0  0.57669  0.20701  0.97503  1.0000
  H   H3830     1.0  0.71414  0.23545  0.81828  1.0000
  H   H3831     1.0  0.86080  0.10753  0.79686  1.0000
  C   C2163     1.0  0.95807  0.00022  0.78781  1.0000
  C   C2164     1.0  0.63584  0.25119  0.86325  1.0000
  H   H3832     1.0  0.81806  0.29222  0.89825  1.0000
  H   H3833     1.0  0.80526  0.27903  0.84141  1.0000
  S   S488      1.0  0.68942  0.28415  0.88726  1.0000
  N   N121      1.0  0.86305  0.13412  0.77370  1.0000
  H   H3834     1.0  0.58715  0.07756  0.83002  1.0000
  H   H3835     1.0  0.91240  0.15053  0.78445  1.0000
  H   H3836     1.0  0.60740  0.10766  0.79664  1.0000
  H   H3837     1.0  0.60617  0.22227  0.81019  1.0000
  H   H3838     1.0  0.73679  0.26357  0.87346  1.0000
  H   H3839     1.0  0.74625  0.16170  0.82713  1.0000
  H   H3840     1.0  0.62270  0.24889  0.87466  1.0000
  H   H3841     1.0  0.61957  0.01961  0.78446  1.0000
  N   N122      1.0  0.73735  0.22150  0.83477  1.0000
  H   H3842     1.0  0.77856  0.28093  0.96637  1.0000
  H   H3843     1.0  0.57783  0.24409  0.96103  1.0000
  C   C2165     1.0  0.79103  0.27909  0.90506  1.0000
  H   H3844     1.0  0.68709  0.23150  0.76551  1.0000
  C   C2166     1.0  0.81347  0.15763  0.80734  1.0000
  H   H3845     1.0  0.79850  0.18808  0.97089  1.0000
  H   H3846     1.0  0.63711  0.19726  0.80038  1.0000
  C   C2167     1.0  0.66782  0.09843  0.96319  1.0000
  C   C2168     1.0  0.57731  0.11464  0.84006  1.0000
  H   H3847     1.0  0.52122  0.09419  0.86820  1.0000
  H   H3848     1.0  0.66037  0.22063  0.78393  1.0000
  C   C2169     1.0  0.61975  0.07564  0.79960  1.0000
  C   C2170     1.0  0.71379  0.13718  0.96558  1.0000
  C   C2171     1.0  0.86829  0.13813  0.75230  1.0000
  H   H3849     1.0  0.71841  0.20363  0.81587  1.0000
  C   C2172     1.0  0.55000  0.10285  0.83381  1.0000
  H   H3850     1.0  0.77537  0.13938  0.97618  1.0000
  C   C2173     1.0  0.71952  0.15114  0.94627  1.0000
  H   H3851     1.0  0.65963  0.26859  0.97752  1.0000
  H   H3852     1.0  0.61377  0.24157  0.78971  1.0000
  C   C2174     1.0  0.55125  0.16350  0.79581  1.0000
  C   C2175     1.0  0.68055  0.21324  0.74888  1.0000
  H   H3853     1.0  0.72555  0.23521  0.97660  1.0000
  H   H3854     1.0  0.54520  0.07482  0.77184  1.0000
  C   C2176     1.0  0.75579  0.22586  0.83856  1.0000
  H   H3855     1.0  0.58557  0.10063  0.84847  1.0000
  H   H3856     1.0  0.77082  0.31690  0.85991  1.0000
  C   C2177     1.0  0.52840  0.08131  0.86090  1.0000
  C   C2178     1.0  0.59139  0.23330  0.96561  1.0000
  H   H3857     1.0  0.57381  0.28285  0.90244  1.0000
  C   C2179     1.0  0.79387  0.24908  0.96792  1.0000
  H   H3858     1.0  0.78303  0.21095  0.82049  1.0000
  C   C2180     1.0  0.68921  0.16691  0.76643  1.0000
  H   H3859     1.0  0.62081  0.06131  0.81070  1.0000
  N   N123      1.0  0.57040  0.10908  0.82512  1.0000
  C   C2181     1.0  0.79037  0.27550  0.84833  1.0000
  H   H3860     1.0  0.63548  0.07812  0.79266  1.0000
  S   S489      1.0  0.73247  0.29841  0.84170  1.0000
  H   H3861     1.0  0.53489  0.14069  0.81373  1.0000
  C   C2182     1.0  0.62961  0.11067  0.96480  1.0000
  H   H3862     1.0  0.70549  0.15961  0.94104  1.0000
  H   H3863     1.0  0.72755  0.16247  0.94731  1.0000
  H   H3864     1.0  0.72952  0.14211  0.93581  1.0000
  C   C2183     1.0  0.86168  0.11186  0.78134  1.0000
  H   H3865     1.0  0.71817  0.24881  0.85962  1.0000
  H   H3866     1.0  0.69778  0.29745  0.96822  1.0000
  C   C2184     1.0  0.71869  0.23256  0.86673  1.0000
  H   H3867     1.0  0.50106  0.15352  0.73923  1.0000
  H   H3868     1.0  0.70822  0.27200  0.79799  1.0000
  C   C2185     1.0  0.59980  0.13220  0.84912  1.0000
  H   H3869     1.0  0.54928  0.14930  0.82540  1.0000
  H   H3870     1.0  0.73499  0.27331  0.79031  1.0000
  H   H3871     1.0  0.62801  0.11364  0.89679  1.0000
  H   H3872     1.0  0.61012  0.11754  0.85398  1.0000
  H   H3873     1.0  0.60889  0.14435  0.84390  1.0000
  H   H3874     1.0  0.58731  0.13616  0.86121  1.0000
  N   N124      1.0  0.61607  0.24123  0.93295  1.0000
  C   C2186     1.0  0.60708  0.22524  0.94876  1.0000
  C   C2187     1.0  0.62795  0.23148  0.91654  1.0000
  C   C2188     1.0  0.62969  0.24948  0.94017  1.0000
  C   C2189     1.0  0.59960  0.25871  0.92626  1.0000
  C   C2190     1.0  0.58299  0.25273  0.91994  1.0000
  C   C2191     1.0  0.64170  0.26492  0.92534  1.0000
  C   C2192     1.0  0.64782  0.21556  0.91943  1.0000
  C   C2193     1.0  0.65711  0.20593  0.90225  1.0000
  C   C2194     1.0  0.65541  0.27157  0.93412  1.0000
  H   H3875     1.0  0.61944  0.21362  0.95482  1.0000
  H   H3876     1.0  0.59966  0.21641  0.94330  1.0000
  H   H3877     1.0  0.61822  0.22358  0.91271  1.0000
  H   H3878     1.0  0.63214  0.24334  0.90371  1.0000
  H   H3879     1.0  0.64081  0.23675  0.94689  1.0000
  H   H3880     1.0  0.62050  0.25760  0.95156  1.0000
  H   H3881     1.0  0.60646  0.26960  0.91378  1.0000
  H   H3882     1.0  0.57513  0.24168  0.93134  1.0000
  H   H3883     1.0  0.58986  0.24579  0.90740  1.0000
  H   H3884     1.0  0.63107  0.27898  0.91987  1.0000
  H   H3885     1.0  0.65158  0.25832  0.91326  1.0000
  H   H3886     1.0  0.65944  0.22274  0.92112  1.0000
  H   H3887     1.0  0.64482  0.20315  0.93203  1.0000
  H   H3888     1.0  0.64592  0.19892  0.89962  1.0000
  H   H3889     1.0  0.66149  0.21764  0.88940  1.0000
  H   H3890     1.0  0.67082  0.19386  0.90469  1.0000
  S   S490      1.0  0.59755  0.16654  0.75350  1.0000
  H   H3891     1.0  0.64624  0.27834  0.94632  1.0000
  H   H3892     1.0  0.66765  0.25853  0.93848  1.0000
  H   H3893     1.0  0.66270  0.28352  0.92360  1.0000
  N   N125      1.0  0.60968  0.10695  0.96346  1.0000
  C   C2195     1.0  0.61205  0.09908  0.94603  1.0000
  C   C2196     1.0  0.76333  0.08668  0.98674  1.0000
  C   C2197     1.0  0.78560  0.26799  0.97651  1.0000
  H   H3894     1.0  0.89462  0.09833  0.77272  1.0000
  C   C2198     1.0  0.55007  0.08314  0.84973  1.0000
  C   C2199     1.0  0.62033  0.11286  0.92681  1.0000
  C   C2200     1.0  0.60100  0.09247  0.98111  1.0000
  H   H3895     1.0  0.55671  0.06941  0.84350  1.0000
  H   H3896     1.0  0.71084  0.13838  0.77307  1.0000
  C   C2201     1.0  0.62228  0.10329  0.91027  1.0000
  C   C2202     1.0  0.76932  0.25392  0.87215  1.0000
  H   H3897     1.0  0.59700  0.09672  0.94548  1.0000
  H   H3898     1.0  0.62236  0.08381  0.94653  1.0000
  H   H3899     1.0  0.73049  0.28310  0.93802  1.0000
  H   H3900     1.0  0.99070  0.13519  0.73881  1.0000
  H   H3901     1.0  0.58097  0.12608  0.95728  1.0000
  H   H3902     1.0  0.60145  0.13912  0.95063  1.0000
  H   H3903     1.0  0.63465  0.12297  0.95283  1.0000
  N   N126      1.0  0.66464  0.20255  0.76327  1.0000
  H   H3904     1.0  0.63802  0.21013  0.75088  1.0000
  H   H3905     1.0  0.87686  0.13245  0.79665  1.0000
  H   H3906     1.0  0.60990  0.12805  0.92440  1.0000
  H   H3907     1.0  0.63573  0.11508  0.92618  1.0000
  N   N127      1.0  0.58169  0.00142  0.75023  1.0000
  C   C2203     1.0  0.60728  0.09390  0.80823  1.0000
  C   C2204     1.0  0.73315  0.12480  0.97301  1.0000
  Fe  Fe247     1.0  0.55804  0.11582  0.75832  1.0000
  H   H3908     1.0  0.83057  0.14351  0.77512  1.0000
  H   H3909     1.0  0.60027  0.06537  0.97203  1.0000
  C   C2205     1.0  0.70055  0.15050  0.78031  1.0000
  H   H3910     1.0  0.63330  0.08835  0.91137  1.0000
  H   H3911     1.0  0.57898  0.08633  0.80822  1.0000
  C   C2206     1.0  0.89768  0.16176  0.78681  1.0000
  C   C2207     1.0  0.78961  0.23770  0.82442  1.0000
  H   H3912     1.0  0.75212  0.18942  0.83919  1.0000
  H   H3913     1.0  0.70558  0.22150  0.84931  1.0000
  C   C2208     1.0  0.50874  0.06709  0.82146  1.0000
  H   H3914     1.0  0.91277  0.02880  0.76370  1.0000
  H   H3915     1.0  0.73663  0.23459  0.92288  1.0000
  H   H3916     1.0  0.72151  0.23457  0.74704  1.0000
  H   H3917     1.0  0.80358  0.23672  0.81289  1.0000
  H   H3918     1.0  0.78226  0.30912  0.91172  1.0000
  H   H3919     1.0  0.75892  0.25942  0.90847  1.0000
  H   H3920     1.0  0.60408  0.12682  0.82155  1.0000
  C   C2209     1.0  0.82750  0.21076  0.95818  1.0000
  H   H3921     1.0  0.78637  0.21349  0.96253  1.0000
  H   H3922     1.0  0.83736  0.19515  0.95824  1.0000
  C   C2210     1.0  0.54968  0.14489  0.81223  1.0000
  H   H3923     1.0  0.61273  0.07391  0.78871  1.0000
  H   H3924     1.0  0.56391  0.12093  0.85048  1.0000
  H   H3925     1.0  0.55180  0.15949  0.78236  1.0000
  H   H3926     1.0  0.76794  0.24064  0.88360  1.0000
  C   C2211     1.0  0.75173  0.26677  0.86633  1.0000
  H   H3927     1.0  0.83791  0.22085  0.95731  1.0000
  H   H3928     1.0  0.74376  0.13516  0.97072  1.0000
  C   C2212     1.0  0.56305  0.99949  0.76629  1.0000
  H   H3929     1.0  0.64497  0.08158  0.97993  1.0000
  C   C2213     1.0  0.74427  0.20133  0.82866  1.0000
  C   C2214     1.0  0.59111  0.13066  0.83315  1.0000
  S   S491      1.0  0.81074  0.24348  0.87087  1.0000
  C   C2215     1.0  0.67420  0.18379  0.77613  1.0000
  C   C2216     1.0  0.79022  0.14181  0.97558  1.0000
  H   H3930     1.0  0.72271  0.24880  0.94086  1.0000
  H   H3931     1.0  0.53771  0.17598  0.79846  1.0000
  C   C2217     1.0  0.72081  0.21907  0.85271  1.0000
  H   H3932     1.0  0.61531  0.09500  0.81863  1.0000
  H   H3933     1.0  0.73281  0.30599  0.89989  1.0000
  C   C2218     1.0  0.72734  0.19251  0.82584  1.0000
  H   H3934     1.0  0.62866  0.23168  0.80776  1.0000
  H   H3935     1.0  0.51129  0.13598  0.75773  1.0000
  H   H3936     1.0  0.71211  0.26384  0.83184  1.0000
  H   H3937     1.0  0.71657  0.18821  0.83950  1.0000
  C   C2219     1.0  0.73788  0.24480  0.93138  1.0000
  H   H3938     1.0  0.73244  0.27155  0.90962  1.0000
  H   H3939     1.0  0.79423  0.23070  0.83812  1.0000
  C   C2220     1.0  0.56761  0.12662  0.80835  1.0000
  H   H3940     1.0  0.60637  0.01790  0.74022  1.0000
  H   H3941     1.0  0.72546  0.27088  0.97526  1.0000
  H   H3942     1.0  0.74943  0.23635  0.93995  1.0000
  H   H3943     1.0  0.62754  0.11664  0.97757  1.0000
  H   H3944     1.0  0.73193  0.22706  0.87370  1.0000
  H   H3945     1.0  0.75715  0.29277  0.89013  1.0000
  H   H3946     1.0  0.70996  0.15718  0.78578  1.0000
  C   C2221     1.0  0.68165  0.30296  0.96864  1.0000
  H   H3947     1.0  0.75549  0.26993  0.93985  1.0000
  H   H3948     1.0  0.75580  0.20262  0.81504  1.0000
  C   C2222     1.0  0.74428  0.26413  0.91812  1.0000
  H   H3949     1.0  0.76084  0.21391  0.85057  1.0000
  S   S492      1.0  0.53292  0.11311  0.78460  1.0000
  S   S493      1.0  0.69193  0.30075  0.93156  1.0000
  H   H3950     1.0  0.81634  0.27179  0.91929  1.0000
  H   H3951     1.0  0.78000  0.28861  0.93141  1.0000
  C   C2223     1.0  0.78861  0.25856  0.86336  1.0000
  C   C2224     1.0  0.77468  0.22674  0.82173  1.0000
  C   C2225     1.0  0.74614  0.27898  0.92932  1.0000
  H   H3952     1.0  0.73283  0.32469  0.97356  1.0000
  H   H3953     1.0  0.68054  0.15918  0.76118  1.0000
  H   H3954     1.0  0.86880  0.17104  0.77883  1.0000
  H   H3955     1.0  0.54363  0.10055  0.82270  1.0000
  C   C2226     1.0  0.79313  0.20345  0.97444  1.0000
  C   C2227     1.0  0.88321  0.15973  0.77572  1.0000
  C   C2228     1.0  0.58609  0.13598  0.97996  1.0000
  H   H3956     1.0  0.55514  0.26697  0.90965  1.0000
  C   C2229     1.0  0.90155  0.99434  0.82473  1.0000
  H   H3957     1.0  0.68201  0.18816  0.78497  1.0000
  H   H3958     1.0  0.62224  0.20702  0.78250  1.0000
  C   C2230     1.0  0.52719  0.08890  0.79496  1.0000
  H   H3959     1.0  0.66686  0.10649  0.97431  1.0000
  C   C2231     1.0  0.63992  0.31772  0.96985  1.0000
  H   H3960     1.0  0.54807  0.03302  0.74449  1.0000
  H   H3961     1.0  0.86432  0.17198  0.74677  1.0000
  C   C2232     1.0  0.68396  0.20324  0.95556  1.0000
  H   H3962     1.0  0.82322  0.26605  0.89617  1.0000
  C   C2233     1.0  0.51397  0.08611  0.81279  1.0000
  H   H3963     1.0  0.56069  0.15837  0.96963  1.0000
  H   H3964     1.0  0.62375  0.32344  0.97028  1.0000
  C   C2234     1.0  0.84236  0.14692  0.78057  1.0000
  H   H3965     1.0  0.76912  0.09458  0.97200  1.0000
  C   C2235     1.0  0.74948  0.30459  0.89857  1.0000
  H   H3966     1.0  0.58881  0.00991  0.78333  1.0000
  H   H3967     1.0  0.87266  0.11098  0.97256  1.0000
  H   H3968     1.0  0.74113  0.11418  0.96335  1.0000
  H   H3969     1.0  0.86124  0.12854  0.74732  1.0000
  C   C2236     1.0  0.64769  0.09198  0.96579  1.0000
  H   H3970     1.0  0.86349  0.07075  0.78310  1.0000
  S   S494      1.0  0.92994  0.12978  0.74132  1.0000
  H   H3971     1.0  0.68043  0.08470  0.96422  1.0000
  C   C2237     1.0  0.51606  0.05101  0.81200  1.0000
  H   H3972     1.0  0.62440  0.06416  0.97686  1.0000
  C   C2238     1.0  0.81351  0.27725  0.90477  1.0000
  H   H3973     1.0  0.89060  0.15918  0.80218  1.0000
  H   H3974     1.0  0.95817  0.16023  0.74303  1.0000
  H   H3975     1.0  0.89060  0.16358  0.76048  1.0000
  C   C2239     1.0  0.77687  0.29448  0.91699  1.0000
  H   H3976     1.0  0.70329  0.14685  0.97524  1.0000
  H   H3977     1.0  0.92614  0.08752  0.74912  1.0000
  C   C2240     1.0  0.59345  0.01556  0.75257  1.0000
  H   H3978     1.0  0.85282  0.19604  0.98172  1.0000
  S   S495      1.0  0.65147  0.32317  0.89677  1.0000
  C   C2241     1.0  0.71122  0.22973  0.74094  1.0000
  H   H3979     1.0  0.81823  0.23608  0.98243  1.0000
  H   H3980     1.0  0.64604  0.23250  0.76607  1.0000
  H   H3981     1.0  0.69030  0.20358  0.73892  1.0000
  C   C2242     1.0  0.74577  0.31154  0.94874  1.0000
  C   C2243     1.0  0.75457  0.32544  0.88653  1.0000
  H   H3982     1.0  0.55039  0.99727  0.76117  1.0000
  C   C2244     1.0  0.57358  0.15781  0.97589  1.0000
  H   H3983     1.0  0.61152  0.99367  0.77234  1.0000
  H   H3984     1.0  0.88477  0.99571  0.82997  1.0000
  N   N128      1.0  0.81107  0.21056  0.97624  1.0000
  H   H3985     1.0  0.62295  0.27685  0.97901  1.0000
  H   H3986     1.0  0.65224  0.24844  0.97185  1.0000
  H   H3987     1.0  0.67160  0.10867  0.94909  1.0000
  H   H3988     1.0  0.59837  0.24120  0.97235  1.0000
  H   H3989     1.0  0.76149  0.31251  0.94861  1.0000
  H   H3990     1.0  0.67280  0.22712  0.73988  1.0000
  C   C2245     1.0  0.67835  0.20764  0.97535  1.0000
  C   C2246     1.0  0.50428  0.17517  0.76223  1.0000
  H   H3991     1.0  0.58399  0.09559  0.98358  1.0000
  S   S496      1.0  0.67437  0.32065  0.85230  1.0000
  H   H3992     1.0  0.69218  0.26000  0.97875  1.0000
  C   C2247     1.0  0.60769  0.06920  0.98154  1.0000
  H   H3993     1.0  0.64479  0.16736  0.73752  1.0000
  H   H3994     1.0  0.97351  0.99508  0.85223  1.0000
  H   H3995     1.0  0.49842  0.06502  0.83520  1.0000
  H   H3996     1.0  0.79198  0.06428  0.98619  1.0000
  H   H3997     1.0  0.72198  0.08995  0.98345  1.0000
  C   C2248     1.0  0.65144  0.25580  0.98337  1.0000
  C   C2249     1.0  0.51116  0.10110  0.74703  1.0000
  H   H3998     1.0  0.52235  0.10709  0.75074  1.0000
  H   H3999     1.0  0.49823  0.18686  0.77099  1.0000
  H   H4000     1.0  0.59859  0.13625  0.98619  1.0000
  H   H4001     1.0  0.75501  0.07533  0.98634  1.0000
  H   H4002     1.0  0.68312  0.19306  0.98522  1.0000
  H   H4003     1.0  0.74326  0.32371  0.86286  1.0000
  C   C2250     1.0  0.49674  0.14522  0.75413  1.0000
  C   C2251     1.0  0.64719  0.31355  0.98641  1.0000
  C   C2252     1.0  0.66814  0.30635  0.98568  1.0000
  H   H4004     1.0  0.76377  0.17845  0.98645  1.0000
  C   C2253     1.0  0.97458  0.99308  0.83786  1.0000
  H   H4005     1.0  0.59661  0.20542  0.98692  1.0000
  Fe  Fe248     1.0  0.59417  0.61444  0.18395  1.0000
  S   S497      1.0  0.62144  0.59183  0.17305  1.0000
  C   C2254     1.0  0.64845  0.63801  0.11095  1.0000
  Fe  Fe249     1.0  0.56980  0.61198  0.15753  1.0000
  S   S498      1.0  0.59513  0.58971  0.14359  1.0000
  S   S499      1.0  0.53908  0.62440  0.14996  1.0000
  Fe  Fe250     1.0  0.59869  0.57417  0.17307  1.0000
  S   S500      1.0  0.60438  0.53979  0.18255  1.0000
  Fe  Fe251     1.0  0.61596  0.60899  0.14437  1.0000
  S   S501      1.0  0.64430  0.61303  0.12147  1.0000
  S   S502      1.0  0.57177  0.59507  0.18712  1.0000
  H   H4006     1.0  0.51001  0.50694  0.11259  1.0000
  C   C2255     1.0  0.65112  0.65279  0.20067  1.0000
  C   C2256     1.0  0.51990  0.57068  0.16739  1.0000
  H   H4007     1.0  0.81874  0.59481  0.17934  1.0000
  C   C2257     1.0  0.58881  0.38695  0.05875  1.0000
  C   C2258     1.0  0.63260  0.65523  0.11238  1.0000
  H   H4008     1.0  0.92351  0.52788  0.21594  1.0000
  C   C2259     1.0  0.63475  0.55486  0.22449  1.0000
  H   H4009     1.0  0.51676  0.65205  0.18460  1.0000
  H   H4010     1.0  0.55430  0.37389  0.21714  1.0000
  Fe  Fe252     1.0  0.57635  0.46124  0.14589  1.0000
  S   S503      1.0  0.60668  0.43936  0.14154  1.0000
  S   S504      1.0  0.56945  0.49563  0.13922  1.0000
  Fe  Fe253     1.0  0.55201  0.42800  0.15898  1.0000
  S   S505      1.0  0.57991  0.40283  0.15615  1.0000
  S   S506      1.0  0.51898  0.42613  0.17118  1.0000
  Fe  Fe254     1.0  0.59334  0.42023  0.16916  1.0000
  S   S507      1.0  0.61250  0.39963  0.18946  1.0000
  Fe  Fe255     1.0  0.59153  0.42341  0.12874  1.0000
  S   S508      1.0  0.60976  0.41343  0.10165  1.0000
  S   S509      1.0  0.56431  0.44344  0.17463  1.0000
  S   S510      1.0  0.56237  0.44719  0.13049  1.0000
  C   C2260     1.0  0.51161  0.48088  0.16996  1.0000
  Fe  Fe256     1.0  0.93549  0.60282  0.18380  1.0000
  S   S511      1.0  0.59050  0.63268  0.20543  1.0000
  S   S512      1.0  0.95075  0.61251  0.15345  1.0000
  H   H4011     1.0  0.66283  0.38766  0.02191  1.0000
  H   H4012     1.0  0.76230  0.64779  0.99891  1.0000
  H   H4013     1.0  0.51429  0.46473  0.13983  1.0000
  H   H4014     1.0  0.96240  0.57824  0.12822  1.0000
  C   C2261     1.0  0.91119  0.56947  0.21634  1.0000
  H   H4015     1.0  0.51226  0.56300  0.10416  1.0000
  H   H4016     1.0  0.67268  0.36874  0.19437  1.0000
  C   C2262     1.0  0.96904  0.55708  0.15400  1.0000
  C   C2263     1.0  0.50790  0.58403  0.21040  1.0000
  C   C2264     1.0  0.61299  0.38788  0.10027  1.0000
  C   C2265     1.0  0.60016  0.37537  0.11290  1.0000
  C   C2266     1.0  0.60327  0.35492  0.11179  1.0000
  C   C2267     1.0  0.61930  0.34679  0.09815  1.0000
  C   C2268     1.0  0.63215  0.35928  0.08546  1.0000
  C   C2269     1.0  0.62888  0.37986  0.08643  1.0000
  H   H4017     1.0  0.58775  0.38150  0.12346  1.0000
  H   H4018     1.0  0.80547  0.63970  0.04712  1.0000
  H   H4019     1.0  0.64477  0.35298  0.07515  1.0000
  H   H4020     1.0  0.63890  0.38949  0.07666  1.0000
  C   C2270     1.0  0.63105  0.38496  0.03199  1.0000
  C   C2271     1.0  0.91616  0.65804  0.11823  1.0000
  C   C2272     1.0  0.61972  0.40544  0.20769  1.0000
  H   H4021     1.0  0.49859  0.36595  0.18647  1.0000
  C   C2273     1.0  0.85129  0.61435  0.16157  1.0000
  H   H4022     1.0  0.50420  0.48735  0.19809  1.0000
  H   H4023     1.0  0.60636  0.43774  0.20261  1.0000
  H   H4024     1.0  0.56805  0.37828  0.01715  1.0000
  H   H4025     1.0  0.49629  0.35254  0.21996  1.0000
  C   C2274     1.0  0.51306  0.40934  0.14431  1.0000
  C   C2275     1.0  0.50471  0.42272  0.15668  1.0000
  H   H4026     1.0  0.56403  0.42500  0.00720  1.0000
  C   C2276     1.0  0.49961  0.57685  0.16520  1.0000
  H   H4027     1.0  0.50672  0.39399  0.12589  1.0000
  H   H4028     1.0  0.52904  0.40184  0.14257  1.0000
  C   C2277     1.0  0.78687  0.61875  0.01836  1.0000
  H   H4029     1.0  0.62726  0.38240  0.15750  1.0000
  C   C2278     1.0  0.59326  0.52744  0.17171  1.0000
  C   C2279     1.0  0.59734  0.50600  0.17533  1.0000
  C   C2280     1.0  0.58947  0.49599  0.16594  1.0000
  C   C2281     1.0  0.57770  0.50744  0.15275  1.0000
  C   C2282     1.0  0.57318  0.52882  0.14953  1.0000
  C   C2283     1.0  0.58088  0.53876  0.15904  1.0000
  H   H4030     1.0  0.60686  0.49714  0.18519  1.0000
  H   H4031     1.0  0.59296  0.47946  0.16853  1.0000
  H   H4032     1.0  0.56391  0.53775  0.13948  1.0000
  H   H4033     1.0  0.57731  0.55520  0.15643  1.0000
  C   C2284     1.0  0.52458  0.60567  0.15497  1.0000
  C   C2285     1.0  0.53233  0.58514  0.16245  1.0000
  C   C2286     1.0  0.57448  0.54055  0.23247  1.0000
  C   C2287     1.0  0.50039  0.40486  0.13493  1.0000
  C   C2288     1.0  0.93523  0.51460  0.22089  1.0000
  H   H4034     1.0  0.68180  0.35873  0.14667  1.0000
  H   H4035     1.0  0.54772  0.58048  0.16476  1.0000
  H   H4036     1.0  0.52584  0.55487  0.17344  1.0000
  C   C2289     1.0  0.81640  0.64622  0.03451  1.0000
  C   C2290     1.0  0.49772  0.53173  0.13398  1.0000
  H   H4037     1.0  0.64724  0.38542  0.11541  1.0000
  C   C2291     1.0  0.56562  0.39471  0.06588  1.0000
  H   H4038     1.0  0.52457  0.58339  0.20502  1.0000
  C   C2292     1.0  0.68832  0.64892  0.02631  1.0000
  H   H4039     1.0  0.59080  0.34976  0.03528  1.0000
  H   H4040     1.0  0.66534  0.59892  0.17873  1.0000
  C   C2293     1.0  0.62551  0.61133  0.21811  1.0000
  C   C2294     1.0  0.60689  0.62528  0.22119  1.0000
  C   C2295     1.0  0.62965  0.36937  0.15091  1.0000
  H   H4041     1.0  0.95264  0.55740  0.16052  1.0000
  H   H4042     1.0  0.79152  0.60598  0.02997  1.0000
  H   H4043     1.0  0.63003  0.60457  0.20590  1.0000
  C   C2296     1.0  0.56138  0.40196  0.08426  1.0000
  H   H4044     1.0  0.49782  0.47445  0.17308  1.0000
  C   C2297     1.0  0.58903  0.34156  0.06548  1.0000
  H   H4045     1.0  0.51257  0.55186  0.21043  1.0000
  H   H4046     1.0  0.67813  0.65041  0.21118  1.0000
  C   C2298     1.0  0.61468  0.42509  0.21145  1.0000
  H   H4047     1.0  0.57638  0.40795  0.99111  1.0000
  C   C2299     1.0  0.65322  0.34598  0.13216  1.0000
  H   H4048     1.0  0.51958  0.46229  0.19620  1.0000
  H   H4049     1.0  0.67327  0.37677  0.11714  1.0000
  C   C2300     1.0  0.56478  0.48288  0.21861  1.0000
  S   S513      1.0  0.91842  0.63424  0.18729  1.0000
  H   H4050     1.0  0.54696  0.64685  0.20939  1.0000
  C   C2301     1.0  0.63862  0.60662  0.23064  1.0000
  C   C2302     1.0  0.56441  0.41019  0.00407  1.0000
  C   C2303     1.0  0.50464  0.61159  0.15206  1.0000
  C   C2304     1.0  0.66619  0.35647  0.15458  1.0000
  H   H4051     1.0  0.72402  0.62255  0.02021  1.0000
  H   H4052     1.0  0.51167  0.47778  0.09813  1.0000
  C   C2305     1.0  0.62048  0.42825  0.22684  1.0000
  S   S514      1.0  0.96187  0.60328  0.19514  1.0000
  H   H4053     1.0  0.98676  0.56451  0.21575  1.0000
  H   H4054     1.0  0.80431  0.65479  0.07753  1.0000
  H   H4055     1.0  0.55763  0.48981  0.23115  1.0000
  H   H4056     1.0  0.95942  0.63622  0.03783  1.0000
  C   C2306     1.0  0.62048  0.35237  0.16672  1.0000
  Fe  Fe257     1.0  0.97546  0.61651  0.16500  1.0000
  H   H4057     1.0  0.86111  0.65646  0.12739  1.0000
  H   H4058     1.0  0.85623  0.58957  0.14657  1.0000
  H   H4059     1.0  0.93152  0.51112  0.23656  1.0000
  H   H4060     1.0  0.63000  0.56141  0.21079  1.0000
  C   C2307     1.0  0.56858  0.39255  0.02079  1.0000
  H   H4061     1.0  0.65877  0.36548  0.04040  1.0000
  C   C2308     1.0  0.55940  0.53813  0.22226  1.0000
  H   H4062     1.0  0.95044  0.54323  0.18994  1.0000
  H   H4063     1.0  0.64232  0.63284  0.17773  1.0000
  H   H4064     1.0  0.59567  0.40067  0.05475  1.0000
  C   C2309     1.0  0.98963  0.54472  0.18689  1.0000
  H   H4065     1.0  0.95463  0.51852  0.18538  1.0000
  H   H4066     1.0  0.96511  0.55172  0.12818  1.0000
  C   C2310     1.0  0.55732  0.38955  0.21336  1.0000
  H   H4067     1.0  0.68230  0.62837  0.17126  1.0000
  C   C2311     1.0  0.98251  0.53583  0.16041  1.0000
  H   H4068     1.0  0.56684  0.52596  0.21417  1.0000
  H   H4069     1.0  0.63246  0.33956  0.17190  1.0000
  H   H4070     1.0  0.66513  0.60321  0.15396  1.0000
  H   H4071     1.0  0.68186  0.63259  0.14654  1.0000
  H   H4072     1.0  0.77177  0.60056  0.01024  1.0000
  C   C2312     1.0  0.50852  0.47612  0.12804  1.0000
  C   C2313     1.0  0.67769  0.36157  0.18192  1.0000
  C   C2314     1.0  0.66009  0.36665  0.17186  1.0000
  S   S515      1.0  0.59021  0.63301  0.15526  1.0000
  C   C2315     1.0  0.50487  0.56233  0.22026  1.0000
  C   C2316     1.0  0.51938  0.46867  0.10979  1.0000
  C   C2317     1.0  0.50883  0.50346  0.15892  1.0000
  H   H4073     1.0  0.50241  0.57175  0.12611  1.0000
  N   N129      1.0  0.49924  0.50901  0.14200  1.0000
  S   S516      1.0  0.91722  0.57852  0.19179  1.0000
  C   C2318     1.0  0.76799  0.61590  0.01360  1.0000
  H   H4074     1.0  0.65520  0.64796  0.22920  1.0000
  H   H4075     1.0  0.62278  0.35846  0.02840  1.0000
  H   H4076     1.0  0.60101  0.38587  0.01199  1.0000
  H   H4077     1.0  0.52874  0.49580  0.12625  1.0000
  H   H4078     1.0  0.90821  0.57636  0.13126  1.0000
  H   H4079     1.0  0.84114  0.64698  0.08997  1.0000
  H   H4080     1.0  0.61163  0.35906  0.17914  1.0000
  C   C2319     1.0  0.65753  0.38111  0.12550  1.0000
  H   H4081     1.0  0.82962  0.64773  0.03920  1.0000
  H   H4082     1.0  0.58407  0.34845  0.07806  1.0000
  H   H4083     1.0  0.82620  0.57550  0.16556  1.0000
  H   H4084     1.0  0.67557  0.41401  0.10431  1.0000
  H   H4085     1.0  0.50046  0.58897  0.19824  1.0000
  H   H4086     1.0  0.78339  0.63329  0.02312  1.0000
  C   C2320     1.0  0.84038  0.65215  0.10287  1.0000
  C   C2321     1.0  0.89786  0.59826  0.14960  1.0000
  C   C2322     1.0  0.85772  0.63162  0.99079  1.0000
  H   H4087     1.0  0.87987  0.60554  0.12869  1.0000
  C   C2323     1.0  0.65388  0.37541  0.02746  1.0000
  C   C2324     1.0  0.51217  0.49766  0.12679  1.0000
  H   H4088     1.0  0.69326  0.65672  0.03479  1.0000
  N   N130      1.0  0.64278  0.54105  0.11905  1.0000
  C   C2325     1.0  0.62399  0.55324  0.11163  1.0000
  C   C2326     1.0  0.64048  0.51925  0.12839  1.0000
  C   C2327     1.0  0.64436  0.55083  0.13406  1.0000
  C   C2328     1.0  0.66213  0.54149  0.10384  1.0000
  C   C2329     1.0  0.66291  0.53396  0.08613  1.0000
  C   C2330     1.0  0.62479  0.57555  0.10055  1.0000
  C   C2331     1.0  0.66169  0.53954  0.14490  1.0000
  C   C2332     1.0  0.62892  0.50924  0.11966  1.0000
  C   C2333     1.0  0.63203  0.48614  0.12749  1.0000
  C   C2334     1.0  0.68140  0.53884  0.07046  1.0000
  C   C2335     1.0  0.60510  0.58604  0.09353  1.0000
  C   C2336     1.0  0.66103  0.55014  0.16036  1.0000
  H   H4089     1.0  0.61026  0.55362  0.12355  1.0000
  H   H4090     1.0  0.62059  0.54585  0.10192  1.0000
  H   H4091     1.0  0.65577  0.50907  0.12916  1.0000
  H   H4092     1.0  0.63184  0.51826  0.14338  1.0000
  H   H4093     1.0  0.62965  0.55232  0.14478  1.0000
  H   H4094     1.0  0.64693  0.56665  0.12788  1.0000
  H   H4095     1.0  0.66538  0.55719  0.09927  1.0000
  H   H4096     1.0  0.67554  0.53171  0.10951  1.0000
  H   H4097     1.0  0.64908  0.54118  0.08026  1.0000
  H   H4098     1.0  0.66457  0.51710  0.08975  1.0000
  H   H4099     1.0  0.62666  0.58488  0.10945  1.0000
  H   H4100     1.0  0.63765  0.57592  0.08796  1.0000
  H   H4101     1.0  0.67695  0.53945  0.13521  1.0000
  H   H4102     1.0  0.66033  0.52353  0.15183  1.0000
  H   H4103     1.0  0.61225  0.51582  0.12318  1.0000
  H   H4104     1.0  0.63378  0.51182  0.10410  1.0000
  H   H4105     1.0  0.64822  0.47860  0.12275  1.0000
  H   H4106     1.0  0.62786  0.48259  0.14318  1.0000
  H   H4107     1.0  0.62212  0.47981  0.12227  1.0000
  H   H4108     1.0  0.68194  0.53282  0.05810  1.0000
  H   H4109     1.0  0.68028  0.55565  0.06580  1.0000
  H   H4110     1.0  0.69584  0.53162  0.07544  1.0000
  H   H4111     1.0  0.60322  0.57815  0.08336  1.0000
  H   H4112     1.0  0.59155  0.58607  0.10554  1.0000
  H   H4113     1.0  0.60577  0.60217  0.08627  1.0000
  H   H4114     1.0  0.66229  0.56635  0.15424  1.0000
  H   H4115     1.0  0.64658  0.54950  0.17124  1.0000
  H   H4116     1.0  0.67399  0.54225  0.16739  1.0000
  H   H4117     1.0  0.66107  0.43198  0.11891  1.0000
  H   H4118     1.0  0.98844  0.49664  0.18248  1.0000
  Fe  Fe258     1.0  0.94622  0.63586  0.19597  1.0000
  H   H4119     1.0  0.69103  0.36767  0.17231  1.0000
  H   H4120     1.0  0.85176  0.62079  0.00309  1.0000
  H   H4121     1.0  0.63476  0.37408  0.21617  1.0000
  C   C2337     1.0  0.70342  0.64847  0.00726  1.0000
  H   H4122     1.0  0.90544  0.60608  0.15587  1.0000
  H   H4123     1.0  0.54484  0.40876  0.08843  1.0000
  H   H4124     1.0  0.61991  0.37560  0.14029  1.0000
  C   C2338     1.0  0.52097  0.64727  0.19861  1.0000
  H   H4125     1.0  0.97368  0.56917  0.15787  1.0000
  H   H4126     1.0  0.64302  0.40606  0.14097  1.0000
  H   H4127     1.0  0.95970  0.64905  0.06528  1.0000
  H   H4128     1.0  0.72967  0.64688  0.01723  1.0000
  H   H4129     1.0  0.64812  0.42226  0.10676  1.0000
  H   H4130     1.0  0.83800  0.64809  0.13965  1.0000
  C   C2339     1.0  0.89190  0.56490  0.22502  1.0000
  H   H4131     1.0  0.56845  0.36237  0.04896  1.0000
  H   H4132     1.0  0.68906  0.59593  0.16134  1.0000
  C   C2340     1.0  0.60573  0.34383  0.16073  1.0000
  H   H4133     1.0  0.61361  0.33631  0.14870  1.0000
  H   H4134     1.0  0.51878  0.45236  0.11191  1.0000
  H   H4135     1.0  0.98743  0.56196  0.12509  1.0000
  H   H4136     1.0  0.95763  0.53081  0.22053  1.0000
  H   H4137     1.0  0.71082  0.60969  0.99484  1.0000
  H   H4138     1.0  0.55599  0.39511  0.03315  1.0000
  H   H4139     1.0  0.55360  0.64008  0.18656  1.0000
  C   C2341     1.0  0.98744  0.63413  0.20981  1.0000
  H   H4140     1.0  0.97788  0.52427  0.15563  1.0000
  H   H4141     1.0  0.64168  0.35029  0.12328  1.0000
  H   H4142     1.0  0.57534  0.41707  0.22093  1.0000
  H   H4143     1.0  0.56547  0.38886  0.09584  1.0000
  H   H4144     1.0  0.53111  0.48439  0.18658  1.0000
  C   C2342     1.0  0.49872  0.59867  0.22420  1.0000
  C   C2343     1.0  0.66810  0.64061  0.10080  1.0000
  H   H4145     1.0  0.74431  0.60088  0.00033  1.0000
  H   H4146     1.0  0.62742  0.39588  0.01895  1.0000
  C   C2344     1.0  0.91242  0.64449  0.08778  1.0000
  N   N131      1.0  0.65177  0.36335  0.14120  1.0000
  H   H4147     1.0  0.75556  0.61609  0.02649  1.0000
  H   H4148     1.0  0.67691  0.34990  0.10592  1.0000
  H   H4149     1.0  0.59284  0.35623  0.15664  1.0000
  C   C2345     1.0  0.88403  0.61408  0.13701  1.0000
  C   C2346     1.0  0.92582  0.56562  0.22712  1.0000
  C   C2347     1.0  0.72530  0.63732  0.00987  1.0000
  H   H4150     1.0  0.84233  0.57587  0.18043  1.0000
  H   H4151     1.0  0.55681  0.38267  0.06877  1.0000
  C   C2348     1.0  0.83201  0.58564  0.17101  1.0000
  C   C2349     1.0  0.97118  0.56249  0.13256  1.0000
  C   C2350     1.0  0.67318  0.60503  0.16404  1.0000
  H   H4152     1.0  0.54934  0.41084  0.00130  1.0000
  H   H4153     1.0  0.57349  0.38884  0.20562  1.0000
  H   H4154     1.0  0.62858  0.39369  0.04300  1.0000
  H   H4155     1.0  0.51142  0.55673  0.23306  1.0000
  H   H4156     1.0  0.87289  0.65513  0.18720  1.0000
  H   H4157     1.0  0.56101  0.49435  0.20585  1.0000
  H   H4158     1.0  0.84963  0.62135  0.11776  1.0000
  C   C2351     1.0  0.65757  0.40069  0.13146  1.0000
  H   H4159     1.0  0.64041  0.56630  0.22830  1.0000
  H   H4160     1.0  0.59328  0.34529  0.12162  1.0000
  C   C2352     1.0  0.51939  0.62459  0.20745  1.0000
  S   S517      1.0  0.94623  0.64838  0.22048  1.0000
  H   H4161     1.0  0.54713  0.39970  0.20396  1.0000
  H   H4162     1.0  0.52896  0.61794  0.21819  1.0000
  C   C2353     1.0  0.92804  0.63412  0.09742  1.0000
  H   H4163     1.0  0.94261  0.63344  0.11927  1.0000
  H   H4164     1.0  0.88901  0.58813  0.16112  1.0000
  H   H4165     1.0  0.57029  0.41371  0.08250  1.0000
  C   C2354     1.0  0.85443  0.63607  0.11460  1.0000
  H   H4166     1.0  0.53563  0.47008  0.10557  1.0000
  H   H4167     1.0  0.88062  0.56778  0.21669  1.0000
  H   H4168     1.0  0.87969  0.62781  0.16905  1.0000
  H   H4169     1.0  0.52454  0.50655  0.15463  1.0000
  H   H4170     1.0  0.64698  0.36103  0.18236  1.0000
  C   C2355     1.0  0.61789  0.36831  0.03899  1.0000
  H   H4171     1.0  0.56403  0.45779  0.20777  1.0000
  H   H4172     1.0  0.92413  0.57329  0.14741  1.0000
  C   C2356     1.0  0.54264  0.65023  0.19557  1.0000
  H   H4173     1.0  0.61729  0.65337  0.11983  1.0000
  H   H4174     1.0  0.68045  0.62738  0.09963  1.0000
  H   H4175     1.0  0.51076  0.65779  0.20758  1.0000
  C   C2357     1.0  0.58527  0.35775  0.04730  1.0000
  H   H4176     1.0  0.64748  0.54140  0.22286  1.0000
  H   H4177     1.0  0.93900  0.62114  0.09284  1.0000
  C   C2358     1.0  0.52890  0.36090  0.19044  1.0000
  C   C2359     1.0  0.85624  0.65517  0.16655  1.0000
  C   C2360     1.0  0.96062  0.52784  0.19168  1.0000
  H   H4178     1.0  0.65334  0.59634  0.22803  1.0000
  C   C2361     1.0  0.50655  0.37217  0.19382  1.0000
  C   C2362     1.0  0.84354  0.59959  0.15446  1.0000
  C   C2363     1.0  0.87271  0.63853  0.15742  1.0000
  C   C2364     1.0  0.67361  0.62753  0.16132  1.0000
  H   H4179     1.0  0.99087  0.52793  0.21629  1.0000
  H   H4180     1.0  0.59525  0.37709  0.07098  1.0000
  H   H4181     1.0  0.62257  0.35836  0.05202  1.0000
  H   H4182     1.0  0.61678  0.44335  0.22977  1.0000
  N   N132      1.0  0.59495  0.37608  0.04262  1.0000
  H   H4183     1.0  0.52708  0.61626  0.19586  1.0000
  H   H4184     1.0  0.55487  0.55254  0.21205  1.0000
  H   H4185     1.0  0.64513  0.63984  0.15300  1.0000
  C   C2365     1.0  0.51694  0.47868  0.18888  1.0000
  H   H4186     1.0  0.65548  0.38349  0.16789  1.0000
  H   H4187     1.0  0.65736  0.36624  0.01656  1.0000
  H   H4188     1.0  0.53067  0.53012  0.12102  1.0000
  H   H4189     1.0  0.98420  0.63105  0.19781  1.0000
  H   H4190     1.0  0.84432  0.64829  0.17770  1.0000
  H   H4191     1.0  0.50206  0.34754  0.13576  1.0000
  H   H4192     1.0  0.53022  0.34428  0.19674  1.0000
  S   S518      1.0  0.91096  0.63655  0.06816  1.0000
  C   C2366     1.0  0.66082  0.41825  0.11425  1.0000
  H   H4193     1.0  0.50625  0.38849  0.18731  1.0000
  C   C2367     1.0  0.92994  0.64092  0.11260  1.0000
  H   H4194     1.0  0.50792  0.59329  0.23523  1.0000
  C   C2368     1.0  0.85423  0.64262  0.13278  1.0000
  H   H4195     1.0  0.83262  0.60845  0.14538  1.0000
  C   C2369     1.0  0.87111  0.64291  0.99204  1.0000
  H   H4196     1.0  0.58168  0.47903  0.21694  1.0000
  H   H4197     1.0  0.49865  0.62742  0.14636  1.0000
  H   H4198     1.0  0.58838  0.54351  0.22155  1.0000
  Fe  Fe259     1.0  0.93543  0.64417  0.15755  1.0000
  H   H4199     1.0  0.53794  0.36726  0.19656  1.0000
  C   C2370     1.0  0.55342  0.39724  0.23139  1.0000
  S   S519      1.0  0.96147  0.64919  0.16651  1.0000
  C   C2371     1.0  0.58990  0.39063  0.02466  1.0000
  H   H4200     1.0  0.83731  0.62439  0.16810  1.0000
  H   H4201     1.0  0.55981  0.40802  0.05526  1.0000
  H   H4202     1.0  0.82426  0.65428  0.11100  1.0000
  C   C2372     1.0  0.65168  0.64069  0.16457  1.0000
  H   H4203     1.0  0.97669  0.55785  0.18956  1.0000
  C   C2373     1.0  0.63079  0.38926  0.21898  1.0000
  H   H4204     1.0  0.53544  0.36297  0.17498  1.0000
  H   H4205     1.0  0.52202  0.53941  0.14261  1.0000
  H   H4206     1.0  0.87551  0.64063  0.00524  1.0000
  H   H4207     1.0  0.89381  0.62412  0.12638  1.0000
  C   C2374     1.0  0.91478  0.58470  0.13797  1.0000
  C   C2375     1.0  0.51526  0.56180  0.11818  1.0000
  H   H4208     1.0  0.94082  0.56892  0.22043  1.0000
  H   H4209     1.0  0.82184  0.63553  0.02477  1.0000
  N   N133      1.0  0.86537  0.62707  0.14706  1.0000
  H   H4210     1.0  0.52462  0.47144  0.16172  1.0000
  C   C2376     1.0  0.51781  0.53964  0.12936  1.0000
  H   H4211     1.0  0.50668  0.37175  0.22270  1.0000
  H   H4212     1.0  0.68705  0.63316  0.03439  1.0000
  H   H4213     1.0  0.87010  0.63429  0.10547  1.0000
  H   H4214     1.0  0.69752  0.64141  0.99896  1.0000
  H   H4215     1.0  0.59167  0.40626  0.02411  1.0000
  H   H4216     1.0  0.88508  0.64608  0.14768  1.0000
  H   H4217     1.0  0.92484  0.59405  0.12684  1.0000
  C   C2377     1.0  0.55672  0.46381  0.22076  1.0000
  H   H4218     1.0  0.96758  0.50489  0.21756  1.0000
  H   H4219     1.0  0.54002  0.46857  0.22158  1.0000
  H   H4220     1.0  0.65478  0.63614  0.20129  1.0000
  H   H4221     1.0  0.67034  0.39778  0.13865  1.0000
  H   H4222     1.0  0.85864  0.60533  0.17354  1.0000
  H   H4223     1.0  0.60544  0.33413  0.06395  1.0000
  H   H4224     1.0  0.52948  0.56736  0.11598  1.0000
  H   H4225     1.0  0.93438  0.50118  0.21609  1.0000
  C   C2378     1.0  0.95669  0.51926  0.21335  1.0000
  H   H4226     1.0  0.54562  0.53374  0.23259  1.0000
  H   H4227     1.0  0.55140  0.42831  0.21522  1.0000
  H   H4228     1.0  0.49988  0.51343  0.16903  1.0000
  N   N134      1.0  0.98237  0.52909  0.18130  1.0000
  C   C2379     1.0  0.97169  0.64337  0.22282  1.0000
  H   H4229     1.0  0.91020  0.62482  0.23020  1.0000
  H   H4230     1.0  0.50453  0.40518  0.21979  1.0000
  H   H4231     1.0  0.67296  0.65754  0.02394  1.0000
  N   N135      1.0  0.49792  0.62112  0.21560  1.0000
  H   H4232     1.0  0.59654  0.57579  0.22852  1.0000
  H   H4233     1.0  0.98978  0.65148  0.10909  1.0000
  H   H4234     1.0  0.56355  0.57250  0.23082  1.0000
  C   C2380     1.0  0.55865  0.41863  0.22703  1.0000
  H   H4235     1.0  0.98356  0.64265  0.03565  1.0000
  C   C2381     1.0  0.49633  0.36911  0.21510  1.0000
  C   C2382     1.0  0.96706  0.64903  0.03585  1.0000
  H   H4236     1.0  0.96327  0.65747  0.12116  1.0000
  H   H4237     1.0  0.68237  0.34477  0.18694  1.0000
  H   H4238     1.0  0.66813  0.33970  0.16060  1.0000
  H   H4239     1.0  0.59930  0.33229  0.17275  1.0000
  N   N136      1.0  0.74165  0.63373  0.99232  1.0000
  C   C2383     1.0  0.67426  0.33856  0.11952  1.0000
  H   H4240     1.0  0.64940  0.33237  0.14318  1.0000
  C   C2384     1.0  0.66133  0.65627  0.21472  1.0000
  H   H4241     1.0  0.56039  0.33114  0.07209  1.0000
  H   H4242     1.0  0.68693  0.33620  0.12666  1.0000
  H   H4243     1.0  0.49576  0.62275  0.18705  1.0000
  C   C2385     1.0  0.63675  0.39245  0.23399  1.0000
  H   H4244     1.0  0.57881  0.44241  0.23520  1.0000
  H   H4245     1.0  0.52344  0.44224  0.23444  1.0000
  H   H4246     1.0  0.79989  0.61893  0.00587  1.0000
  C   C2386     1.0  0.76202  0.63276  0.99647  1.0000
  H   H4247     1.0  0.63439  0.65785  0.20558  1.0000
  C   C2387     1.0  0.74237  0.61367  0.98788  1.0000
  H   H4248     1.0  0.61302  0.53558  0.23642  1.0000
  H   H4249     1.0  0.67591  0.65875  0.17730  1.0000
  C   C2388     1.0  0.60110  0.63392  0.23708  1.0000
  C   C2389     1.0  0.51145  0.40796  0.31017  1.0000
  H   H4250     1.0  0.60955  0.42050  0.39909  1.0000
  C   C2390     1.0  0.61096  0.45716  0.38604  1.0000
  H   H4251     1.0  0.52247  0.46635  0.25316  1.0000
  H   H4252     1.0  0.64865  0.43170  0.41031  1.0000
  C   C2391     1.0  0.71582  0.33676  0.47134  1.0000
  H   H4253     1.0  0.92742  0.45783  0.43940  1.0000
  C   C2392     1.0  0.53395  0.46082  0.35734  1.0000
  H   H4254     1.0  0.61748  0.44783  0.37507  1.0000
  Fe  Fe260     1.0  0.62519  0.62784  0.32750  1.0000
  S   S520      1.0  0.64656  0.60096  0.31617  1.0000
  H   H4255     1.0  0.79328  0.33137  0.35676  1.0000
  Fe  Fe261     1.0  0.58855  0.62157  0.31587  1.0000
  S   S521      1.0  0.60686  0.59484  0.30344  1.0000
  S   S522      1.0  0.55503  0.63414  0.31535  1.0000
  Fe  Fe262     1.0  0.62028  0.58474  0.32908  1.0000
  S   S523      1.0  0.62309  0.55103  0.34273  1.0000
  Fe  Fe263     1.0  0.63161  0.61266  0.29128  1.0000
  S   S524      1.0  0.64942  0.60998  0.26182  1.0000
  S   S525      1.0  0.60001  0.61040  0.34276  1.0000
  S   S526      1.0  0.61219  0.64069  0.30126  1.0000
  Fe  Fe264     1.0  0.89527  0.34450  0.41862  1.0000
  S   S527      1.0  0.90427  0.36164  0.38868  1.0000
  H   H4256     1.0  0.89645  0.34438  0.33695  1.0000
  Fe  Fe265     1.0  0.86805  0.38201  0.43223  1.0000
  S   S528      1.0  0.87430  0.40303  0.40373  1.0000
  H   H4257     1.0  0.55134  0.54684  0.29007  1.0000
  Fe  Fe266     1.0  0.87111  0.37753  0.39266  1.0000
  S   S529      1.0  0.85321  0.38312  0.37050  1.0000
  Fe  Fe267     1.0  0.90686  0.38591  0.40177  1.0000
  S   S530      1.0  0.93161  0.40395  0.39218  1.0000
  H   H4258     1.0  0.84596  0.44986  0.42643  1.0000
  S   S531      1.0  0.90099  0.36733  0.43135  1.0000
  Fe  Fe268     1.0  0.74247  0.39846  0.40119  1.0000
  C   C2393     1.0  0.56556  0.55872  0.24241  1.0000
  S   S532      1.0  0.76046  0.42136  0.39995  1.0000
  Fe  Fe269     1.0  0.72283  0.37956  0.38107  1.0000
  S   S533      1.0  0.71629  0.38337  0.35256  1.0000
  Fe  Fe270     1.0  0.70246  0.38462  0.42077  1.0000
  S   S534      1.0  0.71175  0.40698  0.39398  1.0000
  S   S535      1.0  0.75473  0.37276  0.38596  1.0000
  Fe  Fe271     1.0  0.61458  0.47255  0.29128  1.0000
  S   S536      1.0  0.63801  0.44338  0.29440  1.0000
  S   S537      1.0  0.62514  0.50244  0.28210  1.0000
  Fe  Fe272     1.0  0.57952  0.45034  0.30113  1.0000
  S   S538      1.0  0.60014  0.41923  0.30543  1.0000
  S   S539      1.0  0.54510  0.45778  0.30519  1.0000
  Fe  Fe273     1.0  0.61548  0.43247  0.32054  1.0000
  H   H4259     1.0  0.64721  0.43243  0.38718  1.0000
  Fe  Fe274     1.0  0.62084  0.43291  0.27883  1.0000
  S   S540      1.0  0.63985  0.41447  0.25721  1.0000
  S   S541      1.0  0.59303  0.46257  0.31844  1.0000
  S   S542      1.0  0.59914  0.46312  0.27341  1.0000
  S   S543      1.0  0.92259  0.49860  0.31673  1.0000
  S   S544      1.0  0.94560  0.49746  0.27206  1.0000
  Fe  Fe275     1.0  0.92412  0.52014  0.28837  1.0000
  S   S545      1.0  0.89610  0.54055  0.27925  1.0000
  Fe  Fe276     1.0  0.94636  0.47690  0.30069  1.0000
  S   S546      1.0  0.94381  0.44438  0.30526  1.0000
  C   C2394     1.0  0.80398  0.35690  0.42826  1.0000
  H   H4260     1.0  0.67949  0.38961  0.38191  1.0000
  H   H4261     1.0  0.51973  0.52456  0.32818  1.0000
  C   C2395     1.0  0.69025  0.39238  0.35182  1.0000
  C   C2396     1.0  0.67521  0.39414  0.36838  1.0000
  C   C2397     1.0  0.64880  0.40753  0.34998  1.0000
  C   C2398     1.0  0.66383  0.40574  0.33345  1.0000
  C   C2399     1.0  0.68447  0.39793  0.33441  1.0000
  H   H4262     1.0  0.65955  0.41001  0.31995  1.0000
  H   H4263     1.0  0.69599  0.39614  0.32164  1.0000
  C   C2400     1.0  0.93606  0.41444  0.36786  1.0000
  C   C2401     1.0  0.93242  0.40488  0.35541  1.0000
  C   C2402     1.0  0.93585  0.41362  0.33598  1.0000
  C   C2403     1.0  0.94200  0.43239  0.32914  1.0000
  C   C2404     1.0  0.94559  0.44197  0.34159  1.0000
  C   C2405     1.0  0.94305  0.43277  0.36088  1.0000
  H   H4264     1.0  0.92733  0.39058  0.36068  1.0000
  H   H4265     1.0  0.93329  0.40608  0.32634  1.0000
  H   H4266     1.0  0.95038  0.45645  0.33637  1.0000
  H   H4267     1.0  0.94619  0.44003  0.37043  1.0000
  C   C2406     1.0  0.82764  0.39484  0.37806  1.0000
  C   C2407     1.0  0.81288  0.39422  0.36897  1.0000
  C   C2408     1.0  0.79222  0.40264  0.37549  1.0000
  C   C2409     1.0  0.78638  0.41223  0.39076  1.0000
  C   C2410     1.0  0.80130  0.41388  0.39916  1.0000
  C   C2411     1.0  0.82187  0.40480  0.39308  1.0000
  H   H4268     1.0  0.81735  0.38694  0.35707  1.0000
  H   H4269     1.0  0.78084  0.40196  0.36854  1.0000
  H   H4270     1.0  0.79692  0.42173  0.41065  1.0000
  H   H4271     1.0  0.83320  0.40553  0.40003  1.0000
  C   C2412     1.0  0.64179  0.44151  0.39834  1.0000
  H   H4272     1.0  0.91867  0.49942  0.37222  1.0000
  H   H4273     1.0  0.78055  0.34919  0.47699  1.0000
  H   H4274     1.0  0.93558  0.45262  0.40816  1.0000
  C   C2413     1.0  0.51872  0.48134  0.35506  1.0000
  C   C2414     1.0  0.56253  0.60032  0.25009  1.0000
  S   S547      1.0  0.50982  0.57420  0.30047  1.0000
  C   C2415     1.0  0.53205  0.43789  0.30965  1.0000
  C   C2416     1.0  0.54270  0.41776  0.30973  1.0000
  C   C2417     1.0  0.55282  0.61743  0.26087  1.0000
  H   H4275     1.0  0.87697  0.43447  0.35581  1.0000
  H   H4276     1.0  0.55897  0.41390  0.30888  1.0000
  C   C2418     1.0  0.54172  0.61710  0.31278  1.0000
  C   C2419     1.0  0.52185  0.62435  0.30946  1.0000
  C   C2420     1.0  0.65862  0.34118  0.45125  1.0000
  C   C2421     1.0  0.52104  0.59067  0.30655  1.0000
  C   C2422     1.0  0.54056  0.58329  0.31056  1.0000
  C   C2423     1.0  0.55083  0.59643  0.31370  1.0000
  H   H4277     1.0  0.86136  0.33597  0.34905  1.0000
  C   C2424     1.0  0.94274  0.39437  0.44158  1.0000
  H   H4278     1.0  0.54789  0.56739  0.31117  1.0000
  H   H4279     1.0  0.56579  0.59051  0.31688  1.0000
  C   C2425     1.0  0.62387  0.53717  0.32608  1.0000
  C   C2426     1.0  0.61630  0.51912  0.33192  1.0000
  C   C2427     1.0  0.61641  0.50840  0.31855  1.0000
  C   C2428     1.0  0.62457  0.51541  0.29935  1.0000
  C   C2429     1.0  0.63245  0.53322  0.29360  1.0000
  C   C2430     1.0  0.63198  0.54412  0.30688  1.0000
  H   H4280     1.0  0.60990  0.51376  0.34673  1.0000
  H   H4281     1.0  0.60999  0.49489  0.32305  1.0000
  H   H4282     1.0  0.63894  0.53871  0.27883  1.0000
  H   H4283     1.0  0.63822  0.55780  0.30225  1.0000
  H   H4284     1.0  0.49546  0.64129  0.27165  1.0000
  H   H4285     1.0  0.58753  0.45926  0.36025  1.0000
  C   C2431     1.0  0.51435  0.48798  0.33501  1.0000
  H   H4286     1.0  0.67746  0.36189  0.47690  1.0000
  C   C2432     1.0  0.65580  0.63621  0.36470  1.0000
  C   C2433     1.0  0.66617  0.63781  0.37772  1.0000
  H   H4287     1.0  0.96325  0.57997  0.28795  1.0000
  H   H4288     1.0  0.87738  0.46885  0.42970  1.0000
  H   H4289     1.0  0.65492  0.62136  0.36346  1.0000
  H   H4290     1.0  0.67327  0.62404  0.38644  1.0000
  C   C2434     1.0  0.95752  0.64006  0.29237  1.0000
  H   H4291     1.0  0.58963  0.41763  0.25913  1.0000
  H   H4292     1.0  0.90843  0.33347  0.46093  1.0000
  H   H4293     1.0  0.68233  0.46730  0.38101  1.0000
  H   H4294     1.0  0.59161  0.52939  0.26476  1.0000
  H   H4295     1.0  0.55451  0.53000  0.27471  1.0000
  C   C2435     1.0  0.96930  0.56902  0.34564  1.0000
  C   C2436     1.0  0.58738  0.46262  0.38816  1.0000
  H   H4296     1.0  0.61112  0.43866  0.44556  1.0000
  H   H4297     1.0  0.83832  0.34974  0.45929  1.0000
  H   H4298     1.0  0.51721  0.52958  0.29640  1.0000
  N   N137      1.0  0.67921  0.33008  0.47785  1.0000
  S   S548      1.0  0.67087  0.39227  0.43886  1.0000
  C   C2437     1.0  0.89716  0.34058  0.35208  1.0000
  H   H4299     1.0  0.52203  0.54506  0.34883  1.0000
  Fe  Fe277     1.0  0.97022  0.50877  0.27733  1.0000
  N   N138      1.0  0.57815  0.56135  0.25462  1.0000
  H   H4300     1.0  0.76855  0.41883  0.43745  1.0000
  C   C2438     1.0  0.67528  0.45368  0.38711  1.0000
  C   C2439     1.0  0.61232  0.39030  0.43151  1.0000
  H   H4301     1.0  0.56500  0.47589  0.37061  1.0000
  H   H4302     1.0  0.97032  0.60191  0.24588  1.0000
  H   H4303     1.0  0.58027  0.47452  0.39661  1.0000
  H   H4304     1.0  0.86276  0.47529  0.35282  1.0000
  H   H4305     1.0  0.88288  0.45299  0.41333  1.0000
  H   H4306     1.0  0.87220  0.55316  0.25117  1.0000
  H   H4307     1.0  0.87732  0.47337  0.38009  1.0000
  C   C2440     1.0  0.52910  0.43542  0.24769  1.0000
  H   H4308     1.0  0.60380  0.65771  0.43914  1.0000
  C   C2441     1.0  0.58187  0.47116  0.36881  1.0000
  H   H4309     1.0  0.51465  0.64029  0.30893  1.0000
  H   H4310     1.0  0.76877  0.41078  0.48339  1.0000
  H   H4311     1.0  0.88762  0.39193  0.45683  1.0000
  C   C2442     1.0  0.90121  0.45267  0.46245  1.0000
  H   H4312     1.0  0.58041  0.44906  0.39505  1.0000
  H   H4313     1.0  0.93813  0.61946  0.30894  1.0000
  H   H4314     1.0  0.88980  0.35422  0.35822  1.0000
  H   H4315     1.0  0.68709  0.34886  0.44969  1.0000
  Fe  Fe278     1.0  0.94933  0.51008  0.31795  1.0000
  C   C2443     1.0  0.66114  0.34562  0.42980  1.0000
  H   H4316     1.0  0.52216  0.42175  0.25448  1.0000
  H   H4317     1.0  0.52710  0.50306  0.29560  1.0000
  H   H4318     1.0  0.75047  0.37516  0.46955  1.0000
  H   H4319     1.0  0.61603  0.47193  0.37998  1.0000
  H   H4320     1.0  0.55005  0.40216  0.26628  1.0000
  N   N139      1.0  0.49746  0.50638  0.33147  1.0000
  H   H4321     1.0  0.81678  0.44001  0.33888  1.0000
  C   C2444     1.0  0.58166  0.54273  0.27034  1.0000
  C   C2445     1.0  0.49642  0.45269  0.26697  1.0000
  C   C2446     1.0  0.61042  0.45944  0.41797  1.0000
  H   H4322     1.0  0.72028  0.63137  0.38174  1.0000
  C   C2447     1.0  0.74296  0.65052  0.37304  1.0000
  H   H4323     1.0  0.70146  0.39794  0.45549  1.0000
  H   H4324     1.0  0.52178  0.52336  0.26468  1.0000
  H   H4325     1.0  0.55418  0.51142  0.30784  1.0000
  H   H4326     1.0  0.74335  0.61983  0.39044  1.0000
  H   H4327     1.0  0.57842  0.50379  0.29250  1.0000
  C   C2448     1.0  0.72806  0.43786  0.44649  1.0000
  H   H4328     1.0  0.64796  0.46995  0.37774  1.0000
  H   H4329     1.0  0.82418  0.34957  0.36602  1.0000
  H   H4330     1.0  0.58021  0.39231  0.28886  1.0000
  H   H4331     1.0  0.55198  0.60078  0.24127  1.0000
  C   C2449     1.0  0.90733  0.46403  0.47403  1.0000
  C   C2450     1.0  0.88717  0.55660  0.24448  1.0000
  H   H4332     1.0  0.84089  0.45339  0.36024  1.0000
  H   H4333     1.0  0.60460  0.64183  0.42358  1.0000
  H   H4334     1.0  0.54099  0.38754  0.30874  1.0000
  C   C2451     1.0  0.91073  0.45913  0.44112  1.0000
  H   H4335     1.0  0.93655  0.33832  0.48383  1.0000
  C   C2452     1.0  0.85852  0.39029  0.47597  1.0000
  H   H4336     1.0  0.57440  0.58047  0.27417  1.0000
  C   C2453     1.0  0.61084  0.42624  0.41108  1.0000
  C   C2454     1.0  0.61691  0.54821  0.24004  1.0000
  H   H4337     1.0  0.81503  0.36614  0.41857  1.0000
  C   C2455     1.0  0.86325  0.32880  0.36379  1.0000
  H   H4338     1.0  0.93530  0.39073  0.45680  1.0000
  H   H4339     1.0  0.86329  0.41279  0.33148  1.0000
  H   H4340     1.0  0.79248  0.39329  0.48017  1.0000
  H   H4341     1.0  0.85693  0.34142  0.37152  1.0000
  C   C2456     1.0  0.56812  0.51665  0.29872  1.0000
  C   C2457     1.0  0.91261  0.47816  0.39922  1.0000
  C   C2458     1.0  0.50504  0.54899  0.35266  1.0000
  C   C2459     1.0  0.93768  0.41740  0.43353  1.0000
  C   C2460     1.0  0.80188  0.34347  0.35463  1.0000
  H   H4342     1.0  0.78209  0.43429  0.45194  1.0000
  H   H4343     1.0  0.89500  0.44987  0.37595  1.0000
  H   H4344     1.0  0.77426  0.36082  0.44667  1.0000
  H   H4345     1.0  0.71781  0.41709  0.28145  1.0000
  C   C2461     1.0  0.89126  0.39448  0.31970  1.0000
  S   S549      1.0  0.84617  0.39039  0.45853  1.0000
  C   C2462     1.0  0.61821  0.45160  0.43656  1.0000
  C   C2463     1.0  0.51332  0.51556  0.29532  1.0000
  S   S550      1.0  0.94868  0.53336  0.29096  1.0000
  C   C2464     1.0  0.51147  0.61113  0.30644  1.0000
  H   H4346     1.0  0.68039  0.44545  0.40043  1.0000
  H   H4347     1.0  0.88371  0.40764  0.34387  1.0000
  N   N140      1.0  0.55213  0.42908  0.24344  1.0000
  S   S551      1.0  0.73222  0.37852  0.42931  1.0000
  H   H4348     1.0  0.88553  0.38043  0.32769  1.0000
  C   C2465     1.0  0.53249  0.40287  0.30968  1.0000
  S   S552      1.0  0.62284  0.41787  0.34936  1.0000
  C   C2466     1.0  0.68646  0.40410  0.46302  1.0000
  C   C2467     1.0  0.64648  0.65388  0.35339  1.0000
  H   H4349     1.0  0.66715  0.35977  0.42295  1.0000
  H   H4350     1.0  0.94682  0.42012  0.41880  1.0000
  C   C2468     1.0  0.56192  0.44732  0.23832  1.0000
  H   H4351     1.0  0.55095  0.57665  0.27193  1.0000
  H   H4352     1.0  0.63606  0.41097  0.46351  1.0000
  H   H4353     1.0  0.81023  0.34688  0.33965  1.0000
  H   H4354     1.0  0.51136  0.47465  0.33160  1.0000
  H   H4355     1.0  0.96296  0.60756  0.29696  1.0000
  C   C2469     1.0  0.58247  0.64361  0.38253  1.0000
  C   C2470     1.0  0.92921  0.34287  0.47154  1.0000
  H   H4356     1.0  0.90794  0.39150  0.31898  1.0000
  H   H4357     1.0  0.87402  0.50643  0.28810  1.0000
  H   H4358     1.0  0.60918  0.63533  0.26222  1.0000
  H   H4359     1.0  0.50422  0.50620  0.27402  1.0000
  H   H4360     1.0  0.75498  0.65241  0.37904  1.0000
  H   H4361     1.0  0.51273  0.63820  0.23941  1.0000
  H   H4362     1.0  0.50464  0.47955  0.36614  1.0000
  H   H4363     1.0  0.73704  0.44741  0.43441  1.0000
  C   C2471     1.0  0.51954  0.45093  0.26065  1.0000
  H   H4364     1.0  0.64290  0.40218  0.38025  1.0000
  C   C2472     1.0  0.78506  0.37064  0.43773  1.0000
  H   H4365     1.0  0.93295  0.55275  0.25462  1.0000
  C   C2473     1.0  0.97497  0.59356  0.25929  1.0000
  C   C2474     1.0  0.83191  0.34196  0.47383  1.0000
  H   H4366     1.0  0.63828  0.40172  0.41313  1.0000
  H   H4367     1.0  0.59524  0.47352  0.45140  1.0000
  H   H4368     1.0  0.86772  0.45078  0.38304  1.0000
  C   C2475     1.0  0.56235  0.53499  0.28310  1.0000
  H   H4369     1.0  0.62247  0.54190  0.25336  1.0000
  N   N141      1.0  0.69965  0.46566  0.31516  1.0000
  C   C2476     1.0  0.69922  0.46421  0.29565  1.0000
  C   C2477     1.0  0.70136  0.48709  0.31438  1.0000
  C   C2478     1.0  0.71883  0.45118  0.32025  1.0000
  C   C2479     1.0  0.68132  0.45995  0.33014  1.0000
  C   C2480     1.0  0.66097  0.46423  0.32368  1.0000
  C   C2481     1.0  0.69885  0.44267  0.29351  1.0000
  C   C2482     1.0  0.72348  0.45164  0.33913  1.0000
  C   C2483     1.0  0.68314  0.50463  0.30953  1.0000
  C   C2484     1.0  0.68764  0.52543  0.30810  1.0000
  C   C2485     1.0  0.64303  0.46289  0.34065  1.0000
  C   C2486     1.0  0.71919  0.43226  0.28254  1.0000
  C   C2487     1.0  0.74031  0.43350  0.34494  1.0000
  H   H4370     1.0  0.71235  0.46984  0.28502  1.0000
  H   H4371     1.0  0.68568  0.47474  0.29081  1.0000
  H   H4372     1.0  0.70280  0.48838  0.32830  1.0000
  H   H4373     1.0  0.71557  0.49068  0.30406  1.0000
  H   H4374     1.0  0.73251  0.45419  0.30883  1.0000
  H   H4375     1.0  0.71807  0.43507  0.32137  1.0000
  H   H4376     1.0  0.68436  0.44328  0.33681  1.0000
  H   H4377     1.0  0.67845  0.46773  0.34200  1.0000
  H   H4378     1.0  0.66156  0.45253  0.31603  1.0000
  H   H4379     1.0  0.65766  0.47941  0.31419  1.0000
  H   H4380     1.0  0.69447  0.43235  0.30733  1.0000
  H   H4381     1.0  0.68695  0.44431  0.28561  1.0000
  H   H4382     1.0  0.70971  0.45111  0.35081  1.0000
  H   H4383     1.0  0.72894  0.46574  0.33760  1.0000
  H   H4384     1.0  0.67989  0.50504  0.29584  1.0000
  H   H4385     1.0  0.66916  0.50305  0.32087  1.0000
  H   H4386     1.0  0.68997  0.52640  0.32179  1.0000
  H   H4387     1.0  0.70141  0.52812  0.29681  1.0000
  H   H4388     1.0  0.67449  0.53778  0.30454  1.0000
  H   H4389     1.0  0.64665  0.44870  0.35136  1.0000
  H   H4390     1.0  0.63959  0.47642  0.34694  1.0000
  H   H4391     1.0  0.62928  0.46246  0.33614  1.0000
  H   H4392     1.0  0.96434  0.65580  0.24763  1.0000
  H   H4393     1.0  0.71768  0.34145  0.45578  1.0000
  H   H4394     1.0  0.73179  0.42982  0.28978  1.0000
  H   H4395     1.0  0.75462  0.43347  0.33379  1.0000
  H   H4396     1.0  0.74358  0.43449  0.35824  1.0000
  H   H4397     1.0  0.73540  0.41884  0.34753  1.0000
  C   C2488     1.0  0.91903  0.45514  0.40845  1.0000
  C   C2489     1.0  0.79081  0.38287  0.44922  1.0000
  H   H4398     1.0  0.57592  0.52088  0.30767  1.0000
  H   H4399     1.0  0.62784  0.41188  0.43395  1.0000
  H   H4400     1.0  0.73190  0.41548  0.47195  1.0000
  Fe  Fe279     1.0  0.74237  0.35315  0.41365  1.0000
  C   C2490     1.0  0.65200  0.46036  0.39110  1.0000
  C   C2491     1.0  0.79212  0.42222  0.46031  1.0000
  H   H4401     1.0  0.50022  0.55253  0.36693  1.0000
  H   H4402     1.0  0.96304  0.63971  0.30497  1.0000
  H   H4403     1.0  0.80428  0.44592  0.46450  1.0000
  H   H4404     1.0  0.75237  0.40147  0.44308  1.0000
  H   H4405     1.0  0.58879  0.40035  0.24558  1.0000
  C   C2492     1.0  0.55852  0.41486  0.26089  1.0000
  H   H4406     1.0  0.96593  0.57884  0.35549  1.0000
  H   H4407     1.0  0.59502  0.42905  0.41988  1.0000
  H   H4408     1.0  0.57834  0.52589  0.24256  1.0000
  C   C2493     1.0  0.92340  0.48287  0.37837  1.0000
  H   H4409     1.0  0.60908  0.38473  0.42038  1.0000
  C   C2494     1.0  0.96008  0.55210  0.35047  1.0000
  H   H4410     1.0  0.81884  0.33601  0.47341  1.0000
  H   H4411     1.0  0.88953  0.47575  0.34611  1.0000
  H   H4412     1.0  0.57696  0.60389  0.24064  1.0000
  H   H4413     1.0  0.72143  0.42849  0.44091  1.0000
  C   C2495     1.0  0.79801  0.43233  0.47309  1.0000
  H   H4414     1.0  0.94276  0.42505  0.44199  1.0000
  C   C2496     1.0  0.81669  0.33673  0.36790  1.0000
  H   H4415     1.0  0.60370  0.57622  0.24920  1.0000
  H   H4416     1.0  0.72466  0.63950  0.40085  1.0000
  C   C2497     1.0  0.74164  0.42416  0.45991  1.0000
  C   C2498     1.0  0.87968  0.45953  0.37451  1.0000
  C   C2499     1.0  0.98715  0.56049  0.31550  1.0000
  H   H4417     1.0  0.98055  0.53419  0.31021  1.0000
  C   C2500     1.0  0.51078  0.44265  0.31140  1.0000
  H   H4418     1.0  0.93761  0.38595  0.43378  1.0000
  C   C2501     1.0  0.64961  0.41159  0.46750  1.0000
  C   C2502     1.0  0.75946  0.40947  0.44963  1.0000
  H   H4419     1.0  0.52596  0.44620  0.27338  1.0000
  H   H4420     1.0  0.79971  0.39372  0.43866  1.0000
  C   C2503     1.0  0.63343  0.64020  0.42941  1.0000
  H   H4421     1.0  0.50235  0.45815  0.31142  1.0000
  C   C2504     1.0  0.84057  0.44599  0.34908  1.0000
  C   C2505     1.0  0.73210  0.63436  0.38739  1.0000
  C   C2506     1.0  0.59842  0.56642  0.24278  1.0000
  C   C2507     1.0  0.58620  0.38766  0.27510  1.0000
  H   H4422     1.0  0.64748  0.46995  0.40174  1.0000
  H   H4423     1.0  0.55418  0.42306  0.27254  1.0000
  H   H4424     1.0  0.94514  0.65382  0.29018  1.0000
  H   H4425     1.0  0.79937  0.34875  0.41984  1.0000
  H   H4426     1.0  0.59016  0.54570  0.27955  1.0000
  H   H4427     1.0  0.84290  0.46151  0.44612  1.0000
  H   H4428     1.0  0.90445  0.47581  0.43700  1.0000
  H   H4429     1.0  0.55828  0.45462  0.25062  1.0000
  H   H4430     1.0  0.68063  0.44350  0.37689  1.0000
  N   N142      1.0  0.93709  0.60095  0.27773  1.0000
  C   C2508     1.0  0.95719  0.58575  0.27492  1.0000
  C   C2509     1.0  0.92187  0.59230  0.29476  1.0000
  C   C2510     1.0  0.92852  0.60444  0.26044  1.0000
  C   C2511     1.0  0.93992  0.62114  0.27919  1.0000
  H   H4431     1.0  0.91349  0.33624  0.35299  1.0000
  C   C2512     1.0  0.64766  0.42026  0.48278  1.0000
  N   N143      1.0  0.77307  0.39413  0.46178  1.0000
  C   C2513     1.0  0.92993  0.57921  0.31256  1.0000
  C   C2514     1.0  0.91232  0.57419  0.32922  1.0000
  H   H4432     1.0  0.52767  0.44868  0.35527  1.0000
  C   C2515     1.0  0.90681  0.61818  0.26075  1.0000
  H   H4433     1.0  0.64889  0.35500  0.45619  1.0000
  H   H4434     1.0  0.95481  0.57203  0.27168  1.0000
  C   C2516     1.0  0.50828  0.51978  0.27594  1.0000
  H   H4435     1.0  0.90926  0.60490  0.29931  1.0000
  H   H4436     1.0  0.91447  0.58207  0.29091  1.0000
  H   H4437     1.0  0.92805  0.58951  0.25797  1.0000
  H   H4438     1.0  0.83932  0.43578  0.45035  1.0000
  H   H4439     1.0  0.94901  0.62836  0.26559  1.0000
  C   C2517     1.0  0.97751  0.54381  0.32014  1.0000
  H   H4440     1.0  0.90211  0.48083  0.46945  1.0000
  H   H4441     1.0  0.75054  0.64436  0.36012  1.0000
  H   H4442     1.0  0.63509  0.44664  0.43401  1.0000
  C   C2518     1.0  0.61382  0.62863  0.24994  1.0000
  H   H4443     1.0  0.80192  0.37248  0.45757  1.0000
  C   C2519     1.0  0.98294  0.57320  0.32821  1.0000
  H   H4444     1.0  0.93955  0.56449  0.30968  1.0000
  H   H4445     1.0  0.93931  0.58663  0.31715  1.0000
  H   H4446     1.0  0.90297  0.56583  0.32548  1.0000
  H   H4447     1.0  0.91858  0.56424  0.34150  1.0000
  H   H4448     1.0  0.90248  0.58839  0.33341  1.0000
  C   C2520     1.0  0.91447  0.42513  0.43397  1.0000
  H   H4449     1.0  0.80739  0.33382  0.38259  1.0000
  C   C2521     1.0  0.84840  0.44707  0.44096  1.0000
  H   H4450     1.0  0.62184  0.37745  0.43977  1.0000
  H   H4451     1.0  0.49894  0.50006  0.23944  1.0000
  H   H4452     1.0  0.67167  0.33267  0.42384  1.0000
  C   C2522     1.0  0.76058  0.37969  0.47614  1.0000
  H   H4453     1.0  0.89827  0.60331  0.24292  1.0000
  S   S553      1.0  0.95127  0.51921  0.34359  1.0000
  H   H4454     1.0  0.90628  0.41893  0.44838  1.0000
  C   C2523     1.0  0.88461  0.45305  0.42757  1.0000
  H   H4455     1.0  0.49949  0.56294  0.34245  1.0000
  H   H4456     1.0  0.52576  0.49273  0.35738  1.0000
  C   C2524     1.0  0.68448  0.41230  0.47863  1.0000
  H   H4457     1.0  0.61754  0.46201  0.46136  1.0000
  H   H4458     1.0  0.81152  0.34536  0.43905  1.0000
  H   H4459     1.0  0.89592  0.48296  0.39995  1.0000
  H   H4460     1.0  0.60302  0.38197  0.27331  1.0000
  H   H4461     1.0  0.87514  0.42359  0.43691  1.0000
  H   H4462     1.0  0.77775  0.38131  0.42637  1.0000
  C   C2525     1.0  0.63274  0.61525  0.24659  1.0000
  N   N144      1.0  0.90706  0.44798  0.42821  1.0000
  C   C2526     1.0  0.78130  0.40453  0.47234  1.0000
  S   S554      1.0  0.49954  0.39007  0.30718  1.0000
  H   H4463     1.0  0.91061  0.41740  0.42472  1.0000
  H   H4464     1.0  0.84663  0.42945  0.35363  1.0000
  H   H4465     1.0  0.74742  0.43423  0.46541  1.0000
  H   H4466     1.0  0.94028  0.47916  0.37675  1.0000
  H   H4467     1.0  0.59771  0.39541  0.44125  1.0000
  C   C2527     1.0  0.58179  0.40579  0.25886  1.0000
  H   H4468     1.0  0.93853  0.61161  0.24750  1.0000
  H   H4469     1.0  0.95954  0.38906  0.44012  1.0000
  H   H4470     1.0  0.56270  0.61775  0.27009  1.0000
  H   H4471     1.0  0.92500  0.63211  0.28123  1.0000
  H   H4472     1.0  0.53705  0.45631  0.37175  1.0000
  H   H4473     1.0  0.58866  0.48471  0.36106  1.0000
  C   C2528     1.0  0.66964  0.34923  0.48545  1.0000
  H   H4474     1.0  0.72306  0.44161  0.26800  1.0000
  H   H4475     1.0  0.88400  0.49669  0.26683  1.0000
  C   C2529     1.0  0.56637  0.57912  0.26377  1.0000
  H   H4476     1.0  0.59346  0.46172  0.42234  1.0000
  H   H4477     1.0  0.87252  0.43536  0.45611  1.0000
  H   H4478     1.0  0.64608  0.34794  0.42629  1.0000
  H   H4479     1.0  0.97058  0.64102  0.27998  1.0000
  S   S555      1.0  0.86183  0.35802  0.42126  1.0000
  S   S556      1.0  0.71146  0.35740  0.40746  1.0000
  C   C2530     1.0  0.87921  0.39106  0.47121  1.0000
  C   C2531     1.0  0.86732  0.33205  0.48100  1.0000
  H   H4480     1.0  0.94959  0.54897  0.36398  1.0000
  H   H4481     1.0  0.88428  0.45660  0.46494  1.0000
  C   C2532     1.0  0.87984  0.41188  0.32980  1.0000
  H   H4482     1.0  0.80629  0.41651  0.45043  1.0000
  H   H4483     1.0  0.80979  0.42143  0.48039  1.0000
  S   S557      1.0  0.97308  0.48631  0.30465  1.0000
  C   C2533     1.0  0.92138  0.55641  0.24646  1.0000
  H   H4484     1.0  0.57920  0.37502  0.27522  1.0000
  H   H4485     1.0  0.61338  0.47510  0.41132  1.0000
  C   C2534     1.0  0.67970  0.33557  0.45687  1.0000
  H   H4486     1.0  0.90101  0.49542  0.28146  1.0000
  C   C2535     1.0  0.66901  0.40362  0.45751  1.0000
  H   H4487     1.0  0.91690  0.48783  0.40640  1.0000
  C   C2536     1.0  0.96398  0.53959  0.33766  1.0000
  C   C2537     1.0  0.61213  0.46823  0.44793  1.0000
  H   H4488     1.0  0.52907  0.49068  0.32528  1.0000
  H   H4489     1.0  0.98735  0.56571  0.24862  1.0000
  H   H4490     1.0  0.91797  0.44592  0.39891  1.0000
  C   C2538     1.0  0.65453  0.40137  0.36744  1.0000
  H   H4491     1.0  0.54863  0.46194  0.34684  1.0000
  C   C2539     1.0  0.62379  0.40774  0.42255  1.0000
  C   C2540     1.0  0.49921  0.63108  0.24596  1.0000
  H   H4492     1.0  0.53754  0.61531  0.26966  1.0000
  H   H4493     1.0  0.89542  0.61241  0.27330  1.0000
  H   H4494     1.0  0.98102  0.60399  0.26416  1.0000
  H   H4495     1.0  0.71529  0.44809  0.45418  1.0000
  C   C2541     1.0  0.87094  0.43841  0.44134  1.0000
  S   S558      1.0  0.63220  0.65319  0.33742  1.0000
  H   H4496     1.0  0.61931  0.48146  0.43985  1.0000
  C   C2542     1.0  0.90198  0.55206  0.25516  1.0000
  N   N145      1.0  0.61867  0.44596  0.40379  1.0000
  H   H4497     1.0  0.50459  0.61492  0.25279  1.0000
  N   N146      1.0  0.87612  0.45078  0.32683  1.0000
  C   C2543     1.0  0.88314  0.44703  0.34494  1.0000
  C   C2544     1.0  0.88560  0.43236  0.31809  1.0000
  C   C2545     1.0  0.88444  0.46868  0.31325  1.0000
  C   C2546     1.0  0.85305  0.45564  0.32963  1.0000
  C   C2547     1.0  0.87825  0.46591  0.35378  1.0000
  C   C2548     1.0  0.88144  0.47318  0.29273  1.0000
  C   C2549     1.0  0.81815  0.44885  0.34853  1.0000
  C   C2550     1.0  0.88536  0.49422  0.28166  1.0000
  H   H4498     1.0  0.90000  0.44150  0.34248  1.0000
  H   H4499     1.0  0.88109  0.43480  0.30448  1.0000
  H   H4500     1.0  0.90262  0.43011  0.31462  1.0000
  H   H4501     1.0  0.90117  0.46635  0.31231  1.0000
  H   H4502     1.0  0.87729  0.48298  0.31855  1.0000
  H   H4503     1.0  0.84693  0.47246  0.32773  1.0000
  H   H4504     1.0  0.84861  0.45125  0.31842  1.0000
  H   H4505     1.0  0.91925  0.47410  0.37023  1.0000
  C   C2551     1.0  0.94979  0.62056  0.29544  1.0000
  H   H4506     1.0  0.86569  0.47264  0.29258  1.0000
  H   H4507     1.0  0.89251  0.46178  0.28504  1.0000
  H   H4508     1.0  0.88857  0.39810  0.30518  1.0000
  H   H4509     1.0  0.80931  0.44317  0.36289  1.0000
  H   H4510     1.0  0.81134  0.46527  0.34382  1.0000
  H   H4511     1.0  0.90632  0.43610  0.46810  1.0000
  H   H4512     1.0  0.64540  0.37977  0.24255  1.0000
  H   H4513     1.0  0.86243  0.34752  0.48426  1.0000
  H   H4514     1.0  0.92034  0.35883  0.47056  1.0000
  H   H4515     1.0  0.65357  0.35493  0.48378  1.0000
  H   H4516     1.0  0.56305  0.38591  0.24070  1.0000
  H   H4517     1.0  0.90693  0.63412  0.26068  1.0000
  H   H4518     1.0  0.55090  0.63242  0.25070  1.0000
  S   S559      1.0  0.67927  0.65825  0.39717  1.0000
  H   H4519     1.0  0.59177  0.63397  0.37236  1.0000
  C   C2552     1.0  0.50292  0.52541  0.33309  1.0000
  H   H4520     1.0  0.57686  0.63340  0.39613  1.0000
  H   H4521     1.0  0.54978  0.55757  0.25071  1.0000
  C   C2553     1.0  0.97634  0.64790  0.23796  1.0000
  H   H4522     1.0  0.78442  0.43751  0.48387  1.0000
  H   H4523     1.0  0.71031  0.35062  0.47740  1.0000
  H   H4524     1.0  0.50036  0.51832  0.36414  1.0000
  H   H4525     1.0  0.64245  0.63366  0.41700  1.0000
  H   H4526     1.0  0.69790  0.41247  0.48304  1.0000
  H   H4527     1.0  0.74741  0.33758  0.46902  1.0000
  H   H4528     1.0  0.88412  0.62908  0.24344  1.0000
  C   C2554     1.0  0.63140  0.41179  0.23822  1.0000
  H   H4529     1.0  0.79076  0.35760  0.35764  1.0000
  C   C2555     1.0  0.89944  0.61884  0.24324  1.0000
  H   H4530     1.0  0.82625  0.35325  0.48302  1.0000
  H   H4531     1.0  0.53714  0.39756  0.23853  1.0000
  H   H4532     1.0  0.58667  0.64466  0.23957  1.0000
  H   H4533     1.0  0.87568  0.33477  0.46595  1.0000
  H   H4534     1.0  0.60915  0.64569  0.39007  1.0000
  C   C2556     1.0  0.66697  0.65702  0.37989  1.0000
  H   H4535     1.0  0.63152  0.62741  0.44195  1.0000
  H   H4536     1.0  0.90492  0.39233  0.48119  1.0000
  H   H4537     1.0  0.94134  0.34227  0.45841  1.0000
  C   C2557     1.0  0.50047  0.42765  0.31187  1.0000
  H   H4538     1.0  0.92420  0.46029  0.47251  1.0000
  C   C2558     1.0  0.88899  0.39138  0.48499  1.0000
  H   H4539     1.0  0.56925  0.65359  0.37667  1.0000
  C   C2559     1.0  0.77287  0.35979  0.48666  1.0000
  C   C2560     1.0  0.91520  0.32850  0.47348  1.0000
  C   C2561     1.0  0.99250  0.57578  0.25468  1.0000
  H   H4540     1.0  0.98996  0.44046  0.31420  1.0000
  H   H4541     1.0  0.64211  0.65005  0.43202  1.0000
  C   C2562     1.0  0.61248  0.65246  0.42600  1.0000
  H   H4542     1.0  0.65028  0.32849  0.45729  1.0000
  C   C2563     1.0  0.59572  0.65645  0.38520  1.0000
  S   S560      1.0  0.99385  0.59480  0.32253  1.0000
  H   H4543     1.0  0.49634  0.61690  0.30355  1.0000
  H   H4544     1.0  0.49597  0.53906  0.32344  1.0000
  C   C2564     1.0  0.73703  0.32662  0.47535  1.0000
  H   H4545     1.0  0.99442  0.43063  0.29342  1.0000
  H   H4546     1.0  0.99533  0.47916  0.25130  1.0000
  C   C2565     1.0  0.49593  0.53127  0.35268  1.0000
  H   H4547     1.0  0.74991  0.38760  0.48721  1.0000
  Fe  Fe280     1.0  0.91348  0.41186  0.69176  1.0000
  S   S561      1.0  0.91665  0.44417  0.67812  1.0000
  S   S562      1.0  0.89976  0.39165  0.68189  1.0000
  Fe  Fe281     1.0  0.93571  0.40937  0.72221  1.0000
  S   S563      1.0  0.94035  0.44157  0.71161  1.0000
  H   H4548     1.0  0.61155  0.51915  0.69874  1.0000
  Fe  Fe282     1.0  0.90800  0.44896  0.70784  1.0000
  S   S564      1.0  0.88684  0.47889  0.71207  1.0000
  Fe  Fe283     1.0  0.94855  0.43410  0.68306  1.0000
  S   S565      1.0  0.97593  0.44211  0.66082  1.0000
  S   S566      1.0  0.90237  0.41729  0.72133  1.0000
  S   S567      1.0  0.94636  0.40131  0.69388  1.0000
  H   H4549     1.0  0.96780  0.43723  0.62452  1.0000
  H   H4550     1.0  0.52539  0.54155  0.68796  1.0000
  C   C2566     1.0  0.86629  0.55570  0.70464  1.0000
  H   H4551     1.0  0.73260  0.32758  0.62062  1.0000
  H   H4552     1.0  0.96844  0.36555  0.67389  1.0000
  C   C2567     1.0  0.81570  0.33805  0.60648  1.0000
  H   H4553     1.0  0.53466  0.52341  0.60844  1.0000
  H   H4554     1.0  0.97310  0.48035  0.72771  1.0000
  H   H4555     1.0  0.58713  0.52489  0.72837  1.0000
  H   H4556     1.0  0.55126  0.54506  0.67967  1.0000
  C   C2568     1.0  0.97588  0.46804  0.65741  1.0000
  H   H4557     1.0  0.95995  0.34342  0.67346  1.0000
  H   H4558     1.0  0.77721  0.33864  0.61330  1.0000
  Fe  Fe284     1.0  0.53063  0.45088  0.67400  1.0000
  H   H4559     1.0  0.93343  0.51623  0.69690  1.0000
  H   H4560     1.0  0.93230  0.38600  0.62280  1.0000
  Fe  Fe285     1.0  0.69764  0.36540  0.54570  1.0000
  H   H4561     1.0  0.83171  0.38863  0.49853  1.0000
  S   S568      1.0  0.59597  0.62962  0.66116  1.0000
  H   H4562     1.0  0.96108  0.39755  0.65027  1.0000
  S   S569      1.0  0.55714  0.60787  0.68334  1.0000
  Fe  Fe286     1.0  0.56715  0.63580  0.68323  1.0000
  Fe  Fe287     1.0  0.58387  0.60331  0.65927  1.0000
  S   S570      1.0  0.60180  0.57068  0.66072  1.0000
  S   S571      1.0  0.56627  0.62145  0.63690  1.0000
  Fe  Fe288     1.0  0.87250  0.39544  0.58822  1.0000
  S   S572      1.0  0.89477  0.37283  0.57227  1.0000
  S   S573      1.0  0.88144  0.41766  0.59989  1.0000
  Fe  Fe289     1.0  0.83576  0.38579  0.58078  1.0000
  C   C2569     1.0  0.97523  0.50977  0.65152  1.0000
  S   S574      1.0  0.80133  0.39443  0.58768  1.0000
  H   H4563     1.0  0.58363  0.65136  0.56560  1.0000
  Fe  Fe290     1.0  0.87512  0.38478  0.55091  1.0000
  S   S575      1.0  0.89144  0.39073  0.52037  1.0000
  H   H4564     1.0  0.77935  0.35631  0.59139  1.0000
  S   S576      1.0  0.85462  0.40935  0.56544  1.0000
  S   S577      1.0  0.70238  0.42147  0.54030  1.0000
  C   C2570     1.0  0.66886  0.34733  0.50655  1.0000
  S   S578      1.0  0.76000  0.39521  0.52276  1.0000
  H   H4565     1.0  0.83248  0.33588  0.60098  1.0000
  Fe  Fe291     1.0  0.56792  0.44206  0.64223  1.0000
  S   S579      1.0  0.55696  0.42397  0.67132  1.0000
  S   S580      1.0  0.58147  0.43064  0.61531  1.0000
  Fe  Fe292     1.0  0.55751  0.48200  0.65514  1.0000
  H   H4566     1.0  0.71729  0.37308  0.60389  1.0000
  S   S581      1.0  0.55438  0.51554  0.64203  1.0000
  Fe  Fe293     1.0  0.57336  0.44205  0.68048  1.0000
  S   S582      1.0  0.59551  0.42474  0.69891  1.0000
  C   C2571     1.0  0.61626  0.34247  0.58951  1.0000
  S   S583      1.0  0.58621  0.45818  0.65116  1.0000
  S   S584      1.0  0.53992  0.46717  0.64394  1.0000
  C   C2572     1.0  0.50235  0.62357  0.63399  1.0000
  C   C2573     1.0  0.59997  0.43783  0.71368  1.0000
  H   H4567     1.0  0.52267  0.54640  0.62962  1.0000
  C   C2574     1.0  0.97206  0.47700  0.67288  1.0000
  C   C2575     1.0  0.97846  0.39912  0.61485  1.0000
  H   H4568     1.0  0.55403  0.54920  0.73564  1.0000
  H   H4569     1.0  0.59371  0.60121  0.71716  1.0000
  H   H4570     1.0  0.61458  0.33408  0.60446  1.0000
  H   H4571     1.0  0.78475  0.36297  0.49204  1.0000
  H   H4572     1.0  0.67329  0.34320  0.60331  1.0000
  H   H4573     1.0  0.98270  0.47296  0.62707  1.0000
  H   H4574     1.0  0.63741  0.33915  0.61616  1.0000
  C   C2576     1.0  0.65135  0.41424  0.60092  1.0000
  C   C2577     1.0  0.64070  0.41149  0.61986  1.0000
  C   C2578     1.0  0.61922  0.41679  0.62443  1.0000
  C   C2579     1.0  0.60835  0.42495  0.61003  1.0000
  C   C2580     1.0  0.61900  0.42807  0.59113  1.0000
  C   C2581     1.0  0.64046  0.42274  0.58657  1.0000
  H   H4575     1.0  0.64906  0.40502  0.63103  1.0000
  H   H4576     1.0  0.61107  0.41437  0.63908  1.0000
  H   H4577     1.0  0.61064  0.43467  0.57998  1.0000
  H   H4578     1.0  0.64859  0.42531  0.57192  1.0000
  C   C2582     1.0  0.77127  0.39683  0.54029  1.0000
  C   C2583     1.0  0.75936  0.39874  0.55824  1.0000
  C   C2584     1.0  0.76869  0.39834  0.57264  1.0000
  C   C2585     1.0  0.78996  0.39597  0.56915  1.0000
  C   C2586     1.0  0.80186  0.39443  0.55111  1.0000
  C   C2587     1.0  0.79249  0.39497  0.53666  1.0000
  H   H4579     1.0  0.74295  0.40044  0.56109  1.0000
  H   H4580     1.0  0.75943  0.39963  0.58655  1.0000
  H   H4581     1.0  0.81826  0.39275  0.54833  1.0000
  H   H4582     1.0  0.70575  0.35793  0.62577  1.0000
  C   C2588     1.0  0.84770  0.38939  0.49476  1.0000
  C   C2589     1.0  0.87830  0.39041  0.50375  1.0000
  C   C2590     1.0  0.85761  0.38932  0.50871  1.0000
  H   H4583     1.0  0.62285  0.64994  0.62676  1.0000
  H   H4584     1.0  0.66894  0.65320  0.65128  1.0000
  C   C2591     1.0  0.60547  0.57064  0.73320  1.0000
  H   H4585     1.0  0.84927  0.38862  0.52320  1.0000
  C   C2592     1.0  0.58993  0.55501  0.65430  1.0000
  C   C2593     1.0  0.57434  0.56376  0.64440  1.0000
  C   C2594     1.0  0.56405  0.55136  0.64026  1.0000
  C   C2595     1.0  0.56890  0.53009  0.64640  1.0000
  C   C2596     1.0  0.58484  0.52112  0.65594  1.0000
  C   C2597     1.0  0.59557  0.53361  0.65962  1.0000
  H   H4586     1.0  0.57000  0.58012  0.64005  1.0000
  H   H4587     1.0  0.55179  0.55843  0.63286  1.0000
  H   H4588     1.0  0.58883  0.50466  0.66054  1.0000
  H   H4589     1.0  0.60793  0.52674  0.66691  1.0000
  C   C2598     1.0  0.51972  0.40752  0.72628  1.0000
  H   H4590     1.0  0.76612  0.35499  0.55491  1.0000
  S   S585      1.0  0.67816  0.40671  0.59537  1.0000
  S   S586      1.0  0.85202  0.37360  0.60478  1.0000
  H   H4591     1.0  0.53951  0.58222  0.67300  1.0000
  C   C2599     1.0  0.95046  0.58273  0.72367  1.0000
  C   C2600     1.0  0.97973  0.47986  0.63904  1.0000
  H   H4592     1.0  0.61540  0.42374  0.53713  1.0000
  C   C2601     1.0  0.93422  0.53156  0.69804  1.0000
  H   H4593     1.0  0.65756  0.33808  0.51560  1.0000
  C   C2602     1.0  0.61478  0.64108  0.72232  1.0000
  C   C2603     1.0  0.53641  0.55210  0.70763  1.0000
  H   H4594     1.0  0.88418  0.57860  0.69235  1.0000
  H   H4595     1.0  0.90011  0.45929  0.48923  1.0000
  C   C2604     1.0  0.74890  0.34120  0.59227  1.0000
  H   H4596     1.0  0.56915  0.51730  0.69847  1.0000
  H   H4597     1.0  0.66021  0.36633  0.52712  1.0000
  H   H4598     1.0  0.79028  0.35484  0.55939  1.0000
  C   C2605     1.0  0.61814  0.37475  0.56665  1.0000
  H   H4599     1.0  0.63267  0.43005  0.70396  1.0000
  H   H4600     1.0  0.90734  0.59350  0.67230  1.0000
  S   S587      1.0  0.97713  0.57921  0.71838  1.0000
  C   C2606     1.0  0.54199  0.49508  0.73339  1.0000
  H   H4601     1.0  0.51239  0.42903  0.65743  1.0000
  C   C2607     1.0  0.52749  0.53947  0.60284  1.0000
  H   H4602     1.0  0.79326  0.35503  0.52595  1.0000
  C   C2608     1.0  0.66203  0.36824  0.51168  1.0000
  H   H4603     1.0  0.63081  0.63812  0.71542  1.0000
  C   C2609     1.0  0.93947  0.59012  0.70934  1.0000
  H   H4604     1.0  0.53857  0.56724  0.58701  1.0000
  H   H4605     1.0  0.90953  0.59804  0.70293  1.0000
  H   H4606     1.0  0.94739  0.59450  0.69480  1.0000
  C   C2610     1.0  0.89339  0.39937  0.65958  1.0000
  C   C2611     1.0  0.89028  0.38474  0.65162  1.0000
  C   C2612     1.0  0.88624  0.39022  0.63342  1.0000
  C   C2613     1.0  0.88521  0.41040  0.62315  1.0000
  C   C2614     1.0  0.88777  0.42514  0.63129  1.0000
  C   C2615     1.0  0.89191  0.41964  0.64946  1.0000
  H   H4607     1.0  0.89134  0.36903  0.65944  1.0000
  H   H4608     1.0  0.88423  0.37877  0.62724  1.0000
  H   H4609     1.0  0.88688  0.44081  0.62342  1.0000
  H   H4610     1.0  0.89409  0.43104  0.65556  1.0000
  C   C2616     1.0  0.66509  0.42036  0.48852  1.0000
  H   H4611     1.0  0.83453  0.56376  0.71894  1.0000
  C   C2617     1.0  0.90800  0.58576  0.73262  1.0000
  C   C2618     1.0  0.73572  0.34272  0.61234  1.0000
  H   H4612     1.0  0.84352  0.33983  0.51440  1.0000
  C   C2619     1.0  0.95728  0.36820  0.64880  1.0000
  C   C2620     1.0  0.51530  0.62182  0.72380  1.0000
  H   H4613     1.0  0.89661  0.52052  0.69254  1.0000
  H   H4614     1.0  0.94510  0.54318  0.71662  1.0000
  C   C2621     1.0  0.64046  0.35479  0.61179  1.0000
  Fe  Fe294     1.0  0.57647  0.64808  0.64037  1.0000
  H   H4615     1.0  0.55432  0.55002  0.60282  1.0000
  H   H4616     1.0  0.51967  0.42230  0.71597  1.0000
  H   H4617     1.0  0.80967  0.35428  0.60728  1.0000
  C   C2622     1.0  0.60863  0.59087  0.71882  1.0000
  H   H4618     1.0  0.95777  0.51749  0.71407  1.0000
  H   H4619     1.0  0.74472  0.34819  0.49977  1.0000
  H   H4620     1.0  0.63535  0.57684  0.69984  1.0000
  H   H4621     1.0  0.60542  0.40309  0.53537  1.0000
  H   H4622     1.0  0.94385  0.46790  0.63392  1.0000
  H   H4623     1.0  0.83967  0.57489  0.69393  1.0000
  C   C2623     1.0  0.91683  0.52160  0.66469  1.0000
  C   C2624     1.0  0.63716  0.36559  0.59166  1.0000
  H   H4624     1.0  0.81255  0.32842  0.62097  1.0000
  H   H4625     1.0  0.96979  0.50456  0.68183  1.0000
  H   H4626     1.0  0.94661  0.43160  0.60478  1.0000
  H   H4627     1.0  0.89852  0.50078  0.66405  1.0000
  C   C2625     1.0  0.54481  0.55094  0.59285  1.0000
  C   C2626     1.0  0.79224  0.34063  0.53683  1.0000
  H   H4628     1.0  0.92253  0.45945  0.63163  1.0000
  C   C2627     1.0  0.78153  0.34559  0.55616  1.0000
  H   H4629     1.0  0.61578  0.49752  0.71796  1.0000
  C   C2628     1.0  0.59913  0.37547  0.59925  1.0000
  H   H4630     1.0  0.98092  0.51014  0.62190  1.0000
  H   H4631     1.0  0.64722  0.37654  0.50779  1.0000
  H   H4632     1.0  0.51797  0.52178  0.72735  1.0000
  H   H4633     1.0  0.76693  0.33278  0.50842  1.0000
  S   S588      1.0  0.55978  0.64459  0.71135  1.0000
  S   S589      1.0  0.54624  0.46762  0.68554  1.0000
  H   H4634     1.0  0.74937  0.35721  0.58429  1.0000
  C   C2629     1.0  0.62005  0.58693  0.69928  1.0000
  H   H4635     1.0  0.94820  0.43086  0.64530  1.0000
  S   S590      1.0  0.99539  0.53367  0.69189  1.0000
  H   H4636     1.0  0.74348  0.34851  0.62018  1.0000
  H   H4637     1.0  0.49919  0.53182  0.65750  1.0000
  N   N147      1.0  0.80909  0.44148  0.61308  1.0000
  C   C2630     1.0  0.79510  0.44430  0.60001  1.0000
  C   C2631     1.0  0.83017  0.44431  0.60164  1.0000
  C   C2632     1.0  0.81096  0.41974  0.62465  1.0000
  C   C2633     1.0  0.80055  0.45560  0.62671  1.0000
  C   C2634     1.0  0.79625  0.47882  0.61804  1.0000
  C   C2635     1.0  0.77349  0.43975  0.60951  1.0000
  C   C2636     1.0  0.82816  0.41201  0.63601  1.0000
  C   C2637     1.0  0.83141  0.46054  0.58267  1.0000
  C   C2638     1.0  0.85307  0.46444  0.57447  1.0000
  C   C2639     1.0  0.78497  0.49099  0.63332  1.0000
  C   C2640     1.0  0.76034  0.44498  0.59491  1.0000
  C   C2641     1.0  0.82597  0.39167  0.64995  1.0000
  H   H4638     1.0  0.80246  0.43423  0.58971  1.0000
  H   H4639     1.0  0.79291  0.46000  0.59115  1.0000
  H   H4640     1.0  0.83892  0.44754  0.61045  1.0000
  H   H4641     1.0  0.83916  0.42980  0.59741  1.0000
  H   H4642     1.0  0.81381  0.40885  0.61531  1.0000
  H   H4643     1.0  0.79632  0.41771  0.63497  1.0000
  H   H4644     1.0  0.78629  0.45168  0.63659  1.0000
  H   H4645     1.0  0.81127  0.45335  0.63597  1.0000
  H   H4646     1.0  0.78665  0.48289  0.60749  1.0000
  H   H4647     1.0  0.81092  0.48393  0.61139  1.0000
  H   H4648     1.0  0.77452  0.42325  0.61620  1.0000
  H   H4649     1.0  0.76540  0.44886  0.62037  1.0000
  H   H4650     1.0  0.82821  0.42296  0.64421  1.0000
  H   H4651     1.0  0.84332  0.40947  0.62626  1.0000
  H   H4652     1.0  0.82725  0.45497  0.57204  1.0000
  H   H4653     1.0  0.82095  0.47536  0.58413  1.0000
  H   H4654     1.0  0.85334  0.47646  0.56124  1.0000
  H   H4655     1.0  0.85835  0.46962  0.58466  1.0000
  H   H4656     1.0  0.86385  0.45029  0.57103  1.0000
  H   H4657     1.0  0.79409  0.48786  0.64417  1.0000
  H   H4658     1.0  0.78250  0.50762  0.62682  1.0000
  H   H4659     1.0  0.76980  0.48700  0.64026  1.0000
  H   H4660     1.0  0.74532  0.44064  0.60183  1.0000
  H   H4661     1.0  0.75761  0.46164  0.58855  1.0000
  H   H4662     1.0  0.76796  0.43643  0.58351  1.0000
  H   H4663     1.0  0.83922  0.38593  0.65689  1.0000
  H   H4664     1.0  0.81172  0.39368  0.66106  1.0000
  H   H4665     1.0  0.82565  0.38004  0.64255  1.0000
  H   H4666     1.0  0.65074  0.35965  0.58125  1.0000
  N   N148      1.0  0.54635  0.53246  0.71930  1.0000
  Fe  Fe295     1.0  0.69043  0.39952  0.56647  1.0000
  H   H4667     1.0  0.63271  0.40052  0.53239  1.0000
  H   H4668     1.0  0.95724  0.37589  0.61048  1.0000
  H   H4669     1.0  0.90758  0.56724  0.65405  1.0000
  H   H4670     1.0  0.93046  0.55293  0.66094  1.0000
  N   N149      1.0  0.62522  0.49095  0.60035  1.0000
  C   C2642     1.0  0.63868  0.47961  0.58541  1.0000
  C   C2643     1.0  0.60401  0.48669  0.60476  1.0000
  C   C2644     1.0  0.62494  0.51349  0.59302  1.0000
  C   C2645     1.0  0.63310  0.48390  0.61834  1.0000
  C   C2646     1.0  0.63891  0.46040  0.62561  1.0000
  C   C2647     1.0  0.66151  0.48122  0.57972  1.0000
  C   C2648     1.0  0.61028  0.52766  0.60602  1.0000
  C   C2649     1.0  0.59179  0.49616  0.58891  1.0000
  C   C2650     1.0  0.57092  0.49026  0.59496  1.0000
  C   C2651     1.0  0.64358  0.45498  0.64526  1.0000
  C   C2652     1.0  0.67410  0.46668  0.56676  1.0000
  C   C2653     1.0  0.61043  0.55014  0.59680  1.0000
  H   H4671     1.0  0.63301  0.48530  0.57212  1.0000
  H   H4672     1.0  0.63786  0.46315  0.58983  1.0000
  H   H4673     1.0  0.60474  0.46992  0.60816  1.0000
  H   H4674     1.0  0.59445  0.49199  0.61772  1.0000
  H   H4675     1.0  0.62127  0.51880  0.57876  1.0000
  H   H4676     1.0  0.64045  0.51647  0.59088  1.0000
  H   H4677     1.0  0.64672  0.49025  0.61679  1.0000
  H   H4678     1.0  0.62143  0.49007  0.63000  1.0000
  H   H4679     1.0  0.65267  0.45347  0.61602  1.0000
  H   H4680     1.0  0.62630  0.45310  0.62654  1.0000
  H   H4681     1.0  0.66306  0.49698  0.57188  1.0000
  H   H4682     1.0  0.66842  0.47738  0.59217  1.0000
  H   H4683     1.0  0.61507  0.52430  0.61961  1.0000
  H   H4684     1.0  0.59427  0.52579  0.60915  1.0000
  H   H4685     1.0  0.58899  0.51310  0.58560  1.0000
  H   H4686     1.0  0.59998  0.49072  0.57577  1.0000
  H   H4687     1.0  0.57279  0.47355  0.59665  1.0000
  H   H4688     1.0  0.56235  0.49454  0.60857  1.0000
  H   H4689     1.0  0.56184  0.49830  0.58405  1.0000
  H   H4690     1.0  0.62995  0.46078  0.65568  1.0000
  H   H4691     1.0  0.64772  0.43808  0.64998  1.0000
  H   H4692     1.0  0.65660  0.46153  0.64497  1.0000
  H   H4693     1.0  0.67379  0.45056  0.57424  1.0000
  H   H4694     1.0  0.66805  0.47008  0.55380  1.0000
  H   H4695     1.0  0.69028  0.46840  0.56248  1.0000
  H   H4696     1.0  0.60006  0.55988  0.60651  1.0000
  H   H4697     1.0  0.62607  0.55308  0.59387  1.0000
  H   H4698     1.0  0.60501  0.55457  0.58341  1.0000
  C   C2654     1.0  0.51293  0.54898  0.61938  1.0000
  H   H4699     1.0  0.50228  0.56885  0.64713  1.0000
  H   H4700     1.0  0.58132  0.35261  0.61683  1.0000
  C   C2655     1.0  0.88248  0.56514  0.68813  1.0000
  N   N150      1.0  0.90304  0.55109  0.68333  1.0000
  C   C2656     1.0  0.93948  0.40238  0.59446  1.0000
  H   H4701     1.0  0.95130  0.40982  0.58386  1.0000
  S   S591      1.0  0.66238  0.42954  0.50867  1.0000
  H   H4702     1.0  0.60138  0.35372  0.62688  1.0000
  H   H4703     1.0  0.50908  0.56590  0.61423  1.0000
  C   C2657     1.0  0.97883  0.50082  0.63612  1.0000
  H   H4704     1.0  0.87567  0.57129  0.67541  1.0000
  C   C2658     1.0  0.93921  0.45894  0.62628  1.0000
  H   H4705     1.0  0.56266  0.38744  0.62356  1.0000
  H   H4706     1.0  0.92576  0.41457  0.59752  1.0000
  H   H4707     1.0  0.88112  0.51463  0.72544  1.0000
  C   C2659     1.0  0.57456  0.37722  0.63110  1.0000
  C   C2660     1.0  0.49625  0.42911  0.66283  1.0000
  H   H4708     1.0  0.61112  0.57972  0.69377  1.0000
  H   H4709     1.0  0.53538  0.51352  0.70749  1.0000
  C   C2661     1.0  0.52211  0.39130  0.71524  1.0000
  H   H4710     1.0  0.51942  0.53939  0.59214  1.0000
  H   H4711     1.0  0.65626  0.65912  0.62212  1.0000
  C   C2662     1.0  0.78241  0.33962  0.59779  1.0000
  C   C2663     1.0  0.71510  0.35736  0.61130  1.0000
  H   H4712     1.0  0.53349  0.40391  0.73230  1.0000
  H   H4713     1.0  0.68403  0.34036  0.51007  1.0000
  C   C2664     1.0  0.95671  0.36040  0.66993  1.0000
  C   C2665     1.0  0.56833  0.52645  0.70878  1.0000
  C   C2666     1.0  0.66250  0.35276  0.61300  1.0000
  C   C2667     1.0  0.93350  0.59224  0.64940  1.0000
  H   H4714     1.0  0.92436  0.59757  0.63834  1.0000
  H   H4715     1.0  0.93777  0.60566  0.65141  1.0000
  H   H4716     1.0  0.94780  0.58147  0.64450  1.0000
  H   H4717     1.0  0.67382  0.37748  0.50431  1.0000
  H   H4718     1.0  0.56825  0.44670  0.72696  1.0000
  C   C2668     1.0  0.87888  0.48315  0.73507  1.0000
  H   H4719     1.0  0.63038  0.36406  0.62203  1.0000
  H   H4720     1.0  0.92762  0.39739  0.57274  1.0000
  C   C2669     1.0  0.58974  0.36309  0.61883  1.0000
  Fe  Fe296     1.0  0.99194  0.56667  0.69227  1.0000
  C   C2670     1.0  0.95208  0.39201  0.64330  1.0000
  C   C2671     1.0  0.89963  0.53223  0.67922  1.0000
  N   N151      1.0  0.61773  0.36435  0.58720  1.0000
  C   C2672     1.0  0.98591  0.40855  0.59370  1.0000
  C   C2673     1.0  0.52758  0.48095  0.73599  1.0000
  H   H4721     1.0  0.91310  0.55927  0.70445  1.0000
  H   H4722     1.0  0.63670  0.33572  0.56264  1.0000
  H   H4723     1.0  0.93217  0.51972  0.66723  1.0000
  H   H4724     1.0  0.92814  0.42472  0.62529  1.0000
  S   S592      1.0  0.71646  0.37291  0.56153  1.0000
  H   H4725     1.0  0.75441  0.35669  0.51541  1.0000
  H   H4726     1.0  0.94595  0.36177  0.64559  1.0000
  H   H4727     1.0  0.57433  0.54027  0.70001  1.0000
  C   C2674     1.0  0.97240  0.49774  0.66991  1.0000
  H   H4728     1.0  0.80171  0.39352  0.52279  1.0000
  H   H4729     1.0  0.63264  0.42637  0.49049  1.0000
  H   H4730     1.0  0.62074  0.56028  0.73212  1.0000
  H   H4731     1.0  0.63292  0.36884  0.55748  1.0000
  H   H4732     1.0  0.60312  0.49589  0.70076  1.0000
  H   H4733     1.0  0.81267  0.33901  0.57867  1.0000
  H   H4734     1.0  0.58269  0.38674  0.63488  1.0000
  C   C2675     1.0  0.94650  0.39044  0.61306  1.0000
  H   H4735     1.0  0.52622  0.57137  0.66242  1.0000
  H   H4736     1.0  0.74042  0.33543  0.58498  1.0000
  H   H4737     1.0  0.96911  0.46790  0.68711  1.0000
  H   H4738     1.0  0.60014  0.40594  0.56880  1.0000
  C   C2676     1.0  0.91559  0.56268  0.66596  1.0000
  C   C2677     1.0  0.95131  0.43689  0.62981  1.0000
  S   S593      1.0  0.50687  0.62571  0.66877  1.0000
  H   H4739     1.0  0.57938  0.50136  0.73170  1.0000
  C   C2678     1.0  0.91268  0.54538  0.70017  1.0000
  H   H4740     1.0  0.66437  0.34545  0.62766  1.0000
  N   N152      1.0  0.95564  0.40152  0.62232  1.0000
  H   H4741     1.0  0.91662  0.53096  0.65015  1.0000
  C   C2679     1.0  0.53454  0.51636  0.72151  1.0000
  N   N153      1.0  0.77036  0.32862  0.59148  1.0000
  H   H4742     1.0  0.94503  0.53832  0.68555  1.0000
  C   C2680     1.0  0.92115  0.58194  0.66808  1.0000
  H   H4743     1.0  0.62718  0.40311  0.56566  1.0000
  C   C2681     1.0  0.94280  0.52842  0.71541  1.0000
  H   H4744     1.0  0.66848  0.65218  0.67564  1.0000
  H   H4745     1.0  0.93078  0.57763  0.67863  1.0000
  H   H4746     1.0  0.92124  0.38087  0.59558  1.0000
  C   C2682     1.0  0.53590  0.55128  0.68744  1.0000
  C   C2683     1.0  0.75885  0.34870  0.50355  1.0000
  H   H4747     1.0  0.51816  0.62491  0.62849  1.0000
  H   H4748     1.0  0.87110  0.55199  0.71826  1.0000
  H   H4749     1.0  0.54425  0.56463  0.70633  1.0000
  C   C2684     1.0  0.84572  0.57081  0.70695  1.0000
  H   H4750     1.0  0.52249  0.37594  0.72481  1.0000
  Fe  Fe297     1.0  0.68463  0.40983  0.52625  1.0000
  H   H4751     1.0  0.55479  0.54387  0.58103  1.0000
  H   H4752     1.0  0.93578  0.39691  0.65030  1.0000
  H   H4753     1.0  0.91729  0.48974  0.67862  1.0000
  H   H4754     1.0  0.56691  0.36799  0.64440  1.0000
  C   C2685     1.0  0.98427  0.47040  0.73620  1.0000
  H   H4755     1.0  0.60254  0.38931  0.60145  1.0000
  H   H4756     1.0  0.64007  0.44454  0.72729  1.0000
  C   C2686     1.0  0.63462  0.32924  0.57807  1.0000
  H   H4757     1.0  0.49771  0.62200  0.60728  1.0000
  C   C2687     1.0  0.91421  0.50034  0.66524  1.0000
  H   H4758     1.0  0.94136  0.36596  0.67838  1.0000
  H   H4759     1.0  0.63786  0.38177  0.58997  1.0000
  C   C2688     1.0  0.59978  0.64145  0.71289  1.0000
  S   S594      1.0  0.49765  0.44995  0.68840  1.0000
  H   H4760     1.0  0.73421  0.32824  0.54802  1.0000
  C   C2689     1.0  0.85656  0.33292  0.52148  1.0000
  C   C2690     1.0  0.61732  0.40684  0.54032  1.0000
  S   S595      1.0  0.69016  0.33480  0.54982  1.0000
  H   H4761     1.0  0.83605  0.34042  0.54716  1.0000
  H   H4762     1.0  0.52138  0.62682  0.73353  1.0000
  C   C2691     1.0  0.60493  0.50632  0.70873  1.0000
  Fe  Fe298     1.0  0.87279  0.35199  0.58684  1.0000
  Fe  Fe299     1.0  0.54015  0.62776  0.66130  1.0000
  C   C2692     1.0  0.62020  0.43716  0.71389  1.0000
  S   S596      1.0  0.67073  0.39013  0.55295  1.0000
  H   H4763     1.0  0.92545  0.49430  0.65337  1.0000
  H   H4764     1.0  0.70658  0.35215  0.60368  1.0000
  H   H4765     1.0  0.58625  0.38132  0.59176  1.0000
  H   H4766     1.0  0.50947  0.50960  0.63747  1.0000
  H   H4767     1.0  0.86372  0.54161  0.70229  1.0000
  S   S597      1.0  0.71006  0.38425  0.51764  1.0000
  C   C2693     1.0  0.91813  0.59211  0.71390  1.0000
  Fe  Fe300     1.0  0.72681  0.39408  0.53408  1.0000
  H   H4768     1.0  0.60418  0.63876  0.69872  1.0000
  H   H4769     1.0  0.50595  0.65564  0.69488  1.0000
  H   H4770     1.0  0.51333  0.58001  0.68398  1.0000
  S   S598      1.0  0.85473  0.36221  0.56424  1.0000
  H   H4771     1.0  0.50928  0.39511  0.70792  1.0000
  C   C2694     1.0  0.52821  0.57252  0.67613  1.0000
  H   H4772     1.0  0.62224  0.60166  0.68931  1.0000
  H   H4773     1.0  0.98514  0.40541  0.62331  1.0000
  H   H4774     1.0  0.94695  0.37633  0.58117  1.0000
  C   C2695     1.0  0.93352  0.38829  0.58548  1.0000
  Fe  Fe301     1.0  0.99055  0.54619  0.66228  1.0000
  H   H4775     1.0  0.94231  0.46617  0.61097  1.0000
  C   C2696     1.0  0.58440  0.51450  0.72090  1.0000
  H   H4776     1.0  0.52014  0.55708  0.71451  1.0000
  C   C2697     1.0  0.61537  0.39841  0.56159  1.0000
  S   S599      1.0  0.97220  0.53629  0.64761  1.0000
  H   H4777     1.0  0.66639  0.36804  0.60919  1.0000
  S   S600      1.0  0.98364  0.57908  0.66409  1.0000
  H   H4778     1.0  0.50151  0.44835  0.72682  1.0000
  H   H4779     1.0  0.61781  0.59867  0.72334  1.0000
  H   H4780     1.0  0.97268  0.36178  0.64112  1.0000
  H   H4781     1.0  0.52312  0.62771  0.70914  1.0000
  H   H4782     1.0  0.97802  0.42468  0.58965  1.0000
  H   H4783     1.0  0.59617  0.56354  0.72792  1.0000
  H   H4784     1.0  0.84738  0.58492  0.71009  1.0000
  H   H4785     1.0  0.90317  0.53697  0.71270  1.0000
  H   H4786     1.0  0.86564  0.34468  0.51903  1.0000
  H   H4787     1.0  0.60594  0.37121  0.56185  1.0000
  C   C2698     1.0  0.94485  0.42371  0.61989  1.0000
  H   H4788     1.0  0.65883  0.63353  0.66996  1.0000
  H   H4789     1.0  0.88564  0.53598  0.67342  1.0000
  H   H4790     1.0  0.50313  0.51511  0.61524  1.0000
  C   C2699     1.0  0.62438  0.44527  0.72711  1.0000
  S   S601      1.0  0.54851  0.65613  0.66268  1.0000
  H   H4791     1.0  0.53665  0.39088  0.70436  1.0000
  H   H4792     1.0  0.93227  0.52205  0.72847  1.0000
  H   H4793     1.0  0.89212  0.34439  0.49348  1.0000
  C   C2700     1.0  0.52102  0.59851  0.72773  1.0000
  H   H4794     1.0  0.60205  0.34222  0.58553  1.0000
  C   C2701     1.0  0.57911  0.64484  0.72205  1.0000
  H   H4795     1.0  0.98605  0.38269  0.61681  1.0000
  H   H4796     1.0  0.98353  0.39936  0.58488  1.0000
  H   H4797     1.0  0.98480  0.41503  0.69802  1.0000
  H   H4798     1.0  0.80791  0.33145  0.53701  1.0000
  C   C2702     1.0  0.66009  0.64983  0.66610  1.0000
  H   H4799     1.0  0.51627  0.59295  0.71749  1.0000
  H   H4800     1.0  0.64903  0.32798  0.58233  1.0000
  C   C2703     1.0  0.49724  0.51828  0.62961  1.0000
  H   H4801     1.0  0.52632  0.47935  0.72215  1.0000
  H   H4802     1.0  0.55723  0.48795  0.72590  1.0000
  C   C2704     1.0  0.58386  0.44665  0.72679  1.0000
  C   C2705     1.0  0.80600  0.33206  0.59347  1.0000
  H   H4803     1.0  0.98821  0.44491  0.72405  1.0000
  H   H4804     1.0  0.53783  0.59334  0.72624  1.0000
  H   H4805     1.0  0.78352  0.33185  0.53287  1.0000
  C   C2706     1.0  0.89841  0.32824  0.49201  1.0000
  C   C2707     1.0  0.84763  0.32719  0.54267  1.0000
  Fe  Fe302     1.0  0.84964  0.56491  0.80791  1.0000
  S   S602      1.0  0.87685  0.57883  0.79234  1.0000
  S   S603      1.0  0.82481  0.57705  0.83064  1.0000
  Fe  Fe303     1.0  0.86591  0.52696  0.79190  1.0000
  S   S604      1.0  0.89507  0.53675  0.77507  1.0000
  S   S605      1.0  0.85824  0.49693  0.79389  1.0000
  Fe  Fe304     1.0  0.89500  0.54725  0.80065  1.0000
  S   S606      1.0  0.92387  0.54187  0.81076  1.0000
  Fe  Fe305     1.0  0.87483  0.56755  0.76790  1.0000
  H   H4806     1.0  0.76594  0.51870  0.80084  1.0000
  S   S607      1.0  0.86793  0.53415  0.81829  1.0000
  S   S608      1.0  0.84549  0.55698  0.78251  1.0000
  H   H4807     1.0  0.67011  0.60721  0.84308  1.0000
  C   C2708     1.0  0.62930  0.37569  0.81449  1.0000
  Fe  Fe306     1.0  0.60883  0.59976  0.81693  1.0000
  S   S609      1.0  0.61629  0.56531  0.82357  1.0000
  H   H4808     1.0  0.74334  0.65324  0.84814  1.0000
  H   H4809     1.0  0.78885  0.60989  0.84281  1.0000
  C   C2709     1.0  0.77251  0.63802  0.88914  1.0000
  S   S610      1.0  0.82515  0.62321  0.89384  1.0000
  H   H4810     1.0  0.57932  0.64608  0.89311  1.0000
  H   H4811     1.0  0.91747  0.61595  0.81982  1.0000
  C   C2710     1.0  0.52480  0.60121  0.82953  1.0000
  H   H4812     1.0  0.53398  0.53332  0.77768  1.0000
  H   H4813     1.0  0.80932  0.53714  0.74553  1.0000
  Fe  Fe307     1.0  0.66851  0.34237  0.87127  1.0000
  S   S611      1.0  0.66075  0.37650  0.86038  1.0000
  H   H4814     1.0  0.79473  0.56406  0.78997  1.0000
  C   C2711     1.0  0.87396  0.65890  0.95885  1.0000
  C   C2712     1.0  0.73082  0.32773  0.95886  1.0000
  H   H4815     1.0  0.79073  0.51718  0.77421  1.0000
  C   C2713     1.0  0.95447  0.46196  0.87491  1.0000
  H   H4816     1.0  0.98482  0.54408  0.74543  1.0000
  Fe  Fe308     1.0  0.58761  0.46380  0.78286  1.0000
  S   S612      1.0  0.56941  0.43927  0.79503  1.0000
  C   C2714     1.0  0.85226  0.63408  0.97362  1.0000
  Fe  Fe309     1.0  0.56083  0.49118  0.80912  1.0000
  S   S613      1.0  0.54028  0.46893  0.82389  1.0000
  S   S614      1.0  0.55113  0.52351  0.81318  1.0000
  Fe  Fe310     1.0  0.56937  0.44494  0.82295  1.0000
  S   S615      1.0  0.57165  0.41726  0.84694  1.0000
  Fe  Fe311     1.0  0.54214  0.46513  0.79500  1.0000
  S   S616      1.0  0.59000  0.46761  0.81073  1.0000
  S   S617      1.0  0.56040  0.48914  0.78020  1.0000
  C   C2715     1.0  0.71217  0.62473  0.84449  1.0000
  H   H4817     1.0  0.63500  0.34591  0.84689  1.0000
  C   C2716     1.0  0.75259  0.64822  0.95629  1.0000
  H   H4818     1.0  0.94804  0.41735  0.79276  1.0000
  C   C2717     1.0  0.54573  0.53672  0.73808  1.0000
  H   H4819     1.0  0.52936  0.58553  0.83681  1.0000
  H   H4820     1.0  0.88508  0.42207  0.79263  1.0000
  H   H4821     1.0  0.88666  0.65561  0.81108  1.0000
  C   C2718     1.0  0.98836  0.37196  0.74892  1.0000
  H   H4822     1.0  0.88677  0.61799  0.79626  1.0000
  C   C2719     1.0  0.79139  0.56087  0.80563  1.0000
  H   H4823     1.0  0.96195  0.45305  0.86373  1.0000
  H   H4824     1.0  0.66114  0.43837  0.80103  1.0000
  H   H4825     1.0  0.53991  0.52030  0.85508  1.0000
  H   H4826     1.0  0.71695  0.62885  0.82880  1.0000
  H   H4827     1.0  0.65684  0.39084  0.76989  1.0000
  H   H4828     1.0  0.51616  0.52964  0.75508  1.0000
  C   C2720     1.0  0.63541  0.38815  0.85849  1.0000
  C   C2721     1.0  0.61960  0.37739  0.86612  1.0000
  C   C2722     1.0  0.59987  0.38664  0.86296  1.0000
  C   C2723     1.0  0.59595  0.40661  0.85209  1.0000
  C   C2724     1.0  0.61158  0.41759  0.84509  1.0000
  C   C2725     1.0  0.63120  0.40847  0.84849  1.0000
  H   H4829     1.0  0.62263  0.36188  0.87428  1.0000
  H   H4830     1.0  0.58773  0.37817  0.86862  1.0000
  H   H4831     1.0  0.60852  0.43316  0.83718  1.0000
  H   H4832     1.0  0.64327  0.41703  0.84299  1.0000
  S   S618      1.0  0.83511  0.62006  0.97255  1.0000
  S   S619      1.0  0.77124  0.61419  0.92469  1.0000
  C   C2726     1.0  0.97217  0.52142  0.76843  1.0000
  C   C2727     1.0  0.95973  0.37634  0.80653  1.0000
  H   H4833     1.0  0.81743  0.53003  0.79334  1.0000
  H   H4834     1.0  0.63375  0.44154  0.80777  1.0000
  C   C2728     1.0  0.59765  0.55357  0.82182  1.0000
  C   C2729     1.0  0.60223  0.53243  0.82289  1.0000
  C   C2730     1.0  0.58781  0.52287  0.82084  1.0000
  C   C2731     1.0  0.56883  0.53447  0.81760  1.0000
  C   C2732     1.0  0.56399  0.55545  0.81718  1.0000
  C   C2733     1.0  0.57841  0.56504  0.81914  1.0000
  H   H4835     1.0  0.61703  0.52347  0.82516  1.0000
  H   H4836     1.0  0.59150  0.50660  0.82152  1.0000
  H   H4837     1.0  0.54916  0.56435  0.81498  1.0000
  H   H4838     1.0  0.57461  0.58127  0.81863  1.0000
  H   H4839     1.0  0.61965  0.34887  0.81175  1.0000
  C   C2734     1.0  0.83635  0.57519  0.84920  1.0000
  C   C2735     1.0  0.82448  0.57889  0.86671  1.0000
  C   C2736     1.0  0.83403  0.57823  0.88111  1.0000
  C   C2737     1.0  0.85542  0.57409  0.87791  1.0000
  C   C2738     1.0  0.86715  0.56989  0.86062  1.0000
  C   C2739     1.0  0.85770  0.57052  0.84630  1.0000
  H   H4840     1.0  0.80796  0.58251  0.86910  1.0000
  H   H4841     1.0  0.82481  0.58119  0.89459  1.0000
  H   H4842     1.0  0.88356  0.56725  0.85794  1.0000
  H   H4843     1.0  0.86707  0.56807  0.83280  1.0000
  C   C2740     1.0  0.93380  0.51570  0.81277  1.0000
  N   N154      1.0  0.63152  0.38728  0.79411  1.0000
  S   S620      1.0  0.82485  0.59445  0.93690  1.0000
  C   C2741     1.0  0.94949  0.47401  0.81402  1.0000
  C   C2742     1.0  0.92931  0.48257  0.81252  1.0000
  C   C2743     1.0  0.92161  0.50337  0.81156  1.0000
  H   H4844     1.0  0.62622  0.32637  0.84182  1.0000
  C   C2744     1.0  0.51501  0.64560  0.86860  1.0000
  H   H4845     1.0  0.91970  0.47329  0.81155  1.0000
  H   H4846     1.0  0.90622  0.50974  0.80975  1.0000
  H   H4847     1.0  0.91454  0.51309  0.84999  1.0000
  C   C2745     1.0  0.59920  0.39250  0.75797  1.0000
  H   H4848     1.0  0.90650  0.41911  0.82403  1.0000
  C   C2746     1.0  0.87080  0.50699  0.75558  1.0000
  C   C2747     1.0  0.86541  0.49170  0.77128  1.0000
  C   C2748     1.0  0.86614  0.47223  0.76884  1.0000
  C   C2749     1.0  0.79937  0.51116  0.82913  1.0000
  C   C2750     1.0  0.53618  0.61559  0.82821  1.0000
  H   H4849     1.0  0.86987  0.52217  0.75727  1.0000
  H   H4850     1.0  0.86160  0.46048  0.78094  1.0000
  H   H4851     1.0  0.75618  0.60997  0.97662  1.0000
  H   H4852     1.0  0.73362  0.34324  0.95140  1.0000
  H   H4853     1.0  0.63012  0.41918  0.77962  1.0000
  C   C2751     1.0  0.95370  0.50702  0.81541  1.0000
  C   C2752     1.0  0.62997  0.57055  0.76168  1.0000
  C   C2753     1.0  0.50773  0.60692  0.82138  1.0000
  H   H4854     1.0  0.76530  0.54905  0.80751  1.0000
  H   H4855     1.0  0.90471  0.64911  0.82533  1.0000
  H   H4856     1.0  0.88293  0.37850  0.79534  1.0000
  H   H4857     1.0  0.92188  0.60874  0.88107  1.0000
  N   N155      1.0  0.71752  0.63914  0.85325  1.0000
  H   H4858     1.0  0.61245  0.37137  0.78743  1.0000
  H   H4859     1.0  0.58378  0.65106  0.76377  1.0000
  C   C2754     1.0  0.93652  0.40872  0.79311  1.0000
  C   C2755     1.0  0.51285  0.64188  0.81137  1.0000
  C   C2756     1.0  0.68627  0.60900  0.83859  1.0000
  H   H4860     1.0  0.90852  0.40702  0.76516  1.0000
  C   C2757     1.0  0.77404  0.51068  0.81252  1.0000
  H   H4861     1.0  0.52490  0.39498  0.76800  1.0000
  S   S621      1.0  0.69881  0.32983  0.87954  1.0000
  Fe  Fe312     1.0  0.83347  0.64666  0.90370  1.0000
  C   C2758     1.0  0.91901  0.57888  0.74694  1.0000
  H   H4862     1.0  0.91817  0.38504  0.78202  1.0000
  H   H4863     1.0  0.59875  0.39258  0.79727  1.0000
  H   H4864     1.0  0.60761  0.37743  0.75473  1.0000
  H   H4865     1.0  0.74581  0.48556  0.82273  1.0000
  C   C2759     1.0  0.69482  0.63791  0.88759  1.0000
  H   H4866     1.0  0.57570  0.46030  0.75106  1.0000
  S   S622      1.0  0.61424  0.46145  0.75827  1.0000
  S   S623      1.0  0.62776  0.64330  0.75283  1.0000
  H   H4867     1.0  0.54944  0.61094  0.83443  1.0000
  H   H4868     1.0  0.90162  0.59788  0.82504  1.0000
  H   H4869     1.0  0.97759  0.50586  0.77657  1.0000
  H   H4870     1.0  0.76880  0.64194  0.95685  1.0000
  C   C2760     1.0  0.69406  0.62577  0.90794  1.0000
  H   H4871     1.0  0.51457  0.55621  0.74378  1.0000
  H   H4872     1.0  0.71476  0.32739  0.95950  1.0000
  H   H4873     1.0  0.85614  0.64994  0.94440  1.0000
  H   H4874     1.0  0.81451  0.50535  0.79471  1.0000
  H   H4875     1.0  0.89130  0.37886  0.77039  1.0000
  H   H4876     1.0  0.80662  0.49506  0.82786  1.0000
  H   H4877     1.0  0.77724  0.57880  0.82725  1.0000
  C   C2761     1.0  0.73980  0.50015  0.82765  1.0000
  H   H4878     1.0  0.51071  0.55249  0.77735  1.0000
  H   H4879     1.0  0.94176  0.40303  0.77986  1.0000
  C   C2762     1.0  0.90966  0.43131  0.81115  1.0000
  C   C2763     1.0  0.89060  0.44913  0.81216  1.0000
  H   H4880     1.0  0.97575  0.46320  0.75015  1.0000
  H   H4881     1.0  0.96846  0.51052  0.74541  1.0000
  H   H4882     1.0  0.86579  0.61099  0.82621  1.0000
  C   C2764     1.0  0.50184  0.62727  0.81212  1.0000
  Fe  Fe313     1.0  0.61555  0.63614  0.78441  1.0000
  H   H4883     1.0  0.52940  0.52892  0.87687  1.0000
  C   C2765     1.0  0.50191  0.52239  0.84721  1.0000
  C   C2766     1.0  0.75711  0.50758  0.83085  1.0000
  H   H4884     1.0  0.62491  0.53476  0.75749  1.0000
  C   C2767     1.0  0.65176  0.36105  0.77287  1.0000
  C   C2768     1.0  0.60840  0.45344  0.74064  1.0000
  C   C2769     1.0  0.88729  0.61774  0.85212  1.0000
  C   C2770     1.0  0.64761  0.43596  0.79750  1.0000
  C   C2771     1.0  0.61313  0.38714  0.78727  1.0000
  C   C2772     1.0  0.60756  0.58169  0.76147  1.0000
  H   H4885     1.0  0.69627  0.59359  0.84144  1.0000
  H   H4886     1.0  0.94268  0.45407  0.88528  1.0000
  C   C2773     1.0  0.90759  0.60787  0.87775  1.0000
  H   H4887     1.0  0.90133  0.44863  0.77508  1.0000
  Fe  Fe314     1.0  0.80292  0.61854  0.92165  1.0000
  S   S624      1.0  0.63493  0.61602  0.80457  1.0000
  H   H4888     1.0  0.98976  0.59574  0.79388  1.0000
  H   H4889     1.0  0.82287  0.54413  0.75917  1.0000
  H   H4890     1.0  0.82692  0.51768  0.75788  1.0000
  C   C2774     1.0  0.89969  0.41114  0.79457  1.0000
  H   H4891     1.0  0.78186  0.49523  0.80966  1.0000
  C   C2775     1.0  0.73873  0.65147  0.97569  1.0000
  C   C2776     1.0  0.61147  0.40051  0.76728  1.0000
  H   H4892     1.0  0.71762  0.62595  0.97189  1.0000
  C   C2777     1.0  0.52614  0.54720  0.76888  1.0000
  H   H4893     1.0  0.93871  0.48218  0.75486  1.0000
  H   H4894     1.0  0.68169  0.63619  0.88308  1.0000
  H   H4895     1.0  0.51492  0.43501  0.81725  1.0000
  H   H4896     1.0  0.98551  0.56916  0.75932  1.0000
  H   H4897     1.0  0.77486  0.63004  0.98424  1.0000
  H   H4898     1.0  0.92397  0.48821  0.89276  1.0000
  H   H4899     1.0  0.66416  0.40851  0.78826  1.0000
  H   H4900     1.0  0.94664  0.49751  0.88730  1.0000
  H   H4901     1.0  0.96171  0.42029  0.75095  1.0000
  S   S625      1.0  0.86781  0.57631  0.89439  1.0000
  H   H4902     1.0  0.63031  0.55565  0.77201  1.0000
  H   H4903     1.0  0.57461  0.63215  0.87816  1.0000
  C   C2778     1.0  0.86035  0.64782  0.95766  1.0000
  H   H4904     1.0  0.55392  0.52329  0.74697  1.0000
  H   H4905     1.0  0.58921  0.65680  0.84960  1.0000
  H   H4906     1.0  0.76491  0.58629  0.80736  1.0000
  H   H4907     1.0  0.72684  0.63602  0.87926  1.0000
  H   H4908     1.0  0.92708  0.38061  0.81171  1.0000
  H   H4909     1.0  0.89995  0.48714  0.87827  1.0000
  H   H4910     1.0  0.60699  0.52958  0.74730  1.0000
  H   H4911     1.0  0.87746  0.44531  0.80928  1.0000
  H   H4912     1.0  0.90196  0.51828  0.90105  1.0000
  H   H4913     1.0  0.68163  0.36251  0.75385  1.0000
  C   C2779     1.0  0.79787  0.52889  0.77591  1.0000
  H   H4914     1.0  0.69510  0.60932  0.90882  1.0000
  H   H4915     1.0  0.64988  0.65006  0.87200  1.0000
  H   H4916     1.0  0.81339  0.63134  0.85207  1.0000
  C   C2780     1.0  0.88366  0.45427  0.83171  1.0000
  C   C2781     1.0  0.52119  0.40943  0.77292  1.0000
  C   C2782     1.0  0.77732  0.62344  0.83792  1.0000
  H   H4917     1.0  0.73341  0.57943  0.98249  1.0000
  N   N156      1.0  0.59557  0.57234  0.75341  1.0000
  H   H4918     1.0  0.73970  0.59601  0.95944  1.0000
  H   H4919     1.0  0.83670  0.51413  0.85060  1.0000
  H   H4920     1.0  0.91758  0.58912  0.79372  1.0000
  H   H4921     1.0  0.64173  0.59784  0.75790  1.0000
  H   H4922     1.0  0.89441  0.61554  0.88734  1.0000
  H   H4923     1.0  0.52429  0.43196  0.74636  1.0000
  H   H4924     1.0  0.96291  0.51648  0.81688  1.0000
  H   H4925     1.0  0.97375  0.55516  0.78092  1.0000
  H   H4926     1.0  0.97732  0.47953  0.81709  1.0000
  C   C2783     1.0  0.58838  0.64797  0.74975  1.0000
  C   C2784     1.0  0.64987  0.41324  0.79850  1.0000
  H   H4927     1.0  0.55751  0.65117  0.74747  1.0000
  C   C2785     1.0  0.93139  0.45371  0.77304  1.0000
  H   H4928     1.0  0.98314  0.59912  0.77157  1.0000
  H   H4929     1.0  0.50965  0.51522  0.81095  1.0000
  H   H4930     1.0  0.91739  0.60886  0.77249  1.0000
  C   C2786     1.0  0.98898  0.55766  0.77221  1.0000
  C   C2787     1.0  0.96177  0.48617  0.81562  1.0000
  H   H4931     1.0  0.81507  0.50213  0.86101  1.0000
  C   C2788     1.0  0.77982  0.58088  0.81168  1.0000
  H   H4932     1.0  0.61693  0.41553  0.80368  1.0000
  H   H4933     1.0  0.89595  0.40106  0.80880  1.0000
  H   H4934     1.0  0.89770  0.53302  0.85991  1.0000
  H   H4935     1.0  0.64618  0.34447  0.81297  1.0000
  H   H4936     1.0  0.75293  0.60732  0.84687  1.0000
  C   C2789     1.0  0.53011  0.63600  0.81933  1.0000
  C   C2790     1.0  0.97217  0.38901  0.74816  1.0000
  C   C2791     1.0  0.75667  0.32736  0.86548  1.0000
  C   C2792     1.0  0.51185  0.42782  0.75874  1.0000
  C   C2793     1.0  0.58809  0.45420  0.74048  1.0000
  Fe  Fe315     1.0  0.57725  0.63962  0.81513  1.0000
  H   H4937     1.0  0.87425  0.45269  0.74883  1.0000
  C   C2794     1.0  0.59271  0.55152  0.76562  1.0000
  H   H4938     1.0  0.99256  0.42106  0.76103  1.0000
  H   H4939     1.0  0.52395  0.54558  0.85503  1.0000
  H   H4940     1.0  0.94854  0.57220  0.75366  1.0000
  S   S626      1.0  0.95880  0.44820  0.81358  1.0000
  C   C2795     1.0  0.56032  0.58769  0.77301  1.0000
  C   C2796     1.0  0.60908  0.53258  0.76029  1.0000
  C   C2797     1.0  0.60720  0.51335  0.77586  1.0000
  Fe  Fe316     1.0  0.61791  0.63731  0.82413  1.0000
  C   C2798     1.0  0.54028  0.60303  0.77098  1.0000
  H   H4941     1.0  0.92258  0.43664  0.81292  1.0000
  H   H4942     1.0  0.89413  0.46310  0.80159  1.0000
  H   H4943     1.0  0.59154  0.55120  0.78073  1.0000
  H   H4944     1.0  0.57793  0.54841  0.76523  1.0000
  H   H4945     1.0  0.53481  0.55951  0.76543  1.0000
  C   C2799     1.0  0.88696  0.38840  0.78110  1.0000
  H   H4946     1.0  0.93379  0.60748  0.78775  1.0000
  H   H4947     1.0  0.60858  0.34993  0.84558  1.0000
  C   C2800     1.0  0.76064  0.63325  0.90740  1.0000
  H   H4948     1.0  0.62667  0.40134  0.75768  1.0000
  C   C2801     1.0  0.98360  0.58872  0.78566  1.0000
  H   H4949     1.0  0.56734  0.59277  0.78196  1.0000
  H   H4950     1.0  0.55639  0.57268  0.78060  1.0000
  H   H4951     1.0  0.91135  0.57426  0.76145  1.0000
  H   H4952     1.0  0.97164  0.38503  0.80487  1.0000
  H   H4953     1.0  0.61307  0.51409  0.78786  1.0000
  H   H4954     1.0  0.59106  0.51161  0.78095  1.0000
  H   H4955     1.0  0.61653  0.49965  0.77041  1.0000
  H   H4956     1.0  0.60732  0.59800  0.75414  1.0000
  H   H4957     1.0  0.83559  0.49225  0.84282  1.0000
  C   C2802     1.0  0.99067  0.53110  0.75631  1.0000
  H   H4958     1.0  0.53032  0.60360  0.78520  1.0000
  H   H4959     1.0  0.92361  0.56121  0.86486  1.0000
  H   H4960     1.0  0.53204  0.59833  0.76278  1.0000
  C   C2803     1.0  0.87336  0.46779  0.75074  1.0000
  H   H4961     1.0  0.90862  0.63440  0.85519  1.0000
  H   H4962     1.0  0.92192  0.43249  0.76313  1.0000
  C   C2804     1.0  0.86504  0.62615  0.82903  1.0000
  C   C2805     1.0  0.68951  0.62300  0.84951  1.0000
  Fe  Fe317     1.0  0.83284  0.62083  0.94312  1.0000
  H   H4963     1.0  0.75035  0.52200  0.83592  1.0000
  H   H4964     1.0  0.65198  0.40484  0.81280  1.0000
  C   C2806     1.0  0.89187  0.50333  0.87489  1.0000
  C   C2807     1.0  0.65154  0.37863  0.78199  1.0000
  C   C2808     1.0  0.97414  0.40707  0.75162  1.0000
  H   H4965     1.0  0.99154  0.52254  0.79574  1.0000
  H   H4966     1.0  0.66369  0.37332  0.79033  1.0000
  H   H4967     1.0  0.57633  0.60232  0.74616  1.0000
  C   C2809     1.0  0.77869  0.54390  0.81431  1.0000
  H   H4968     1.0  0.51037  0.40795  0.78693  1.0000
  H   H4969     1.0  0.87120  0.46817  0.83144  1.0000
  H   H4970     1.0  0.87311  0.65786  0.85313  1.0000
  H   H4971     1.0  0.80788  0.53506  0.83736  1.0000
  S   S627      1.0  0.85813  0.62452  0.91715  1.0000
  H   H4972     1.0  0.95703  0.49042  0.85530  1.0000
  H   H4973     1.0  0.67937  0.63169  0.91716  1.0000
  H   H4974     1.0  0.88467  0.49957  0.84984  1.0000
  H   H4975     1.0  0.73206  0.51180  0.81702  1.0000
  H   H4976     1.0  0.72294  0.65540  0.97341  1.0000
  H   H4977     1.0  0.59673  0.40332  0.74453  1.0000
  H   H4978     1.0  0.99349  0.47982  0.73865  1.0000
  H   H4979     1.0  0.93366  0.48223  0.85840  1.0000
  H   H4980     1.0  0.90143  0.54262  0.88583  1.0000
  H   H4981     1.0  0.64146  0.37699  0.82074  1.0000
  H   H4982     1.0  0.63280  0.58569  0.78230  1.0000
  C   C2810     1.0  0.72789  0.59390  0.97281  1.0000
  C   C2811     1.0  0.92977  0.55320  0.85300  1.0000
  C   C2812     1.0  0.93836  0.39002  0.80985  1.0000
  H   H4983     1.0  0.60038  0.63345  0.87739  1.0000
  H   H4984     1.0  0.50712  0.44081  0.76588  1.0000
  H   H4985     1.0  0.87342  0.40055  0.77819  1.0000
  H   H4986     1.0  0.53356  0.46557  0.74411  1.0000
  C   C2813     1.0  0.81536  0.53216  0.75861  1.0000
  C   C2814     1.0  0.50008  0.40780  0.74235  1.0000
  C   C2815     1.0  0.49928  0.44134  0.81580  1.0000
  H   H4987     1.0  0.77831  0.62471  0.82270  1.0000
  H   H4988     1.0  0.95168  0.53461  0.74908  1.0000
  C   C2816     1.0  0.72327  0.61210  0.98206  1.0000
  H   H4989     1.0  0.73154  0.64105  0.92622  1.0000
  S   S628      1.0  0.94866  0.38648  0.74567  1.0000
  C   C2817     1.0  0.52629  0.52942  0.86307  1.0000
  C   C2818     1.0  0.90143  0.61964  0.79822  1.0000
  H   H4990     1.0  0.49819  0.49314  0.81825  1.0000
  C   C2819     1.0  0.90208  0.61444  0.81951  1.0000
  Fe  Fe318     1.0  0.99287  0.43984  0.80558  1.0000
  C   C2820     1.0  0.63031  0.35239  0.81832  1.0000
  H   H4991     1.0  0.51557  0.51369  0.83888  1.0000
  H   H4992     1.0  0.64357  0.36711  0.76113  1.0000
  C   C2821     1.0  0.74088  0.64481  0.91218  1.0000
  H   H4993     1.0  0.68479  0.61616  0.86473  1.0000
  H   H4994     1.0  0.78623  0.54336  0.77589  1.0000
  H   H4995     1.0  0.70679  0.62737  0.91326  1.0000
  C   C2822     1.0  0.90729  0.61837  0.85713  1.0000
  C   C2823     1.0  0.82632  0.50632  0.84766  1.0000
  H   H4996     1.0  0.96099  0.36318  0.81876  1.0000
  H   H4997     1.0  0.52120  0.63130  0.86322  1.0000
  H   H4998     1.0  0.54317  0.61859  0.76394  1.0000
  H   H4999     1.0  0.67938  0.63808  0.84580  1.0000
  H   H5000     1.0  0.51081  0.50438  0.87379  1.0000
  H   H5001     1.0  0.78108  0.63726  0.83962  1.0000
  C   C2824     1.0  0.73959  0.64052  0.84432  1.0000
  H   H5002     1.0  0.78742  0.62866  0.88518  1.0000
  H   H5003     1.0  0.84747  0.61455  0.85695  1.0000
  C   C2825     1.0  0.80576  0.52138  0.79451  1.0000
  S   S629      1.0  0.54369  0.65421  0.81878  1.0000
  H   H5004     1.0  0.60017  0.58218  0.77648  1.0000
  H   H5005     1.0  0.50285  0.39280  0.75227  1.0000
  H   H5006     1.0  0.78911  0.59279  0.80487  1.0000
  H   H5007     1.0  0.74737  0.63725  0.95147  1.0000
  H   H5008     1.0  0.88295  0.50797  0.88825  1.0000
  H   H5009     1.0  0.78769  0.51025  0.84262  1.0000
  H   H5010     1.0  0.96205  0.53077  0.77846  1.0000
  H   H5011     1.0  0.76349  0.49575  0.84222  1.0000
  H   H5012     1.0  0.95160  0.52822  0.86590  1.0000
  H   H5013     1.0  0.71378  0.59270  0.96938  1.0000
  H   H5014     1.0  0.86130  0.63766  0.81623  1.0000
  H   H5015     1.0  0.86739  0.52020  0.86031  1.0000
  H   H5016     1.0  0.94431  0.52369  0.84707  1.0000
  H   H5017     1.0  0.71982  0.61398  0.87773  1.0000
  C   C2826     1.0  0.90493  0.39782  0.77975  1.0000
  C   C2827     1.0  0.54090  0.41266  0.77579  1.0000
  H   H5018     1.0  0.58409  0.39086  0.76743  1.0000
  C   C2828     1.0  0.87658  0.50438  0.86335  1.0000
  H   H5019     1.0  0.88583  0.60152  0.85578  1.0000
  H   H5020     1.0  0.93595  0.39508  0.82318  1.0000
  C   C2829     1.0  0.92598  0.53213  0.90116  1.0000
  H   H5021     1.0  0.86598  0.49399  0.87148  1.0000
  H   H5022     1.0  0.52080  0.64365  0.88144  1.0000
  H   H5023     1.0  0.92903  0.45968  0.78573  1.0000
  C   C2830     1.0  0.50737  0.52062  0.86628  1.0000
  H   H5024     1.0  0.94758  0.44557  0.76978  1.0000
  H   H5025     1.0  0.94025  0.57987  0.83394  1.0000
  C   C2831     1.0  0.94666  0.56346  0.83915  1.0000
  C   C2832     1.0  0.64093  0.58292  0.76803  1.0000
  H   H5026     1.0  0.95309  0.55621  0.82675  1.0000
  H   H5027     1.0  0.95911  0.56232  0.84620  1.0000
  C   C2833     1.0  0.71566  0.63100  0.87436  1.0000
  C   C2834     1.0  0.82630  0.63154  0.83949  1.0000
  H   H5028     1.0  0.89645  0.45729  0.83594  1.0000
  C   C2835     1.0  0.90710  0.51750  0.86375  1.0000
  S   S630      1.0  0.59298  0.61937  0.83804  1.0000
  C   C2836     1.0  0.93424  0.49679  0.88098  1.0000
  H   H5029     1.0  0.92102  0.61038  0.84838  1.0000
  N   N157      1.0  0.88546  0.62714  0.83187  1.0000
  H   H5030     1.0  0.80618  0.55659  0.80989  1.0000
  N   N158      1.0  0.78957  0.52229  0.81253  1.0000
  H   H5031     1.0  0.64651  0.44510  0.78305  1.0000
  C   C2837     1.0  0.91202  0.52798  0.89035  1.0000
  H   H5032     1.0  0.91748  0.55559  0.84545  1.0000
  C   C2838     1.0  0.81549  0.52068  0.83237  1.0000
  H   H5033     1.0  0.51331  0.59194  0.74232  1.0000
  N   N159      1.0  0.91570  0.42259  0.79369  1.0000
  S   S631      1.0  0.59074  0.61823  0.79536  1.0000
  H   H5034     1.0  0.50072  0.53861  0.83921  1.0000
  H   H5035     1.0  0.67338  0.33893  0.75768  1.0000
  H   H5036     1.0  0.93480  0.51753  0.90810  1.0000
  S   S632      1.0  0.51461  0.46795  0.78389  1.0000
  H   H5037     1.0  0.96269  0.37036  0.79357  1.0000
  H   H5038     1.0  0.92348  0.54564  0.92469  1.0000
  H   H5039     1.0  0.61460  0.38264  0.82317  1.0000
  C   C2839     1.0  0.92805  0.47209  0.75668  1.0000
  H   H5040     1.0  0.84498  0.64164  0.85192  1.0000
  C   C2840     1.0  0.95903  0.51928  0.75620  1.0000
  H   H5041     1.0  0.63879  0.56812  0.74752  1.0000
  H   H5042     1.0  0.56639  0.58166  0.74514  1.0000
  H   H5043     1.0  0.68943  0.61574  0.82316  1.0000
  H   H5044     1.0  0.75645  0.61784  0.86470  1.0000
  H   H5045     1.0  0.90187  0.53496  0.92662  1.0000
  C   C2841     1.0  0.93807  0.53003  0.85998  1.0000
  N   N160      1.0  0.92286  0.51808  0.87378  1.0000
  H   H5046     1.0  0.87776  0.44144  0.84244  1.0000
  H   H5047     1.0  0.90692  0.59152  0.88043  1.0000
  C   C2842     1.0  0.91330  0.54359  0.91662  1.0000
  C   C2843     1.0  0.94468  0.48362  0.86591  1.0000
  H   H5048     1.0  0.60349  0.41637  0.76854  1.0000
  C   C2844     1.0  0.57347  0.64830  0.74039  1.0000
  Fe  Fe319     1.0  0.84759  0.60062  0.90954  1.0000
  C   C2845     1.0  0.91678  0.43920  0.77588  1.0000
  H   H5049     1.0  0.93690  0.54157  0.89166  1.0000
  S   S633      1.0  0.80871  0.64453  0.93011  1.0000
  H   H5050     1.0  0.72094  0.60892  0.84863  1.0000
  C   C2846     1.0  0.63102  0.40926  0.79383  1.0000
  H   H5051     1.0  0.90516  0.55897  0.91031  1.0000
  C   C2847     1.0  0.88864  0.64883  0.82580  1.0000
  H   H5052     1.0  0.54743  0.39925  0.78595  1.0000
  H   H5053     1.0  0.82743  0.52391  0.81942  1.0000
  C   C2848     1.0  0.91863  0.60537  0.78747  1.0000
  H   H5054     1.0  0.77210  0.54434  0.82948  1.0000
  C   C2849     1.0  0.52426  0.54248  0.75085  1.0000
  H   H5055     1.0  0.72825  0.49746  0.84111  1.0000
  C   C2850     1.0  0.67365  0.35101  0.76460  1.0000
  H   H5056     1.0  0.87455  0.62505  0.86231  1.0000
  C   C2851     1.0  0.62465  0.34316  0.83945  1.0000
  H   H5057     1.0  0.96629  0.46229  0.88209  1.0000
  H   H5058     1.0  0.91219  0.48117  0.75971  1.0000
  C   C2852     1.0  0.75598  0.62097  0.84955  1.0000
  H   H5059     1.0  0.65675  0.57435  0.76875  1.0000
  C   C2853     1.0  0.57474  0.58635  0.75336  1.0000
  H   H5060     1.0  0.82691  0.61900  0.83277  1.0000
  H   H5061     1.0  0.96780  0.58702  0.79331  1.0000
  C   C2854     1.0  0.87934  0.65652  0.97604  1.0000
  H   H5062     1.0  0.74202  0.33811  0.89096  1.0000
  S   S634      1.0  0.63520  0.64300  0.84320  1.0000
  H   H5063     1.0  0.50023  0.50949  0.78434  1.0000
  H   H5064     1.0  0.50236  0.48445  0.84841  1.0000
  H   H5065     1.0  0.64432  0.34894  0.78296  1.0000
  H   H5066     1.0  0.75774  0.34324  0.85768  1.0000
  C   C2855     1.0  0.94014  0.57772  0.74251  1.0000
  H   H5067     1.0  0.53772  0.42642  0.78170  1.0000
  C   C2856     1.0  0.76501  0.65487  0.87592  1.0000
  C   C2857     1.0  0.99168  0.40757  0.75715  1.0000
  H   H5068     1.0  0.74867  0.32959  0.92059  1.0000
  H   H5069     1.0  0.98683  0.35791  0.74642  1.0000
  H   H5070     1.0  0.90339  0.63551  0.79143  1.0000
  H   H5071     1.0  0.52065  0.65843  0.85769  1.0000
  H   H5072     1.0  0.68231  0.34380  0.77596  1.0000
  C   C2858     1.0  0.84623  0.62863  0.84565  1.0000
  S   S635      1.0  0.88190  0.58522  0.73802  1.0000
  H   H5073     1.0  0.76904  0.32779  0.88817  1.0000
  H   H5074     1.0  0.74213  0.64442  0.82862  1.0000
  H   H5075     1.0  0.51219  0.48713  0.74397  1.0000
  H   H5076     1.0  0.69266  0.65430  0.88770  1.0000
  C   C2859     1.0  0.58427  0.64212  0.87901  1.0000
  H   H5077     1.0  0.82339  0.64640  0.82934  1.0000
  H   H5078     1.0  0.93082  0.46702  0.74329  1.0000
  H   H5079     1.0  0.50817  0.65767  0.80452  1.0000
  C   C2860     1.0  0.60908  0.64411  0.74087  1.0000
  H   H5080     1.0  0.54271  0.49596  0.74760  1.0000
  H   H5081     1.0  0.55234  0.41462  0.76218  1.0000
  H   H5082     1.0  0.94678  0.51115  0.76525  1.0000
  H   H5083     1.0  0.49593  0.64014  0.75696  1.0000
  H   H5084     1.0  0.77424  0.65866  0.86185  1.0000
  S   S636      1.0  0.60087  0.65913  0.80267  1.0000
  C   C2861     1.0  0.87720  0.50277  0.73753  1.0000
  C   C2862     1.0  0.62845  0.93515  0.19739  1.0000
  C   C2863     1.0  0.87811  0.80164  0.00542  1.0000
  C   C2864     1.0  0.80170  0.71262  0.00727  1.0000
  Fe  Fe320     1.0  0.90758  0.70463  0.02274  1.0000
  H   H5085     1.0  0.52611  0.98891  0.12517  1.0000
  S   S637      1.0  0.92376  0.73000  0.01886  1.0000
  H   H5086     1.0  0.89657  0.70850  0.08603  1.0000
  S   S638      1.0  0.56264  0.89214  0.20491  1.0000
  H   H5087     1.0  0.61392  0.95965  0.16570  1.0000
  H   H5088     1.0  0.62982  0.93604  0.16195  1.0000
  H   H5089     1.0  0.62280  0.93645  0.13307  1.0000
  S   S639      1.0  0.88293  0.70921  0.00756  1.0000
  Fe  Fe321     1.0  0.73686  0.69102  0.06424  1.0000
  S   S640      1.0  0.71405  0.71594  0.07689  1.0000
  C   C2865     1.0  0.72000  0.93834  0.01114  1.0000
  Fe  Fe322     1.0  0.72123  0.70369  0.02758  1.0000
  S   S641      1.0  0.69695  0.72922  0.03774  1.0000
  H   H5090     1.0  0.94927  0.73096  0.04590  1.0000
  Fe  Fe323     1.0  0.72134  0.73613  0.04796  1.0000
  S   S642      1.0  0.72970  0.76738  0.03708  1.0000
  Fe  Fe324     1.0  0.69216  0.70625  0.06556  1.0000
  S   S643      1.0  0.66067  0.70254  0.08344  1.0000
  S   S644      1.0  0.74575  0.71172  0.03621  1.0000
  S   S645      1.0  0.71486  0.68013  0.05442  1.0000
  Fe  Fe325     1.0  0.84136  0.81158  0.06449  1.0000
  S   S646      1.0  0.81445  0.82296  0.08604  1.0000
  S   S647      1.0  0.86675  0.78617  0.07370  1.0000
  Fe  Fe326     1.0  0.82579  0.84236  0.03212  1.0000
  S   S648      1.0  0.79753  0.85683  0.05093  1.0000
  S   S649      1.0  0.83419  0.85118  0.00032  1.0000
  Fe  Fe327     1.0  0.81883  0.85437  0.06969  1.0000
  S   S650      1.0  0.81541  0.87790  0.08681  1.0000
  Fe  Fe328     1.0  0.79551  0.82434  0.06577  1.0000
  S   S651      1.0  0.76578  0.81306  0.07862  1.0000
  S   S652      1.0  0.84726  0.84275  0.04948  1.0000
  S   S653      1.0  0.82237  0.81018  0.04557  1.0000
  Fe  Fe329     1.0  0.89961  0.91939  0.16039  1.0000
  S   S654      1.0  0.91944  0.89782  0.14188  1.0000
  S   S655      1.0  0.89323  0.90854  0.19227  1.0000
  Fe  Fe330     1.0  0.93610  0.92331  0.12750  1.0000
  S   S656      1.0  0.97019  0.92052  0.11822  1.0000
  Fe  Fe331     1.0  0.89807  0.91332  0.12200  1.0000
  S   S657      1.0  0.89372  0.89475  0.10317  1.0000
  C   C2866     1.0  0.95064  0.99052  0.19490  1.0000
  H   H5091     1.0  0.68515  0.77610  0.00180  1.0000
  C   C2867     1.0  0.82417  0.82621  0.13119  1.0000
  C   C2868     1.0  0.97963  0.92655  0.13480  1.0000
  H   H5092     1.0  0.72332  0.78116  0.99944  1.0000
  H   H5093     1.0  0.58877  0.82601  0.14577  1.0000
  H   H5094     1.0  0.98689  0.68754  0.09073  1.0000
  H   H5095     1.0  0.77294  0.73010  0.12809  1.0000
  H   H5096     1.0  0.52631  0.92305  0.19863  1.0000
  H   H5097     1.0  0.52113  0.86918  0.10542  1.0000
  H   H5098     1.0  0.52412  0.86664  0.16108  1.0000
  C   C2869     1.0  0.78126  0.68226  0.07268  1.0000
  H   H5099     1.0  0.50443  0.67887  0.09961  1.0000
  H   H5100     1.0  0.87528  0.83280  0.00817  1.0000
  H   H5101     1.0  0.78299  0.70980  0.11548  1.0000
  S   S658      1.0  0.91650  0.93738  0.10634  1.0000
  H   H5102     1.0  0.50912  0.90221  0.12027  1.0000
  C   C2870     1.0  0.86580  0.66613  0.17582  1.0000
  C   C2871     1.0  0.83685  0.88433  0.09040  1.0000
  C   C2872     1.0  0.85597  0.88111  0.07809  1.0000
  C   C2873     1.0  0.87302  0.88527  0.08181  1.0000
  C   C2874     1.0  0.87112  0.89292  0.09777  1.0000
  C   C2875     1.0  0.85184  0.89683  0.10978  1.0000
  C   C2876     1.0  0.83477  0.89258  0.10606  1.0000
  H   H5103     1.0  0.85766  0.87523  0.06577  1.0000
  H   H5104     1.0  0.88784  0.88229  0.07241  1.0000
  H   H5105     1.0  0.85020  0.90260  0.12217  1.0000
  H   H5106     1.0  0.81998  0.89531  0.11558  1.0000
  H   H5107     1.0  0.80033  0.83016  0.01366  1.0000
  C   C2877     1.0  0.74140  0.77787  0.04919  1.0000
  C   C2878     1.0  0.73516  0.77618  0.06875  1.0000
  C   C2879     1.0  0.74263  0.78717  0.07759  1.0000
  C   C2880     1.0  0.75683  0.79940  0.06705  1.0000
  C   C2881     1.0  0.76361  0.80048  0.04760  1.0000
  C   C2882     1.0  0.75577  0.78994  0.03869  1.0000
  H   H5108     1.0  0.72392  0.76713  0.07693  1.0000
  H   H5109     1.0  0.73730  0.78627  0.09264  1.0000
  H   H5110     1.0  0.77474  0.80964  0.03940  1.0000
  H   H5111     1.0  0.76081  0.79122  0.02358  1.0000
  C   C2883     1.0  0.65617  0.67756  0.09363  1.0000
  H   H5112     1.0  0.74142  0.73976  0.11486  1.0000
  C   C2884     1.0  0.89816  0.94412  0.19877  1.0000
  H   H5113     1.0  0.62305  0.97089  0.13389  1.0000
  H   H5114     1.0  0.59739  0.94305  0.12947  1.0000
  H   H5115     1.0  0.98283  0.67531  0.04422  1.0000
  H   H5116     1.0  0.62412  0.68820  0.10480  1.0000
  C   C2885     1.0  0.98008  0.92474  0.16729  1.0000
  H   H5117     1.0  0.89234  0.76624  0.99126  1.0000
  H   H5118     1.0  0.51417  0.85576  0.19952  1.0000
  H   H5119     1.0  0.51177  0.66856  0.12203  1.0000
  H   H5120     1.0  0.68738  0.70230  0.00681  1.0000
  H   H5121     1.0  0.84560  0.84550  0.12440  1.0000
  H   H5122     1.0  0.50422  0.81659  0.06881  1.0000
  H   H5123     1.0  0.97130  0.96101  0.20094  1.0000
  H   H5124     1.0  0.58558  0.91694  0.15551  1.0000
  H   H5125     1.0  0.54359  0.66631  0.18841  1.0000
  H   H5126     1.0  0.98461  0.95694  0.23130  1.0000
  S   S659      1.0  0.88847  0.69451  0.05133  1.0000
  H   H5127     1.0  0.58995  0.91350  0.17821  1.0000
  H   H5128     1.0  0.83907  0.72299  0.99141  1.0000
  H   H5129     1.0  0.53090  0.95638  0.19531  1.0000
  C   C2886     1.0  0.79381  0.71320  0.05668  1.0000
  C   C2887     1.0  0.77753  0.70338  0.06567  1.0000
  C   C2888     1.0  0.65925  0.67452  0.14597  1.0000
  C   C2889     1.0  0.50915  0.85750  0.14394  1.0000
  S   S660      1.0  0.73154  0.69933  0.99760  1.0000
  H   H5130     1.0  0.79069  0.72941  0.05053  1.0000
  H   H5131     1.0  0.76202  0.71213  0.06666  1.0000
  N   N161      1.0  0.81146  0.69668  0.99557  1.0000
  H   H5132     1.0  0.74577  0.71355  0.12785  1.0000
  C   C2890     1.0  0.90726  0.74812  0.03149  1.0000
  C   C2891     1.0  0.88629  0.74826  0.03734  1.0000
  C   C2892     1.0  0.87354  0.76103  0.04933  1.0000
  C   C2893     1.0  0.88175  0.77335  0.05584  1.0000
  C   C2894     1.0  0.90256  0.77387  0.04936  1.0000
  C   C2895     1.0  0.91519  0.76165  0.03681  1.0000
  H   H5133     1.0  0.87987  0.73830  0.03291  1.0000
  H   H5134     1.0  0.85755  0.76066  0.05417  1.0000
  H   H5135     1.0  0.90897  0.78349  0.05423  1.0000
  H   H5136     1.0  0.93122  0.76216  0.03182  1.0000
  C   C2896     1.0  0.89922  0.92303  0.20520  1.0000
  S   S661      1.0  0.91835  0.66738  0.13680  1.0000
  S   S662      1.0  0.54187  0.93699  0.23295  1.0000
  H   H5137     1.0  0.92851  0.69926  0.09929  1.0000
  H   H5138     1.0  0.72766  0.95134  0.00347  1.0000
  H   H5139     1.0  0.50022  0.86490  0.13286  1.0000
  C   C2897     1.0  0.79357  0.82681  0.98855  1.0000
  H   H5140     1.0  0.58411  0.68600  0.15007  1.0000
  C   C2898     1.0  0.51693  0.87052  0.19898  1.0000
  C   C2899     1.0  0.81784  0.68110  0.06312  1.0000
  C   C2900     1.0  0.59236  0.68387  0.16137  1.0000
  H   H5141     1.0  0.60162  0.97282  0.10255  1.0000
  H   H5142     1.0  0.50195  0.84168  0.17360  1.0000
  C   C2901     1.0  0.60657  0.98328  0.20920  1.0000
  H   H5143     1.0  0.65112  0.69088  0.14368  1.0000
  H   H5144     1.0  0.62495  0.68737  0.17325  1.0000
  H   H5145     1.0  0.90107  0.81752  0.00578  1.0000
  H   H5146     1.0  0.88565  0.66872  0.08698  1.0000
  C   C2902     1.0  0.72750  0.92108  0.00040  1.0000
  H   H5147     1.0  0.98817  0.70079  0.05639  1.0000
  C   C2903     1.0  0.68215  0.67545  0.14234  1.0000
  H   H5148     1.0  0.77568  0.76384  0.00179  1.0000
  C   C2904     1.0  0.79152  0.73369  0.99671  1.0000
  C   C2905     1.0  0.97710  0.66389  0.11380  1.0000
  H   H5149     1.0  0.72857  0.84659  0.04073  1.0000
  H   H5150     1.0  0.59675  0.94529  0.19692  1.0000
  C   C2906     1.0  0.89829  0.66122  0.09378  1.0000
  C   C2907     1.0  0.97134  0.70694  0.05990  1.0000
  H   H5151     1.0  0.78943  0.70731  0.01915  1.0000
  C   C2908     1.0  0.73077  0.81870  0.99444  1.0000
  H   H5152     1.0  0.61922  0.66259  0.18274  1.0000
  H   H5153     1.0  0.63261  0.95038  0.19249  1.0000
  C   C2909     1.0  0.74045  0.87068  0.01848  1.0000
  H   H5154     1.0  0.69198  0.66019  0.14600  1.0000
  C   C2910     1.0  0.62721  0.67219  0.16986  1.0000
  S   S663      1.0  0.91811  0.94348  0.14743  1.0000
  H   H5155     1.0  0.77432  0.76143  0.12738  1.0000
  H   H5156     1.0  0.53542  0.96592  0.17016  1.0000
  H   H5157     1.0  0.81397  0.78451  0.99774  1.0000
  H   H5158     1.0  0.93965  0.98134  0.22502  1.0000
  S   S664      1.0  0.87657  0.93295  0.14182  1.0000
  H   H5159     1.0  0.50507  0.88581  0.15179  1.0000
  H   H5160     1.0  0.71905  0.90882  0.00828  1.0000
  C   C2911     1.0  0.52591  0.98247  0.11373  1.0000
  N   N162      1.0  0.53440  0.88222  0.13213  1.0000
  C   C2912     1.0  0.55247  0.86582  0.12617  1.0000
  H   H5161     1.0  0.71496  0.82807  0.99610  1.0000
  C   C2913     1.0  0.54222  0.89626  0.13933  1.0000
  H   H5162     1.0  0.54793  0.93621  0.13660  1.0000
  C   C2914     1.0  0.94945  0.98008  0.14567  1.0000
  C   C2915     1.0  0.56374  0.85216  0.14188  1.0000
  C   C2916     1.0  0.96587  0.72439  0.04305  1.0000
  H   H5163     1.0  0.72985  0.87095  0.00980  1.0000
  H   H5164     1.0  0.65677  0.68086  0.18058  1.0000
  C   C2917     1.0  0.53690  0.92972  0.14914  1.0000
  H   H5165     1.0  0.56397  0.87299  0.11451  1.0000
  H   H5166     1.0  0.54796  0.85530  0.12013  1.0000
  H   H5167     1.0  0.93824  0.97521  0.14083  1.0000
  H   H5168     1.0  0.53328  0.90773  0.10771  1.0000
  H   H5169     1.0  0.55576  0.90124  0.12882  1.0000
  H   H5170     1.0  0.54746  0.88815  0.15265  1.0000
  H   H5171     1.0  0.58020  0.96891  0.16439  1.0000
  H   H5172     1.0  0.52514  0.94255  0.15421  1.0000
  H   H5173     1.0  0.68722  0.66201  0.08474  1.0000
  H   H5174     1.0  0.88824  0.78669  0.00947  1.0000
  H   H5175     1.0  0.57098  0.86124  0.14714  1.0000
  H   H5176     1.0  0.55309  0.84452  0.15396  1.0000
  C   C2918     1.0  0.63646  0.67494  0.10374  1.0000
  H   H5177     1.0  0.85390  0.69719  0.99248  1.0000
  C   C2919     1.0  0.52382  0.90843  0.19856  1.0000
  H   H5178     1.0  0.70639  0.68664  0.11982  1.0000
  C   C2920     1.0  0.52536  0.89481  0.11534  1.0000
  H   H5179     1.0  0.81289  0.71484  0.01414  1.0000
  C   C2921     1.0  0.76120  0.87543  0.00624  1.0000
  C   C2922     1.0  0.96514  0.92770  0.23390  1.0000
  C   C2923     1.0  0.61012  0.96851  0.12935  1.0000
  H   H5180     1.0  0.54505  0.92100  0.16055  1.0000
  H   H5181     1.0  0.82507  0.82113  0.14631  1.0000
  H   H5182     1.0  0.82147  0.81358  0.12649  1.0000
  H   H5183     1.0  0.49661  0.90061  0.09349  1.0000
  H   H5184     1.0  0.65791  0.76218  0.99807  1.0000
  H   H5185     1.0  0.97028  0.71889  0.02972  1.0000
  C   C2924     1.0  0.97089  0.97560  0.19024  1.0000
  H   H5186     1.0  0.67892  0.74179  0.00386  1.0000
  H   H5187     1.0  0.97222  0.92488  0.21946  1.0000
  H   H5188     1.0  0.85687  0.77487  0.99906  1.0000
  H   H5189     1.0  0.64187  0.92347  0.19250  1.0000
  H   H5190     1.0  0.77860  0.73209  0.99172  1.0000
  H   H5191     1.0  0.79922  0.67663  0.03531  1.0000
  H   H5192     1.0  0.68094  0.70005  0.11705  1.0000
  H   H5193     1.0  0.96154  0.96654  0.14930  1.0000
  H   H5194     1.0  0.77069  0.74317  0.02176  1.0000
  C   C2925     1.0  0.51227  0.96959  0.11649  1.0000
  H   H5195     1.0  0.98304  0.99212  0.14409  1.0000
  H   H5196     1.0  0.89437  0.95177  0.18524  1.0000
  C   C2926     1.0  0.54216  0.96230  0.18273  1.0000
  H   H5197     1.0  0.95803  0.91417  0.15904  1.0000
  C   C2927     1.0  0.90023  0.66801  0.10893  1.0000
  C   C2928     1.0  0.77348  0.72552  0.11501  1.0000
  H   H5198     1.0  0.93192  0.70615  0.05652  1.0000
  H   H5199     1.0  0.84438  0.80068  0.99204  1.0000
  C   C2929     1.0  0.61244  0.88046  0.16643  1.0000
  H   H5200     1.0  0.52123  0.84458  0.13954  1.0000
  H   H5201     1.0  0.83710  0.88568  0.22477  1.0000
  H   H5202     1.0  0.62244  0.90382  0.14307  1.0000
  C   C2930     1.0  0.52626  0.88384  0.09967  1.0000
  H   H5203     1.0  0.62075  0.68652  0.14144  1.0000
  H   H5204     1.0  0.50201  0.96612  0.13005  1.0000
  C   C2931     1.0  0.80473  0.83262  0.99842  1.0000
  H   H5205     1.0  0.61766  0.97937  0.21792  1.0000
  H   H5206     1.0  0.65810  0.67278  0.21478  1.0000
  C   C2932     1.0  0.56226  0.94638  0.18046  1.0000
  C   C2933     1.0  0.93715  0.69710  0.06963  1.0000
  H   H5207     1.0  0.97288  0.75383  0.02751  1.0000
  H   H5208     1.0  0.98075  0.66245  0.07708  1.0000
  H   H5209     1.0  0.59221  0.84221  0.12240  1.0000
  H   H5210     1.0  0.88945  0.98196  0.15651  1.0000
  C   C2934     1.0  0.58081  0.83540  0.13435  1.0000
  H   H5211     1.0  0.86222  0.80072  0.01334  1.0000
  H   H5212     1.0  0.82815  0.99138  0.13190  1.0000
  C   C2935     1.0  0.79536  0.69301  0.98774  1.0000
  H   H5213     1.0  0.70348  0.66454  0.99979  1.0000
  H   H5214     1.0  0.54225  0.88057  0.09138  1.0000
  H   H5215     1.0  0.57443  0.82518  0.12953  1.0000
  H   H5216     1.0  0.80622  0.78468  0.12718  1.0000
  H   H5217     1.0  0.92940  0.68395  0.07424  1.0000
  C   C2936     1.0  0.82089  0.67742  0.00791  1.0000
  H   H5218     1.0  0.54929  0.98187  0.06780  1.0000
  H   H5219     1.0  0.70323  0.94393  0.01250  1.0000
  H   H5220     1.0  0.77029  0.86167  0.00087  1.0000
  H   H5221     1.0  0.90515  0.89705  0.22780  1.0000
  H   H5222     1.0  0.98448  0.85434  0.13428  1.0000
  C   C2937     1.0  0.97695  0.74171  0.03979  1.0000
  H   H5223     1.0  0.60034  0.87841  0.16051  1.0000
  H   H5224     1.0  0.62861  0.90329  0.16496  1.0000
  H   H5225     1.0  0.58575  0.67297  0.17398  1.0000
  C   C2938     1.0  0.78267  0.74878  0.00974  1.0000
  C   C2939     1.0  0.53550  0.87183  0.20197  1.0000
  C   C2940     1.0  0.90556  0.71981  0.08523  1.0000
  H   H5226     1.0  0.71604  0.75105  0.99433  1.0000
  C   C2941     1.0  0.90394  0.91340  0.22288  1.0000
  H   H5227     1.0  0.51413  0.88939  0.07464  1.0000
  C   C2942     1.0  0.82099  0.84229  0.98848  1.0000
  H   H5228     1.0  0.56792  0.94249  0.19357  1.0000
  H   H5229     1.0  0.97229  0.74859  0.05239  1.0000
  N   N163      1.0  0.96009  0.68965  0.06544  1.0000
  C   C2943     1.0  0.53891  0.89074  0.20198  1.0000
  H   H5230     1.0  0.60746  0.87747  0.18210  1.0000
  H   H5231     1.0  0.62665  0.86908  0.16263  1.0000
  C   C2944     1.0  0.97272  0.68139  0.09703  1.0000
  C   C2945     1.0  0.53906  0.97841  0.08144  1.0000
  H   H5232     1.0  0.86344  0.87402  0.21666  1.0000
  C   C2946     1.0  0.92798  0.70960  0.08522  1.0000
  N   N164      1.0  0.80284  0.74516  0.09572  1.0000
  C   C2947     1.0  0.81619  0.72699  0.10593  1.0000
  C   C2948     1.0  0.78243  0.74035  0.09695  1.0000
  C   C2949     1.0  0.81368  0.74924  0.07515  1.0000
  C   C2950     1.0  0.79985  0.76420  0.10286  1.0000
  C   C2951     1.0  0.79047  0.76296  0.12415  1.0000
  C   C2952     1.0  0.83796  0.72952  0.10512  1.0000
  C   C2953     1.0  0.80140  0.76544  0.06139  1.0000
  C   C2954     1.0  0.52557  0.96559  0.08420  1.0000
  S   S665      1.0  0.83353  0.71482  0.04211  1.0000
  C   C2955     1.0  0.79034  0.78257  0.12967  1.0000
  C   C2956     1.0  0.84937  0.71071  0.11702  1.0000
  C   C2957     1.0  0.81317  0.76746  0.04081  1.0000
  H   H5233     1.0  0.81807  0.71336  0.10003  1.0000
  H   H5234     1.0  0.80883  0.72269  0.12109  1.0000
  H   H5235     1.0  0.77066  0.75474  0.09483  1.0000
  H   H5236     1.0  0.78352  0.73297  0.08528  1.0000
  H   H5237     1.0  0.81849  0.73485  0.07005  1.0000
  H   H5238     1.0  0.82784  0.75467  0.07333  1.0000
  H   H5239     1.0  0.81449  0.76954  0.09922  1.0000
  H   H5240     1.0  0.78946  0.77700  0.09548  1.0000
  H   H5241     1.0  0.79920  0.75003  0.13305  1.0000
  H   H5242     1.0  0.82888  0.75861  0.99861  1.0000
  H   H5243     1.0  0.84732  0.73132  0.09044  1.0000
  H   H5244     1.0  0.83724  0.74297  0.11065  1.0000
  H   H5245     1.0  0.79828  0.78053  0.06488  1.0000
  H   H5246     1.0  0.78665  0.76167  0.06219  1.0000
  H   H5247     1.0  0.58998  0.69886  0.16507  1.0000
  H   H5248     1.0  0.97376  0.92027  0.18227  1.0000
  H   H5249     1.0  0.51966  0.92488  0.13197  1.0000
  Fe  Fe332     1.0  0.89463  0.67648  0.00535  1.0000
  H   H5250     1.0  0.98159  0.66965  0.12409  1.0000
  S   S666      1.0  0.92144  0.67283  0.01806  1.0000
  H   H5251     1.0  0.78150  0.79608  0.12128  1.0000
  H   H5252     1.0  0.49673  0.98964  0.15872  1.0000
  H   H5253     1.0  0.84089  0.70807  0.13202  1.0000
  H   H5254     1.0  0.85152  0.69695  0.11135  1.0000
  H   H5255     1.0  0.86466  0.71315  0.11653  1.0000
  H   H5256     1.0  0.82927  0.76834  0.03920  1.0000
  H   H5257     1.0  0.81302  0.75435  0.03537  1.0000
  H   H5258     1.0  0.80565  0.78147  0.03195  1.0000
  H   H5259     1.0  0.90002  0.97185  0.20523  1.0000
  H   H5260     1.0  0.73268  0.80835  0.00824  1.0000
  H   H5261     1.0  0.62879  0.96345  0.10188  1.0000
  C   C2958     1.0  0.51827  0.87345  0.14793  1.0000
  C   C2959     1.0  0.52663  0.91582  0.14400  1.0000
  H   H5262     1.0  0.75527  0.91167  0.01125  1.0000
  C   C2960     1.0  0.61471  0.97385  0.10776  1.0000
  C   C2961     1.0  0.81391  0.70204  0.05501  1.0000
  H   H5263     1.0  0.98393  0.98233  0.18949  1.0000
  C   C2962     1.0  0.51292  0.89731  0.08595  1.0000
  H   H5264     1.0  0.57056  0.95805  0.15078  1.0000
  H   H5265     1.0  0.74172  0.82902  0.99027  1.0000
  H   H5266     1.0  0.69097  0.67463  0.11247  1.0000
  H   H5267     1.0  0.62455  0.93149  0.21310  1.0000
  H   H5268     1.0  0.51416  0.91171  0.15616  1.0000
  H   H5269     1.0  0.94140  0.98633  0.15844  1.0000
  C   C2963     1.0  0.50211  0.88824  0.19496  1.0000
  C   C2964     1.0  0.97115  0.92132  0.15416  1.0000
  C   C2965     1.0  0.90128  0.95551  0.21017  1.0000
  H   H5270     1.0  0.65730  0.66860  0.13441  1.0000
  H   H5271     1.0  0.93614  0.72191  0.08330  1.0000
  H   H5272     1.0  0.89874  0.72715  0.09752  1.0000
  C   C2966     1.0  0.74345  0.84943  0.03141  1.0000
  C   C2967     1.0  0.85156  0.87740  0.22935  1.0000
  H   H5273     1.0  0.97265  0.97210  0.17633  1.0000
  C   C2968     1.0  0.61654  0.90209  0.15856  1.0000
  H   H5274     1.0  0.78308  0.78166  0.14489  1.0000
  H   H5275     1.0  0.54453  0.97660  0.18475  1.0000
  Fe  Fe333     1.0  0.89695  0.95570  0.12751  1.0000
  N   N165      1.0  0.64978  0.66267  0.16510  1.0000
  H   H5276     1.0  0.84874  0.66699  0.15589  1.0000
  H   H5277     1.0  0.76962  0.87684  0.01624  1.0000
  Fe  Fe334     1.0  0.86489  0.69638  0.03570  1.0000
  C   C2969     1.0  0.67415  0.75518  0.99282  1.0000
  H   H5278     1.0  0.79479  0.75089  0.01547  1.0000
  H   H5279     1.0  0.90442  0.73175  0.07213  1.0000
  H   H5280     1.0  0.96032  0.69024  0.03640  1.0000
  C   C2970     1.0  0.51204  0.96123  0.10164  1.0000
  C   C2971     1.0  0.88467  0.81726  0.01209  1.0000
  H   H5281     1.0  0.73323  0.88186  0.02767  1.0000
  H   H5282     1.0  0.54711  0.85812  0.20463  1.0000
  H   H5283     1.0  0.88934  0.68096  0.11352  1.0000
  H   H5284     1.0  0.75179  0.71912  0.10239  1.0000
  H   H5285     1.0  0.74961  0.83757  0.02282  1.0000
  H   H5286     1.0  0.75413  0.84799  0.04050  1.0000
  H   H5287     1.0  0.52551  0.95915  0.07269  1.0000
  H   H5288     1.0  0.51796  0.91204  0.07926  1.0000
  C   C2972     1.0  0.69053  0.68479  0.12167  1.0000
  C   C2973     1.0  0.75106  0.91336  0.99758  1.0000
  H   H5289     1.0  0.86131  0.90454  0.22773  1.0000
  C   C2974     1.0  0.75179  0.72448  0.11498  1.0000
  H   H5290     1.0  0.60763  0.91928  0.19449  1.0000
  H   H5291     1.0  0.55839  0.93258  0.17901  1.0000
  N   N166      1.0  0.88306  0.81991  0.10944  1.0000
  C   C2975     1.0  0.89951  0.80107  0.11324  1.0000
  C   C2976     1.0  0.88678  0.83670  0.11636  1.0000
  C   C2977     1.0  0.86249  0.81470  0.11951  1.0000
  C   C2978     1.0  0.88339  0.82718  0.08861  1.0000
  C   C2979     1.0  0.90402  0.83151  0.07553  1.0000
  C   C2980     1.0  0.90021  0.78323  0.10426  1.0000
  C   C2981     1.0  0.84379  0.83292  0.11904  1.0000
  C   C2982     1.0  0.88426  0.83311  0.13805  1.0000
  C   C2983     1.0  0.88755  0.85153  0.14330  1.0000
  C   C2984     1.0  0.90267  0.83722  0.05477  1.0000
  C   C2985     1.0  0.91728  0.76497  0.10923  1.0000
  H   H5292     1.0  0.89765  0.79472  0.12873  1.0000
  H   H5293     1.0  0.91490  0.80502  0.10853  1.0000
  H   H5294     1.0  0.90255  0.83936  0.10984  1.0000
  H   H5295     1.0  0.87664  0.85150  0.11162  1.0000
  H   H5296     1.0  0.86246  0.80678  0.13450  1.0000
  H   H5297     1.0  0.85931  0.80355  0.11312  1.0000
  H   H5298     1.0  0.87841  0.81626  0.08344  1.0000
  H   H5299     1.0  0.87192  0.84156  0.08603  1.0000
  H   H5300     1.0  0.91667  0.81799  0.07727  1.0000
  H   H5301     1.0  0.90805  0.84450  0.07856  1.0000
  H   H5302     1.0  0.88559  0.77784  0.10941  1.0000
  H   H5303     1.0  0.90315  0.78793  0.08863  1.0000
  H   H5304     1.0  0.84150  0.83910  0.10439  1.0000
  H   H5305     1.0  0.86870  0.83078  0.14577  1.0000
  H   H5306     1.0  0.89563  0.81956  0.14317  1.0000
  H   H5307     1.0  0.87579  0.86535  0.13934  1.0000
  H   H5308     1.0  0.88627  0.84847  0.15879  1.0000
  H   H5309     1.0  0.90297  0.85472  0.13597  1.0000
  H   H5310     1.0  0.91756  0.84022  0.04563  1.0000
  H   H5311     1.0  0.89894  0.82456  0.05088  1.0000
  H   H5312     1.0  0.89072  0.85128  0.05206  1.0000
  H   H5313     1.0  0.91470  0.75898  0.12478  1.0000
  H   H5314     1.0  0.91749  0.75257  0.10250  1.0000
  H   H5315     1.0  0.93240  0.76942  0.10394  1.0000
  H   H5316     1.0  0.81098  0.83933  0.12977  1.0000
  N   N167      1.0  0.59904  0.94021  0.15835  1.0000
  C   C2986     1.0  0.59671  0.91833  0.16302  1.0000
  C   C2987     1.0  0.57830  0.95419  0.16282  1.0000
  C   C2988     1.0  0.60740  0.94602  0.13727  1.0000
  C   C2989     1.0  0.61388  0.94311  0.16823  1.0000
  C   C2990     1.0  0.61012  0.93513  0.18995  1.0000
  C   C2991     1.0  0.96585  0.67953  0.04881  1.0000
  H   H5317     1.0  0.61705  0.98982  0.10258  1.0000
  C   C2992     1.0  0.49622  0.98675  0.23160  1.0000
  C   C2993     1.0  0.68747  0.77082  0.98857  1.0000
  H   H5318     1.0  0.96099  0.99229  0.21907  1.0000
  H   H5319     1.0  0.59627  0.97961  0.13426  1.0000
  H   H5320     1.0  0.96043  0.69352  0.10254  1.0000
  S   S667      1.0  0.76081  0.66981  0.07939  1.0000
  H   H5321     1.0  0.78092  0.69194  0.99871  1.0000
  C   C2994     1.0  0.90535  0.94592  0.22813  1.0000
  H   H5322     1.0  0.93829  0.98381  0.19379  1.0000
  C   C2995     1.0  0.67195  0.66028  0.09222  1.0000
  H   H5323     1.0  0.94043  0.66463  0.05268  1.0000
  H   H5324     1.0  0.72313  0.93277  0.02558  1.0000
  H   H5325     1.0  0.96875  0.71435  0.07186  1.0000
  C   C2996     1.0  0.69283  0.70464  0.99163  1.0000
  H   H5326     1.0  0.83343  0.67249  0.06174  1.0000
  H   H5327     1.0  0.95474  0.94300  0.23292  1.0000
  H   H5328     1.0  0.70512  0.79972  0.98775  1.0000
  H   H5329     1.0  0.87768  0.67370  0.16519  1.0000
  C   C2997     1.0  0.58749  0.97788  0.21683  1.0000
  H   H5330     1.0  0.55830  0.97914  0.21157  1.0000
  C   C2998     1.0  0.80142  0.67117  0.07215  1.0000
  H   H5331     1.0  0.79920  0.88587  0.00210  1.0000
  C   C2999     1.0  0.57313  0.98308  0.20561  1.0000
  C   C3000     1.0  0.96691  0.67379  0.08207  1.0000
  S   S668      1.0  0.88789  0.98988  0.11724  1.0000
  H   H5332     1.0  0.78067  0.81977  0.99627  1.0000
  C   C3001     1.0  0.61514  0.67548  0.15439  1.0000
  H   H5333     1.0  0.78916  0.91289  0.99630  1.0000
  H   H5334     1.0  0.68379  0.68528  0.15099  1.0000
  H   H5335     1.0  0.88254  0.81304  0.02771  1.0000
  H   H5336     1.0  0.95495  0.66479  0.08968  1.0000
  C   C3002     1.0  0.53919  0.98704  0.09608  1.0000
  H   H5337     1.0  0.82987  0.66605  0.99926  1.0000
  H   H5338     1.0  0.83208  0.68058  0.01424  1.0000
  C   C3003     1.0  0.50567  0.90725  0.19453  1.0000
  C   C3004     1.0  0.65910  0.66443  0.18032  1.0000
  C   C3005     1.0  0.90703  0.92477  0.23427  1.0000
  C   C3006     1.0  0.79608  0.89908  0.99032  1.0000
  C   C3007     1.0  0.49880  0.67712  0.11515  1.0000
  H   H5339     1.0  0.96621  0.98925  0.11748  1.0000
  H   H5340     1.0  0.50339  0.97091  0.22979  1.0000
  H   H5341     1.0  0.61651  0.66094  0.15046  1.0000
  H   H5342     1.0  0.85383  0.67801  0.18217  1.0000
  N   N168      1.0  0.76036  0.89398  0.99017  1.0000
  H   H5343     1.0  0.99379  0.73597  0.03671  1.0000
  C   C3008     1.0  0.82354  0.77332  0.98914  1.0000
  H   H5344     1.0  0.79272  0.66478  0.02032  1.0000
  Fe  Fe335     1.0  0.90003  0.66297  0.04569  1.0000
  H   H5345     1.0  0.84532  0.66701  0.09840  1.0000
  S   S669      1.0  0.87431  0.66396  0.03256  1.0000
  H   H5346     1.0  0.75755  0.92643  0.98769  1.0000
  C   C3009     1.0  0.80570  0.66705  0.02472  1.0000
  Fe  Fe336     1.0  0.55985  0.90563  0.22963  1.0000
  H   H5347     1.0  0.86184  0.96566  0.23622  1.0000
  C   C3010     1.0  0.99533  0.94199  0.23372  1.0000
  H   H5348     1.0  0.96545  0.65955  0.02203  1.0000
  C   C3011     1.0  0.95714  0.66017  0.05203  1.0000
  H   H5349     1.0  0.80116  0.65972  0.99031  1.0000
  Fe  Fe337     1.0  0.60151  0.84347  0.38860  1.0000
  S   S670      1.0  0.62205  0.85548  0.36166  1.0000
  S   S671      1.0  0.58053  0.82429  0.38814  1.0000
  Fe  Fe338     1.0  0.61516  0.86537  0.41109  1.0000
  S   S672      1.0  0.63644  0.87987  0.38570  1.0000
  S   S673      1.0  0.61238  0.86629  0.44124  1.0000
  Fe  Fe339     1.0  0.61087  0.88522  0.37088  1.0000
  S   S674      1.0  0.60116  0.91235  0.34849  1.0000
  Fe  Fe340     1.0  0.64537  0.84897  0.37867  1.0000
  S   S675      1.0  0.67707  0.83324  0.36687  1.0000
  S   S676      1.0  0.58865  0.87366  0.39694  1.0000
  S   S677      1.0  0.62591  0.83396  0.40511  1.0000
  Fe  Fe341     1.0  0.64333  0.72133  0.42322  1.0000
  S   S678      1.0  0.60934  0.73236  0.42780  1.0000
  H   H5350     1.0  0.62833  0.90096  0.41611  1.0000
  Fe  Fe342     1.0  0.80493  0.83214  0.39919  1.0000
  S   S679      1.0  0.78360  0.86050  0.40724  1.0000
  S   S680      1.0  0.83864  0.83173  0.38686  1.0000
  Fe  Fe343     1.0  0.77170  0.80662  0.41471  1.0000
  S   S681      1.0  0.74806  0.83316  0.42369  1.0000
  S   S682      1.0  0.76233  0.77582  0.42442  1.0000
  Fe  Fe344     1.0  0.76154  0.85153  0.39585  1.0000
  S   S683      1.0  0.74013  0.87551  0.37975  1.0000
  Fe  Fe345     1.0  0.77227  0.83946  0.43434  1.0000
  S   S684      1.0  0.76162  0.84869  0.46245  1.0000
  S   S685      1.0  0.78360  0.82454  0.38565  1.0000
  S   S686      1.0  0.79525  0.81163  0.42746  1.0000
  Fe  Fe346     1.0  0.88963  0.91883  0.30955  1.0000
  S   S687      1.0  0.91525  0.91247  0.28469  1.0000
  S   S688      1.0  0.86027  0.90700  0.32070  1.0000
  H   H5351     1.0  0.52482  0.91145  0.37493  1.0000
  Fe  Fe347     1.0  0.90872  0.94633  0.27340  1.0000
  H   H5352     1.0  0.68162  0.90095  0.32563  1.0000
  Fe  Fe348     1.0  0.93505  0.91961  0.30009  1.0000
  S   S689      1.0  0.96747  0.90230  0.30012  1.0000
  S   S690      1.0  0.88169  0.95241  0.29701  1.0000
  S   S691      1.0  0.91015  0.92251  0.32604  1.0000
  H   H5353     1.0  0.82888  0.89469  0.29268  1.0000
  Fe  Fe349     1.0  0.67466  0.68618  0.40933  1.0000
  C   C3012     1.0  0.54655  0.95662  0.30940  1.0000
  C   C3013     1.0  0.84232  0.89600  0.25619  1.0000
  Fe  Fe350     1.0  0.52952  0.92093  0.26244  1.0000
  S   S692      1.0  0.58338  0.87146  0.29138  1.0000
  H   H5354     1.0  0.65828  0.68955  0.36993  1.0000
  H   H5355     1.0  0.97340  0.96739  0.25840  1.0000
  H   H5356     1.0  0.62562  0.66526  0.39685  1.0000
  H   H5357     1.0  0.62333  0.70988  0.39337  1.0000
  S   S693      1.0  0.55378  0.92476  0.27453  1.0000
  S   S694      1.0  0.66296  0.71823  0.39467  1.0000
  H   H5358     1.0  0.78007  0.93310  0.29874  1.0000
  H   H5359     1.0  0.56539  0.72180  0.40353  1.0000
  S   S695      1.0  0.68745  0.69181  0.47161  1.0000
  H   H5360     1.0  0.51608  0.88411  0.36163  1.0000
  C   C3014     1.0  0.97945  0.91298  0.31157  1.0000
  C   C3015     1.0  0.96776  0.92491  0.32457  1.0000
  C   C3016     1.0  0.97738  0.93431  0.33290  1.0000
  H   H5361     1.0  0.96980  0.95549  0.29285  1.0000
  C   C3017     1.0  0.83151  0.91012  0.28460  1.0000
  H   H5362     1.0  0.81224  0.77965  0.48149  1.0000
  H   H5363     1.0  0.95127  0.92707  0.32809  1.0000
  H   H5364     1.0  0.96824  0.94359  0.34290  1.0000
  H   H5365     1.0  0.88846  0.89702  0.39485  1.0000
  H   H5366     1.0  0.72673  0.71662  0.33540  1.0000
  Fe  Fe351     1.0  0.67757  0.70065  0.44374  1.0000
  C   C3018     1.0  0.75638  0.68289  0.34294  1.0000
  H   H5367     1.0  0.66169  0.90678  0.31271  1.0000
  Fe  Fe352     1.0  0.68682  0.72670  0.40446  1.0000
  C   C3019     1.0  0.61587  0.73037  0.36816  1.0000
  H   H5368     1.0  0.82510  0.94035  0.37446  1.0000
  C   C3020     1.0  0.66807  0.72919  0.48075  1.0000
  C   C3021     1.0  0.84480  0.85241  0.36824  1.0000
  C   C3022     1.0  0.82946  0.86716  0.36054  1.0000
  C   C3023     1.0  0.83458  0.88371  0.34590  1.0000
  C   C3024     1.0  0.85501  0.88575  0.33895  1.0000
  C   C3025     1.0  0.87041  0.87105  0.34660  1.0000
  C   C3026     1.0  0.86530  0.85438  0.36122  1.0000
  H   H5369     1.0  0.81366  0.86572  0.36580  1.0000
  H   H5370     1.0  0.82260  0.89498  0.33996  1.0000
  H   H5371     1.0  0.88621  0.87239  0.34113  1.0000
  H   H5372     1.0  0.87722  0.84296  0.36711  1.0000
  H   H5373     1.0  0.75348  0.77071  0.47055  1.0000
  C   C3027     1.0  0.49757  0.98252  0.28271  1.0000
  C   C3028     1.0  0.79975  0.83593  0.47108  1.0000
  C   C3029     1.0  0.77896  0.84416  0.47692  1.0000
  Fe  Fe353     1.0  0.57079  0.89464  0.26796  1.0000
  H   H5374     1.0  0.67760  0.92461  0.34866  1.0000
  H   H5375     1.0  0.64454  0.97764  0.37378  1.0000
  H   H5376     1.0  0.80549  0.83187  0.45743  1.0000
  C   C3030     1.0  0.53566  0.89838  0.36963  1.0000
  C   C3031     1.0  0.72173  0.75632  0.39660  1.0000
  C   C3032     1.0  0.73168  0.77252  0.38674  1.0000
  C   C3033     1.0  0.74361  0.77916  0.39531  1.0000
  C   C3034     1.0  0.74614  0.76922  0.41362  1.0000
  C   C3035     1.0  0.73607  0.75311  0.42350  1.0000
  C   C3036     1.0  0.72362  0.74694  0.41518  1.0000
  H   H5377     1.0  0.73019  0.77994  0.37241  1.0000
  H   H5378     1.0  0.75131  0.79158  0.38754  1.0000
  H   H5379     1.0  0.73794  0.74531  0.43766  1.0000
  H   H5380     1.0  0.71596  0.73450  0.42298  1.0000
  C   C3037     1.0  0.59411  0.90251  0.33269  1.0000
  C   C3038     1.0  0.59671  0.91202  0.31347  1.0000
  C   C3039     1.0  0.59294  0.90280  0.30070  1.0000
  C   C3040     1.0  0.58676  0.88402  0.30717  1.0000
  C   C3041     1.0  0.58334  0.87505  0.32648  1.0000
  C   C3042     1.0  0.58678  0.88439  0.33920  1.0000
  H   H5381     1.0  0.60225  0.92611  0.30835  1.0000
  H   H5382     1.0  0.59556  0.90985  0.28577  1.0000
  H   H5383     1.0  0.57800  0.86087  0.33167  1.0000
  H   H5384     1.0  0.58385  0.87742  0.35413  1.0000
  C   C3043     1.0  0.58918  0.79844  0.39788  1.0000
  C   C3044     1.0  0.57513  0.78562  0.40548  1.0000
  C   C3045     1.0  0.58149  0.76528  0.41450  1.0000
  C   C3046     1.0  0.60199  0.75758  0.41563  1.0000
  C   C3047     1.0  0.61626  0.77010  0.40725  1.0000
  C   C3048     1.0  0.60982  0.79060  0.39845  1.0000
  H   H5385     1.0  0.55920  0.79164  0.40497  1.0000
  H   H5386     1.0  0.57044  0.75564  0.42088  1.0000
  H   H5387     1.0  0.63211  0.76411  0.40801  1.0000
  H   H5388     1.0  0.62077  0.80035  0.39218  1.0000
  C   C3049     1.0  0.69516  0.84504  0.36931  1.0000
  C   C3050     1.0  0.71303  0.83313  0.37490  1.0000
  C   C3051     1.0  0.72679  0.84244  0.37831  1.0000
  C   C3052     1.0  0.72301  0.86375  0.37551  1.0000
  C   C3053     1.0  0.70536  0.87570  0.36947  1.0000
  C   C3054     1.0  0.69135  0.86631  0.36656  1.0000
  H   H5389     1.0  0.71599  0.81668  0.37699  1.0000
  H   H5390     1.0  0.74037  0.83311  0.38296  1.0000
  H   H5391     1.0  0.70251  0.89213  0.36719  1.0000
  H   H5392     1.0  0.67773  0.87540  0.36195  1.0000
  C   C3055     1.0  0.62070  0.88605  0.44535  1.0000
  C   C3056     1.0  0.62775  0.90136  0.43043  1.0000
  S   S696      1.0  0.70768  0.74754  0.38524  1.0000
  H   H5393     1.0  0.60246  0.73772  0.36163  1.0000
  H   H5394     1.0  0.68019  0.91611  0.40725  1.0000
  H   H5395     1.0  0.53653  0.72915  0.42937  1.0000
  H   H5396     1.0  0.52149  0.98939  0.24086  1.0000
  H   H5397     1.0  0.71746  0.66716  0.36090  1.0000
  C   C3057     1.0  0.69936  0.70993  0.35484  1.0000
  C   C3058     1.0  0.87248  0.93547  0.40058  1.0000
  H   H5398     1.0  0.97805  0.99065  0.35486  1.0000
  C   C3059     1.0  0.72145  0.70245  0.34399  1.0000
  H   H5399     1.0  0.71483  0.89728  0.41612  1.0000
  H   H5400     1.0  0.97359  0.92874  0.25872  1.0000
  H   H5401     1.0  0.62489  0.92319  0.36816  1.0000
  H   H5402     1.0  0.86982  0.93984  0.26549  1.0000
  H   H5403     1.0  0.64084  0.68679  0.34635  1.0000
  H   H5404     1.0  0.61584  0.93384  0.39786  1.0000
  H   H5405     1.0  0.85644  0.97641  0.25664  1.0000
  H   H5406     1.0  0.88090  0.89893  0.25969  1.0000
  C   C3060     1.0  0.52980  0.94417  0.31714  1.0000
  H   H5407     1.0  0.50321  0.88549  0.26531  1.0000
  C   C3061     1.0  0.73826  0.80160  0.47104  1.0000
  H   H5408     1.0  0.90721  0.88222  0.35770  1.0000
  H   H5409     1.0  0.62221  0.78352  0.28729  1.0000
  H   H5410     1.0  0.82091  0.90091  0.38878  1.0000
  H   H5411     1.0  0.70204  0.95052  0.48551  1.0000
  C   C3062     1.0  0.60956  0.71635  0.38734  1.0000
  H   H5412     1.0  0.97585  0.86692  0.36272  1.0000
  H   H5413     1.0  0.83658  0.91613  0.29434  1.0000
  H   H5414     1.0  0.73309  0.87813  0.42784  1.0000
  H   H5415     1.0  0.66002  0.90876  0.36158  1.0000
  H   H5416     1.0  0.62479  0.90308  0.48212  1.0000
  N   N169      1.0  0.67693  0.80717  0.43651  1.0000
  C   C3063     1.0  0.68554  0.82576  0.43394  1.0000
  C   C3064     1.0  0.69084  0.78839  0.44531  1.0000
  C   C3065     1.0  0.67752  0.80477  0.41704  1.0000
  C   C3066     1.0  0.65517  0.80897  0.44799  1.0000
  C   C3067     1.0  0.64898  0.82127  0.46379  1.0000
  C   C3068     1.0  0.67482  0.84585  0.42217  1.0000
  C   C3069     1.0  0.67045  0.78575  0.41624  1.0000
  H   H5417     1.0  0.54302  0.89454  0.31573  1.0000
  H   H5418     1.0  0.52319  0.87551  0.39326  1.0000
  C   C3070     1.0  0.67937  0.86483  0.42524  1.0000
  C   C3071     1.0  0.66845  0.78685  0.39636  1.0000
  H   H5419     1.0  0.70206  0.82304  0.42667  1.0000
  H   H5420     1.0  0.68533  0.82860  0.44774  1.0000
  H   H5421     1.0  0.68571  0.77428  0.44618  1.0000
  H   H5422     1.0  0.70658  0.78699  0.43616  1.0000
  H   H5423     1.0  0.69331  0.80427  0.40805  1.0000
  H   H5424     1.0  0.66768  0.81823  0.40968  1.0000
  H   H5425     1.0  0.64410  0.81653  0.43868  1.0000
  H   H5426     1.0  0.65177  0.79345  0.45453  1.0000
  H   H5427     1.0  0.64778  0.83786  0.45755  1.0000
  C   C3072     1.0  0.62817  0.81843  0.47653  1.0000
  H   H5428     1.0  0.68046  0.84584  0.40692  1.0000
  H   H5429     1.0  0.65799  0.84738  0.42545  1.0000
  H   H5430     1.0  0.65546  0.78426  0.42602  1.0000
  H   H5431     1.0  0.68195  0.77166  0.41984  1.0000
  H   H5432     1.0  0.91611  0.87246  0.37938  1.0000
  N   N170      1.0  0.52267  0.90921  0.33798  1.0000
  H   H5433     1.0  0.83566  0.93630  0.24832  1.0000
  C   C3073     1.0  0.85392  0.94467  0.26330  1.0000
  H   H5434     1.0  0.72076  0.92256  0.46701  1.0000
  H   H5435     1.0  0.62215  0.74256  0.37014  1.0000
  H   H5436     1.0  0.67273  0.87859  0.41547  1.0000
  H   H5437     1.0  0.67224  0.86668  0.43996  1.0000
  H   H5438     1.0  0.69615  0.86375  0.42229  1.0000
  H   H5439     1.0  0.65599  0.79966  0.39220  1.0000
  H   H5440     1.0  0.68303  0.78902  0.38608  1.0000
  H   H5441     1.0  0.66504  0.77240  0.39575  1.0000
  N   N171      1.0  0.84789  0.90844  0.26682  1.0000
  C   C3074     1.0  0.83254  0.95588  0.33585  1.0000
  S   S697      1.0  0.66561  0.73351  0.43142  1.0000
  H   H5442     1.0  0.55980  0.72442  0.43747  1.0000
  S   S698      1.0  0.93008  0.95330  0.28732  1.0000
  Fe  Fe354     1.0  0.90356  0.95588  0.31226  1.0000
  H   H5443     1.0  0.85412  0.90249  0.40739  1.0000
  H   H5444     1.0  0.75921  0.72196  0.38201  1.0000
  C   C3075     1.0  0.63371  0.91736  0.43416  1.0000
  H   H5445     1.0  0.62362  0.82828  0.48697  1.0000
  H   H5446     1.0  0.50892  0.99138  0.28048  1.0000
  C   C3076     1.0  0.70257  0.86423  0.46335  1.0000
  H   H5447     1.0  0.81720  0.96320  0.34308  1.0000
  H   H5448     1.0  0.51948  0.95711  0.27319  1.0000
  H   H5449     1.0  0.63883  0.92938  0.42275  1.0000
  H   H5450     1.0  0.85753  0.96087  0.41467  1.0000
  H   H5451     1.0  0.74114  0.71744  0.36004  1.0000
  C   C3077     1.0  0.66109  0.92413  0.35239  1.0000
  C   C3078     1.0  0.84406  0.91040  0.39731  1.0000
  C   C3079     1.0  0.66480  0.90515  0.32679  1.0000
  H   H5452     1.0  0.86625  0.95173  0.37386  1.0000
  H   H5453     1.0  0.69848  0.93247  0.39822  1.0000
  C   C3080     1.0  0.79655  0.75754  0.46943  1.0000
  H   H5454     1.0  0.63892  0.92838  0.33448  1.0000
  C   C3081     1.0  0.62615  0.93915  0.36694  1.0000
  H   H5455     1.0  0.61219  0.96042  0.38648  1.0000
  H   H5456     1.0  0.72055  0.69395  0.33378  1.0000
  H   H5457     1.0  0.65767  0.89263  0.33682  1.0000
  H   H5458     1.0  0.65898  0.73118  0.47064  1.0000
  H   H5459     1.0  0.82545  0.86561  0.40703  1.0000
  S   S699      1.0  0.70011  0.69432  0.41710  1.0000
  H   H5460     1.0  0.68033  0.95248  0.37292  1.0000
  C   C3082     1.0  0.90811  0.88628  0.37065  1.0000
  H   H5461     1.0  0.69341  0.87829  0.45596  1.0000
  H   H5462     1.0  0.71889  0.86527  0.45902  1.0000
  H   H5463     1.0  0.70084  0.85081  0.45913  1.0000
  C   C3083     1.0  0.75599  0.70731  0.39158  1.0000
  H   H5464     1.0  0.84816  0.96331  0.35280  1.0000
  C   C3084     1.0  0.86811  0.89837  0.27234  1.0000
  C   C3085     1.0  0.63283  0.91797  0.45277  1.0000
  S   S700      1.0  0.58716  0.90788  0.23886  1.0000
  H   H5465     1.0  0.77023  0.68850  0.37144  1.0000
  C   C3086     1.0  0.74505  0.90216  0.44441  1.0000
  C   C3087     1.0  0.76070  0.93180  0.42994  1.0000
  C   C3088     1.0  0.77018  0.94910  0.43091  1.0000
  H   H5466     1.0  0.52038  0.91076  0.30937  1.0000
  C   C3089     1.0  0.72668  0.90827  0.43451  1.0000
  C   C3090     1.0  0.78238  0.95790  0.41146  1.0000
  C   C3091     1.0  0.73189  0.93233  0.45836  1.0000
  C   C3092     1.0  0.72922  0.89453  0.42095  1.0000
  H   H5467     1.0  0.54161  0.97028  0.29867  1.0000
  H   H5468     1.0  0.87850  0.96609  0.39480  1.0000
  H   H5469     1.0  0.60117  0.66591  0.37113  1.0000
  H   H5470     1.0  0.75836  0.89338  0.43571  1.0000
  H   H5471     1.0  0.77254  0.92156  0.42145  1.0000
  H   H5472     1.0  0.74930  0.93925  0.42101  1.0000
  H   H5473     1.0  0.78075  0.94368  0.44071  1.0000
  H   H5474     1.0  0.75784  0.96180  0.43546  1.0000
  C   C3093     1.0  0.85180  0.96605  0.25047  1.0000
  H   H5475     1.0  0.79434  0.90514  0.43967  1.0000
  H   H5476     1.0  0.72438  0.92426  0.42633  1.0000
  H   H5477     1.0  0.98818  0.88793  0.34991  1.0000
  C   C3094     1.0  0.72758  0.67097  0.36807  1.0000
  H   H5478     1.0  0.54288  0.88509  0.39724  1.0000
  H   H5479     1.0  0.97905  0.97936  0.32033  1.0000
  C   C3095     1.0  0.75481  0.69252  0.38043  1.0000
  H   H5480     1.0  0.75413  0.67372  0.33394  1.0000
  N   N172      1.0  0.73631  0.68944  0.35610  1.0000
  H   H5481     1.0  0.74165  0.89789  0.40837  1.0000
  C   C3096     1.0  0.73837  0.70217  0.36850  1.0000
  H   H5482     1.0  0.52673  0.94038  0.30510  1.0000
  H   H5483     1.0  0.72367  0.70572  0.37873  1.0000
  H   H5484     1.0  0.67222  0.94289  0.40814  1.0000
  H   H5485     1.0  0.61922  0.94843  0.35478  1.0000
  H   H5486     1.0  0.76891  0.71055  0.33755  1.0000
  H   H5487     1.0  0.84647  0.88733  0.38131  1.0000
  C   C3097     1.0  0.87459  0.91249  0.36992  1.0000
  H   H5488     1.0  0.81058  0.72833  0.44715  1.0000
  C   C3098     1.0  0.56205  0.70871  0.41535  1.0000
  S   S701      1.0  0.64034  0.93813  0.45717  1.0000
  C   C3099     1.0  0.77013  0.78397  0.48407  1.0000
  C   C3100     1.0  0.68234  0.93179  0.39962  1.0000
  H   H5489     1.0  0.79347  0.88296  0.48107  1.0000
  H   H5490     1.0  0.61146  0.69176  0.37445  1.0000
  H   H5491     1.0  0.62891  0.80225  0.48429  1.0000
  N   N173      1.0  0.85479  0.92393  0.38020  1.0000
  H   H5492     1.0  0.73816  0.93279  0.48521  1.0000
  H   H5493     1.0  0.80613  0.90364  0.46765  1.0000
  H   H5494     1.0  0.84334  0.94594  0.27712  1.0000
  H   H5495     1.0  0.49964  0.88484  0.32955  1.0000
  H   H5496     1.0  0.98913  0.86797  0.33836  1.0000
  H   H5497     1.0  0.71232  0.90689  0.44545  1.0000
  C   C3101     1.0  0.81453  0.73871  0.47049  1.0000
  C   C3102     1.0  0.58944  0.94507  0.38590  1.0000
  C   C3103     1.0  0.65783  0.67468  0.36844  1.0000
  H   H5498     1.0  0.77239  0.96406  0.40109  1.0000
  H   H5499     1.0  0.81471  0.87894  0.46149  1.0000
  C   C3104     1.0  0.68491  0.72007  0.34132  1.0000
  H   H5500     1.0  0.54202  0.88069  0.34901  1.0000
  H   H5501     1.0  0.91058  0.91712  0.24783  1.0000
  H   H5502     1.0  0.87191  0.90670  0.35862  1.0000
  S   S702      1.0  0.89180  0.97576  0.33384  1.0000
  H   H5503     1.0  0.83110  0.94261  0.33121  1.0000
  H   H5504     1.0  0.89785  0.98438  0.36623  1.0000
  H   H5505     1.0  0.73120  0.80364  0.45896  1.0000
  H   H5506     1.0  0.61630  0.82297  0.46802  1.0000
  C   C3105     1.0  0.87300  0.95426  0.40708  1.0000
  H   H5507     1.0  0.86717  0.92420  0.41341  1.0000
  H   H5508     1.0  0.62255  0.68064  0.41291  1.0000
  N   N174      1.0  0.59506  0.68345  0.40332  1.0000
  H   H5509     1.0  0.74134  0.71052  0.40195  1.0000
  H   H5510     1.0  0.74173  0.81637  0.47053  1.0000
  H   H5511     1.0  0.51464  0.85869  0.31042  1.0000
  C   C3106     1.0  0.55009  0.71730  0.43279  1.0000
  H   H5512     1.0  0.57712  0.68148  0.43193  1.0000
  H   H5513     1.0  0.69041  0.73322  0.33079  1.0000
  C   C3107     1.0  0.52876  0.89239  0.35434  1.0000
  H   H5514     1.0  0.82817  0.90437  0.25106  1.0000
  H   H5515     1.0  0.83078  0.91982  0.40545  1.0000
  C   C3108     1.0  0.61160  0.94513  0.38522  1.0000
  C   C3109     1.0  0.69241  0.78676  0.46571  1.0000
  H   H5516     1.0  0.75781  0.70957  0.31892  1.0000
  C   C3110     1.0  0.52629  0.89953  0.32132  1.0000
  C   C3111     1.0  0.76589  0.91003  0.46154  1.0000
  C   C3112     1.0  0.84749  0.94923  0.34900  1.0000
  H   H5517     1.0  0.68367  0.70884  0.33390  1.0000
  H   H5518     1.0  0.99364  0.97991  0.25735  1.0000
  N   N175      1.0  0.62855  0.81290  0.32636  1.0000
  C   C3113     1.0  0.62636  0.83565  0.31847  1.0000
  C   C3114     1.0  0.60882  0.80912  0.34013  1.0000
  C   C3115     1.0  0.64524  0.80600  0.33742  1.0000
  C   C3116     1.0  0.63419  0.80078  0.31113  1.0000
  C   C3117     1.0  0.62614  0.81129  0.29275  1.0000
  C   C3118     1.0  0.64641  0.84304  0.30747  1.0000
  C   C3119     1.0  0.64823  0.78341  0.34872  1.0000
  C   C3120     1.0  0.58978  0.81386  0.33159  1.0000
  C   C3121     1.0  0.57023  0.81313  0.34704  1.0000
  C   C3122     1.0  0.63038  0.79624  0.28003  1.0000
  C   C3123     1.0  0.64193  0.86529  0.29674  1.0000
  C   C3124     1.0  0.66979  0.77549  0.35248  1.0000
  H   H5519     1.0  0.61959  0.84407  0.33004  1.0000
  H   H5520     1.0  0.61521  0.84147  0.30924  1.0000
  H   H5521     1.0  0.61029  0.79285  0.34779  1.0000
  H   H5522     1.0  0.60521  0.81804  0.35130  1.0000
  H   H5523     1.0  0.64248  0.81584  0.34771  1.0000
  H   H5524     1.0  0.66026  0.80796  0.32777  1.0000
  H   H5525     1.0  0.65114  0.79641  0.30639  1.0000
  H   H5526     1.0  0.62900  0.78602  0.31700  1.0000
  H   H5527     1.0  0.63387  0.82407  0.28450  1.0000
  H   H5528     1.0  0.60949  0.81769  0.29566  1.0000
  H   H5529     1.0  0.65581  0.84230  0.31750  1.0000
  H   H5530     1.0  0.65563  0.83341  0.29728  1.0000
  H   H5531     1.0  0.64571  0.77300  0.34118  1.0000
  H   H5532     1.0  0.63717  0.78235  0.36261  1.0000
  H   H5533     1.0  0.58765  0.82921  0.32212  1.0000
  H   H5534     1.0  0.59132  0.80221  0.32348  1.0000
  H   H5535     1.0  0.55713  0.81483  0.34064  1.0000
  H   H5536     1.0  0.57171  0.79837  0.35761  1.0000
  H   H5537     1.0  0.56691  0.82589  0.35434  1.0000
  C   C3125     1.0  0.65526  0.93573  0.38148  1.0000
  H   H5538     1.0  0.62485  0.80426  0.26686  1.0000
  H   H5539     1.0  0.64706  0.78988  0.27610  1.0000
  H   H5540     1.0  0.63270  0.86707  0.28626  1.0000
  H   H5541     1.0  0.63344  0.87538  0.30677  1.0000
  H   H5542     1.0  0.65651  0.87023  0.28910  1.0000
  H   H5543     1.0  0.68117  0.77330  0.33919  1.0000
  H   H5544     1.0  0.67392  0.78647  0.35829  1.0000
  H   H5545     1.0  0.67062  0.76057  0.36283  1.0000
  H   H5546     1.0  0.72386  0.76924  0.46202  1.0000
  C   C3126     1.0  0.67765  0.93688  0.37999  1.0000
  H   H5547     1.0  0.88843  0.92920  0.39375  1.0000
  C   C3127     1.0  0.58196  0.69334  0.41932  1.0000
  H   H5548     1.0  0.55188  0.70120  0.41176  1.0000
  H   H5549     1.0  0.76837  0.70041  0.39950  1.0000
  H   H5550     1.0  0.56094  0.94741  0.30246  1.0000
  H   H5551     1.0  0.69647  0.80047  0.46719  1.0000
  H   H5552     1.0  0.70480  0.75385  0.47105  1.0000
  C   C3128     1.0  0.78643  0.89668  0.45325  1.0000
  H   H5553     1.0  0.88502  0.92323  0.36228  1.0000
  H   H5554     1.0  0.53657  0.93059  0.34421  1.0000
  H   H5555     1.0  0.62789  0.72158  0.35853  1.0000
  H   H5556     1.0  0.64562  0.94633  0.39063  1.0000
  H   H5557     1.0  0.83823  0.96712  0.32310  1.0000
  C   C3129     1.0  0.83577  0.89393  0.39305  1.0000
  H   H5558     1.0  0.83849  0.88153  0.26576  1.0000
  H   H5559     1.0  0.54956  0.96169  0.32093  1.0000
  H   H5560     1.0  0.79508  0.70436  0.30889  1.0000
  H   H5561     1.0  0.78541  0.75350  0.46375  1.0000
  H   H5562     1.0  0.59825  0.72606  0.39652  1.0000
  H   H5563     1.0  0.74076  0.89085  0.45778  1.0000
  H   H5564     1.0  0.86284  0.94297  0.34098  1.0000
  H   H5565     1.0  0.74670  0.95263  0.46603  1.0000
  C   C3130     1.0  0.84958  0.92922  0.25421  1.0000
  S   S703      1.0  0.54539  0.88951  0.25824  1.0000
  H   H5566     1.0  0.76778  0.67255  0.35095  1.0000
  H   H5567     1.0  0.96735  0.98267  0.28605  1.0000
  C   C3131     1.0  0.81323  0.83332  0.48283  1.0000
  H   H5568     1.0  0.68880  0.92582  0.37209  1.0000
  H   H5569     1.0  0.69302  0.69717  0.36518  1.0000
  H   H5570     1.0  0.84711  0.86797  0.41416  1.0000
  H   H5571     1.0  0.59100  0.70126  0.42402  1.0000
  C   C3132     1.0  0.60027  0.69926  0.38546  1.0000
  C   C3133     1.0  0.65562  0.92523  0.33343  1.0000
  H   H5572     1.0  0.72732  0.79692  0.48444  1.0000
  S   S704      1.0  0.58167  0.96506  0.24049  1.0000
  C   C3134     1.0  0.86999  0.87590  0.28372  1.0000
  H   H5573     1.0  0.87337  0.88180  0.24223  1.0000
  C   C3135     1.0  0.97816  0.96788  0.28511  1.0000
  C   C3136     1.0  0.81030  0.92344  0.28188  1.0000
  C   C3137     1.0  0.79511  0.92338  0.30094  1.0000
  C   C3138     1.0  0.89095  0.86755  0.28876  1.0000
  H   H5574     1.0  0.54973  0.86726  0.38203  1.0000
  H   H5575     1.0  0.82183  0.88238  0.42257  1.0000
  H   H5576     1.0  0.88361  0.94982  0.41683  1.0000
  Fe  Fe355     1.0  0.56786  0.93799  0.24470  1.0000
  C   C3139     1.0  0.73439  0.94390  0.47225  1.0000
  C   C3140     1.0  0.51653  0.88070  0.32512  1.0000
  H   H5577     1.0  0.67767  0.78460  0.47568  1.0000
  H   H5578     1.0  0.54474  0.70496  0.44459  1.0000
  H   H5579     1.0  0.87134  0.90710  0.28112  1.0000
  H   H5580     1.0  0.86815  0.86582  0.27547  1.0000
  H   H5581     1.0  0.85834  0.87470  0.29721  1.0000
  H   H5582     1.0  0.77696  0.79786  0.47850  1.0000
  H   H5583     1.0  0.58658  0.70675  0.37929  1.0000
  C   C3141     1.0  0.83233  0.87649  0.41033  1.0000
  C   C3142     1.0  0.61993  0.88660  0.46396  1.0000
  H   H5584     1.0  0.81133  0.93957  0.27516  1.0000
  H   H5585     1.0  0.80389  0.91756  0.27300  1.0000
  H   H5586     1.0  0.79293  0.90760  0.30810  1.0000
  C   C3143     1.0  0.70872  0.76809  0.47163  1.0000
  H   H5587     1.0  0.80069  0.92955  0.31026  1.0000
  H   H5588     1.0  0.90339  0.86846  0.27579  1.0000
  H   H5589     1.0  0.89298  0.87631  0.29817  1.0000
  H   H5590     1.0  0.89213  0.85130  0.29642  1.0000
  H   H5591     1.0  0.61437  0.87485  0.47557  1.0000
  C   C3144     1.0  0.98939  0.87125  0.35190  1.0000
  H   H5592     1.0  0.55084  0.90266  0.36371  1.0000
  H   H5593     1.0  0.55222  0.91735  0.32679  1.0000
  H   H5594     1.0  0.83566  0.71910  0.45239  1.0000
  H   H5595     1.0  0.87871  0.88073  0.38643  1.0000
  H   H5596     1.0  0.91727  0.89831  0.36657  1.0000
  C   C3145     1.0  0.84034  0.93310  0.36685  1.0000
  H   H5597     1.0  0.66184  0.93760  0.32226  1.0000
  H   H5598     1.0  0.65311  0.92014  0.38967  1.0000
  C   C3146     1.0  0.88670  0.89368  0.38195  1.0000
  H   H5599     1.0  0.82833  0.74530  0.44028  1.0000
  H   H5600     1.0  0.80234  0.77022  0.45820  1.0000
  H   H5601     1.0  0.83760  0.92090  0.36146  1.0000
  S   S705      1.0  0.65362  0.68879  0.43757  1.0000
  H   H5602     1.0  0.69924  0.72149  0.36251  1.0000
  H   H5603     1.0  0.78389  0.88261  0.45087  1.0000
  C   C3147     1.0  0.71464  0.95885  0.47845  1.0000
  C   C3148     1.0  0.65194  0.96085  0.35091  1.0000
  H   H5604     1.0  0.84369  0.95080  0.39218  1.0000
  C   C3149     1.0  0.98161  0.92615  0.24439  1.0000
  H   H5605     1.0  0.66863  0.96071  0.34616  1.0000
  C   C3150     1.0  0.62594  0.90254  0.46767  1.0000
  H   H5606     1.0  0.71032  0.97073  0.46614  1.0000
  N   N176      1.0  0.64843  0.94040  0.36311  1.0000
  H   H5607     1.0  0.66023  0.81674  0.47279  1.0000
  H   H5608     1.0  0.76997  0.92182  0.46630  1.0000
  H   H5609     1.0  0.75080  0.67873  0.39093  1.0000
  H   H5610     1.0  0.57944  0.94912  0.39921  1.0000
  N   N177      1.0  0.75108  0.91949  0.44859  1.0000
  C   C3151     1.0  0.53608  0.92476  0.33212  1.0000
  C   C3152     1.0  0.82273  0.73253  0.45139  1.0000
  H   H5611     1.0  0.76725  0.78926  0.45500  1.0000
  H   H5612     1.0  0.75841  0.90037  0.47477  1.0000
  C   C3153     1.0  0.69522  0.86220  0.48465  1.0000
  C   C3154     1.0  0.50357  0.96299  0.27873  1.0000
  S   S706      1.0  0.90740  0.96088  0.24283  1.0000
  H   H5613     1.0  0.83570  0.97229  0.24906  1.0000
  H   H5614     1.0  0.64650  0.96387  0.33765  1.0000
  C   C3155     1.0  0.85856  0.94133  0.38625  1.0000
  H   H5615     1.0  0.82938  0.82721  0.47820  1.0000
  H   H5616     1.0  0.53827  0.86765  0.30227  1.0000
  H   H5617     1.0  0.66941  0.72580  0.34947  1.0000
  H   H5618     1.0  0.71740  0.67447  0.38157  1.0000
  C   C3156     1.0  0.75778  0.78523  0.46938  1.0000
  C   C3157     1.0  0.53796  0.88042  0.38653  1.0000
  H   H5619     1.0  0.72378  0.94366  0.44777  1.0000
  C   C3158     1.0  0.64117  0.97962  0.35978  1.0000
  C   C3159     1.0  0.64785  0.67307  0.35516  1.0000
  C   C3160     1.0  0.76687  0.70032  0.32954  1.0000
  H   H5620     1.0  0.78869  0.97056  0.41243  1.0000
  H   H5621     1.0  0.58804  0.92962  0.38559  1.0000
  H   H5622     1.0  0.79533  0.94595  0.40632  1.0000
  H   H5623     1.0  0.61606  0.69906  0.48013  1.0000
  C   C3161     1.0  0.50076  0.87691  0.25599  1.0000
  H   H5624     1.0  0.84926  0.86270  0.23933  1.0000
  H   H5625     1.0  0.57008  0.67978  0.39353  1.0000
  C   C3162     1.0  0.80103  0.89020  0.46670  1.0000
  H   H5626     1.0  0.79824  0.68289  0.32846  1.0000
  H   H5627     1.0  0.86232  0.92780  0.24161  1.0000
  C   C3163     1.0  0.85861  0.89052  0.23856  1.0000
  H   H5628     1.0  0.82745  0.74210  0.47420  1.0000
  C   C3164     1.0  0.78805  0.69164  0.31860  1.0000
  H   H5629     1.0  0.62440  0.98230  0.36128  1.0000
  H   H5630     1.0  0.51570  0.87159  0.24676  1.0000
  H   H5631     1.0  0.70976  0.76697  0.48633  1.0000
  H   H5632     1.0  0.76603  0.73510  0.48608  1.0000
  H   H5633     1.0  0.51497  0.88402  0.29596  1.0000
  C   C3165     1.0  0.61466  0.67097  0.40900  1.0000
  C   C3166     1.0  0.52146  0.87230  0.30732  1.0000
  C   C3167     1.0  0.98650  0.96652  0.26447  1.0000
  S   S707      1.0  0.49632  0.92687  0.27685  1.0000
  H   H5634     1.0  0.51563  0.95416  0.32345  1.0000
  C   C3168     1.0  0.58341  0.67016  0.39944  1.0000
  H   H5635     1.0  0.58407  0.95637  0.37373  1.0000
  H   H5636     1.0  0.95544  0.98907  0.33562  1.0000
  H   H5637     1.0  0.95577  0.91607  0.24173  1.0000
  C   C3169     1.0  0.68322  0.71148  0.48375  1.0000
  H   H5638     1.0  0.52242  0.86805  0.33621  1.0000
  H   H5639     1.0  0.99079  0.96668  0.29196  1.0000
  C   C3170     1.0  0.50025  0.91900  0.34258  1.0000
  H   H5640     1.0  0.78690  0.68147  0.31004  1.0000
  H   H5641     1.0  0.50392  0.94113  0.35709  1.0000
  H   H5642     1.0  0.99069  0.91027  0.24571  1.0000
  H   H5643     1.0  0.80952  0.72537  0.48107  1.0000
  H   H5644     1.0  0.64125  0.69990  0.48134  1.0000
  H   H5645     1.0  0.49549  0.92924  0.32958  1.0000
  H   H5646     1.0  0.57669  0.66024  0.41280  1.0000
  H   H5647     1.0  0.67078  0.68947  0.52963  1.0000
  H   H5648     1.0  0.63373  0.72698  0.55968  1.0000
  S   S708      1.0  0.63466  0.96277  0.62027  1.0000
  C   C3171     1.0  0.63355  0.75247  0.63258  1.0000
  S   S709      1.0  0.94591  0.92981  0.62738  1.0000
  H   H5649     1.0  0.63631  0.68003  0.70066  1.0000
  Fe  Fe356     1.0  0.63421  0.94564  0.52451  1.0000
  H   H5650     1.0  0.89893  0.97175  0.70133  1.0000
  S   S710      1.0  0.61787  0.97108  0.53980  1.0000
  Fe  Fe357     1.0  0.63314  0.90227  0.52580  1.0000
  N   N178      1.0  0.61989  0.70140  0.66614  1.0000
  S   S711      1.0  0.61683  0.87620  0.53954  1.0000
  Fe  Fe358     1.0  0.67351  0.91672  0.51185  1.0000
  H   H5651     1.0  0.97487  0.91222  0.71880  1.0000
  C   C3172     1.0  0.97951  0.93476  0.63686  1.0000
  H   H5652     1.0  0.70620  0.69525  0.49981  1.0000
  S   S712      1.0  0.65010  0.91538  0.53927  1.0000
  S   S713      1.0  0.61556  0.93245  0.51268  1.0000
  S   S714      1.0  0.65726  0.79907  0.59432  1.0000
  Fe  Fe359     1.0  0.77972  0.86824  0.56923  1.0000
  S   S715      1.0  0.79014  0.84969  0.59559  1.0000
  S   S716      1.0  0.75319  0.89511  0.57127  1.0000
  Fe  Fe360     1.0  0.81043  0.84133  0.54431  1.0000
  S   S717      1.0  0.82339  0.82031  0.56874  1.0000
  H   H5653     1.0  0.64477  0.67186  0.55327  1.0000
  Fe  Fe361     1.0  0.79061  0.82269  0.58445  1.0000
  S   S718      1.0  0.77458  0.79789  0.60379  1.0000
  Fe  Fe362     1.0  0.82188  0.84915  0.57775  1.0000
  S   S719      1.0  0.84888  0.85255  0.58740  1.0000
  S   S720      1.0  0.77782  0.84137  0.55941  1.0000
  S   S721      1.0  0.81137  0.87004  0.55200  1.0000
  Fe  Fe363     1.0  0.86995  0.92681  0.64117  1.0000
  S   S722      1.0  0.89651  0.90356  0.65109  1.0000
  S   S723      1.0  0.84513  0.92137  0.62975  1.0000
  Fe  Fe364     1.0  0.87629  0.95948  0.65825  1.0000
  S   S724      1.0  0.90250  0.93857  0.66997  1.0000
  C   C3173     1.0  0.60547  0.67122  0.55331  1.0000
  Fe  Fe365     1.0  0.91278  0.92990  0.64188  1.0000
  Fe  Fe366     1.0  0.88406  0.91447  0.67823  1.0000
  S   S725      1.0  0.87907  0.89399  0.70724  1.0000
  S   S726      1.0  0.88735  0.95239  0.62939  1.0000
  S   S727      1.0  0.85671  0.93622  0.66907  1.0000
  H   H5654     1.0  0.60333  0.68610  0.72571  1.0000
  C   C3174     1.0  0.80594  0.83870  0.50051  1.0000
  H   H5655     1.0  0.61232  0.92333  0.62012  1.0000
  S   S728      1.0  0.74677  0.74846  0.55926  1.0000
  H   H5656     1.0  0.56816  0.69417  0.65219  1.0000
  C   C3175     1.0  0.67879  0.83259  0.52057  1.0000
  H   H5657     1.0  0.69374  0.68564  0.55030  1.0000
  C   C3176     1.0  0.63983  0.68646  0.66169  1.0000
  H   H5658     1.0  0.94855  0.97328  0.64722  1.0000
  H   H5659     1.0  0.59967  0.71060  0.59765  1.0000
  H   H5660     1.0  0.94190  0.91161  0.66708  1.0000
  C   C3177     1.0  0.98724  0.92083  0.66798  1.0000
  C   C3178     1.0  0.87405  0.95316  0.73010  1.0000
  C   C3179     1.0  0.62000  0.73166  0.55352  1.0000
  H   H5661     1.0  0.74521  0.82020  0.50769  1.0000
  H   H5662     1.0  0.96465  0.90593  0.68883  1.0000
  C   C3180     1.0  0.96872  0.91421  0.67439  1.0000
  H   H5663     1.0  0.67796  0.82600  0.49383  1.0000
  C   C3181     1.0  0.64390  0.67042  0.61685  1.0000
  C   C3182     1.0  0.96453  0.86471  0.66845  1.0000
  H   H5664     1.0  0.60418  0.69496  0.51456  1.0000
  C   C3183     1.0  0.80296  0.77043  0.49375  1.0000
  H   H5665     1.0  0.77934  0.85116  0.51978  1.0000
  C   C3184     1.0  0.84767  0.87114  0.59984  1.0000
  C   C3185     1.0  0.86590  0.87537  0.60097  1.0000
  C   C3186     1.0  0.86544  0.89053  0.61031  1.0000
  C   C3187     1.0  0.84670  0.90153  0.61862  1.0000
  C   C3188     1.0  0.82847  0.89705  0.61778  1.0000
  C   C3189     1.0  0.82895  0.88178  0.60859  1.0000
  H   H5666     1.0  0.88046  0.86712  0.59431  1.0000
  H   H5667     1.0  0.87954  0.89403  0.61067  1.0000
  H   H5668     1.0  0.81392  0.90541  0.62430  1.0000
  H   H5669     1.0  0.81488  0.87821  0.60822  1.0000
  C   C3190     1.0  0.74778  0.77851  0.59824  1.0000
  C   C3191     1.0  0.76688  0.78412  0.59145  1.0000
  C   C3192     1.0  0.77970  0.77857  0.57496  1.0000
  C   C3193     1.0  0.77366  0.76700  0.56563  1.0000
  H   H5670     1.0  0.79452  0.78268  0.56971  1.0000
  H   H5671     1.0  0.78399  0.76207  0.55336  1.0000
  C   C3194     1.0  0.62871  0.85490  0.55439  1.0000
  C   C3195     1.0  0.63975  0.85720  0.56632  1.0000
  C   C3196     1.0  0.64776  0.84007  0.57917  1.0000
  C   C3197     1.0  0.64600  0.82048  0.57913  1.0000
  C   C3198     1.0  0.63532  0.81815  0.56693  1.0000
  C   C3199     1.0  0.62621  0.83541  0.55496  1.0000
  H   H5672     1.0  0.64186  0.87219  0.56575  1.0000
  H   H5673     1.0  0.65616  0.84183  0.58853  1.0000
  H   H5674     1.0  0.63374  0.80307  0.56699  1.0000
  H   H5675     1.0  0.61745  0.83362  0.54591  1.0000
  C   C3200     1.0  0.72032  0.90463  0.52397  1.0000
  C   C3201     1.0  0.74061  0.89382  0.52255  1.0000
  C   C3202     1.0  0.75078  0.89122  0.53694  1.0000
  C   C3203     1.0  0.74080  0.89964  0.55272  1.0000
  C   C3204     1.0  0.72074  0.91122  0.55383  1.0000
  C   C3205     1.0  0.71042  0.91360  0.53949  1.0000
  C   C3206     1.0  0.60901  0.67966  0.61252  1.0000
  H   H5676     1.0  0.76638  0.88265  0.53578  1.0000
  H   H5677     1.0  0.71305  0.91804  0.56587  1.0000
  H   H5678     1.0  0.69479  0.92213  0.54055  1.0000
  H   H5679     1.0  0.73662  0.83481  0.52570  1.0000
  H   H5680     1.0  0.61120  0.73029  0.52880  1.0000
  C   C3207     1.0  0.77170  0.84957  0.49452  1.0000
  H   H5681     1.0  0.74848  0.95930  0.55266  1.0000
  H   H5682     1.0  0.66321  0.71029  0.54174  1.0000
  H   H5683     1.0  0.60539  0.71249  0.72062  1.0000
  C   C3208     1.0  0.62497  0.66521  0.61952  1.0000
  C   C3209     1.0  0.63036  0.96571  0.59763  1.0000
  C   C3210     1.0  0.64420  0.95408  0.58515  1.0000
  C   C3211     1.0  0.64053  0.95553  0.56736  1.0000
  C   C3212     1.0  0.62306  0.96878  0.56192  1.0000
  C   C3213     1.0  0.54997  0.96917  0.72817  1.0000
  H   H5684     1.0  0.68722  0.80373  0.51056  1.0000
  H   H5685     1.0  0.65780  0.94394  0.58926  1.0000
  H   H5686     1.0  0.65141  0.94673  0.55773  1.0000
  C   C3214     1.0  0.61414  0.69665  0.72018  1.0000
  C   C3215     1.0  0.61840  0.70084  0.50776  1.0000
  H   H5687     1.0  0.60229  0.69713  0.56468  1.0000
  H   H5688     1.0  0.63048  0.65959  0.65939  1.0000
  H   H5689     1.0  0.92526  0.97738  0.73033  1.0000
  H   H5690     1.0  0.63167  0.67665  0.49190  1.0000
  H   H5691     1.0  0.71042  0.83024  0.48863  1.0000
  H   H5692     1.0  0.63293  0.71994  0.59350  1.0000
  H   H5693     1.0  0.57273  0.67699  0.55452  1.0000
  N   N179      1.0  0.85026  0.85546  0.67559  1.0000
  C   C3216     1.0  0.84401  0.83923  0.66990  1.0000
  C   C3217     1.0  0.85428  0.84737  0.69527  1.0000
  C   C3218     1.0  0.83220  0.87338  0.67640  1.0000
  C   C3219     1.0  0.86867  0.86276  0.66185  1.0000
  C   C3220     1.0  0.88464  0.84701  0.65112  1.0000
  C   C3221     1.0  0.83566  0.84656  0.65153  1.0000
  C   C3222     1.0  0.83392  0.89062  0.68487  1.0000
  C   C3223     1.0  0.87176  0.82837  0.69805  1.0000
  H   H5694     1.0  0.57037  0.97125  0.70061  1.0000
  C   C3224     1.0  0.90441  0.85461  0.64117  1.0000
  C   C3225     1.0  0.83584  0.82867  0.64339  1.0000
  C   C3226     1.0  0.81624  0.90906  0.68234  1.0000
  H   H5695     1.0  0.83182  0.83291  0.68137  1.0000
  H   H5696     1.0  0.85677  0.82586  0.66824  1.0000
  H   H5697     1.0  0.85867  0.85918  0.69988  1.0000
  H   H5698     1.0  0.84002  0.84386  0.70555  1.0000
  H   H5699     1.0  0.81792  0.86802  0.68474  1.0000
  H   H5700     1.0  0.82953  0.88086  0.66192  1.0000
  H   H5701     1.0  0.86388  0.87613  0.65070  1.0000
  H   H5702     1.0  0.87682  0.86874  0.66929  1.0000
  H   H5703     1.0  0.87848  0.84439  0.64009  1.0000
  H   H5704     1.0  0.88875  0.83201  0.66058  1.0000
  H   H5705     1.0  0.81960  0.85523  0.65451  1.0000
  H   H5706     1.0  0.84481  0.85682  0.64057  1.0000
  H   H5707     1.0  0.84858  0.89564  0.67798  1.0000
  H   H5708     1.0  0.83308  0.88533  0.70031  1.0000
  H   H5709     1.0  0.86954  0.81541  0.69351  1.0000
  H   H5710     1.0  0.88668  0.83234  0.69008  1.0000
  C   C3227     1.0  0.65461  0.81386  0.51575  1.0000
  C   C3228     1.0  0.99241  0.93167  0.64932  1.0000
  H   H5711     1.0  0.71564  0.80557  0.51706  1.0000
  H   H5712     1.0  0.91522  0.84326  0.63329  1.0000
  H   H5713     1.0  0.90127  0.86935  0.63091  1.0000
  H   H5714     1.0  0.91181  0.85665  0.65164  1.0000
  H   H5715     1.0  0.82902  0.83454  0.63073  1.0000
  H   H5716     1.0  0.85179  0.82033  0.63892  1.0000
  H   H5717     1.0  0.82678  0.81796  0.65396  1.0000
  H   H5718     1.0  0.81681  0.91596  0.66711  1.0000
  H   H5719     1.0  0.80130  0.90450  0.68903  1.0000
  H   H5720     1.0  0.81740  0.92084  0.68916  1.0000
  C   C3229     1.0  0.62577  0.69524  0.70000  1.0000
  N   N180      1.0  0.80507  0.93506  0.56461  1.0000
  C   C3230     1.0  0.79024  0.95138  0.55436  1.0000
  C   C3231     1.0  0.81622  0.94500  0.57305  1.0000
  C   C3232     1.0  0.82094  0.92462  0.55001  1.0000
  C   C3233     1.0  0.79474  0.91930  0.57955  1.0000
  C   C3234     1.0  0.77260  0.92688  0.59040  1.0000
  C   C3235     1.0  0.77978  0.94371  0.54263  1.0000
  C   C3236     1.0  0.83806  0.90722  0.55743  1.0000
  C   C3237     1.0  0.80324  0.95693  0.58840  1.0000
  H   H5721     1.0  0.99225  0.92478  0.72299  1.0000
  C   C3238     1.0  0.76632  0.91094  0.60819  1.0000
  C   C3239     1.0  0.75979  0.95835  0.53908  1.0000
  C   C3240     1.0  0.85296  0.89788  0.54137  1.0000
  H   H5722     1.0  0.79817  0.96347  0.54445  1.0000
  H   H5723     1.0  0.77806  0.95957  0.56430  1.0000
  H   H5724     1.0  0.82768  0.93333  0.58020  1.0000
  H   H5725     1.0  0.82495  0.95547  0.56160  1.0000
  H   H5726     1.0  0.82843  0.93610  0.53861  1.0000
  H   H5727     1.0  0.81359  0.91735  0.54296  1.0000
  H   H5728     1.0  0.79383  0.90682  0.57338  1.0000
  H   H5729     1.0  0.80427  0.91166  0.59010  1.0000
  H   H5730     1.0  0.76158  0.92971  0.58132  1.0000
  H   H5731     1.0  0.77063  0.94131  0.59476  1.0000
  H   H5732     1.0  0.79016  0.94243  0.52865  1.0000
  H   H5733     1.0  0.77634  0.92840  0.54974  1.0000
  H   H5734     1.0  0.83125  0.89489  0.56798  1.0000
  H   H5735     1.0  0.84744  0.91267  0.56397  1.0000
  S   S729      1.0  0.58505  0.67374  0.61576  1.0000
  H   H5736     1.0  0.79745  0.94609  0.60145  1.0000
  H   H5737     1.0  0.63814  0.75754  0.61697  1.0000
  H   H5738     1.0  0.61190  0.69890  0.64123  1.0000
  C   C3241     1.0  0.78509  0.84667  0.50637  1.0000
  H   H5739     1.0  0.77631  0.90833  0.61821  1.0000
  H   H5740     1.0  0.75025  0.91640  0.61530  1.0000
  H   H5741     1.0  0.76745  0.89628  0.60443  1.0000
  H   H5742     1.0  0.75317  0.95256  0.53025  1.0000
  S   S730      1.0  0.60545  0.98023  0.66740  1.0000
  C   C3242     1.0  0.66412  0.74407  0.49137  1.0000
  H   H5743     1.0  0.86136  0.90935  0.53115  1.0000
  H   H5744     1.0  0.86426  0.88474  0.54732  1.0000
  H   H5745     1.0  0.84482  0.89217  0.53379  1.0000
  H   H5746     1.0  0.50157  0.68172  0.66433  1.0000
  C   C3243     1.0  0.62744  0.69361  0.48920  1.0000
  C   C3244     1.0  0.63092  0.70461  0.60043  1.0000
  S   S731      1.0  0.65796  0.90064  0.49983  1.0000
  C   C3245     1.0  0.95572  0.91759  0.66211  1.0000
  H   H5747     1.0  0.55585  0.98705  0.59509  1.0000
  H   H5748     1.0  0.57746  0.71293  0.63186  1.0000
  H   H5749     1.0  0.73834  0.80263  0.55068  1.0000
  H   H5750     1.0  0.68571  0.86745  0.52141  1.0000
  H   H5751     1.0  0.82458  0.79141  0.50534  1.0000
  H   H5752     1.0  0.80679  0.97592  0.60533  1.0000
  S   S732      1.0  0.67046  0.69644  0.60529  1.0000
  H   H5753     1.0  0.67934  0.87991  0.55005  1.0000
  H   H5754     1.0  0.57571  0.71247  0.67313  1.0000
  C   C3246     1.0  0.58212  0.93942  0.62998  1.0000
  H   H5755     1.0  0.74318  0.71682  0.51252  1.0000
  H   H5756     1.0  0.61722  0.94681  0.73349  1.0000
  H   H5757     1.0  0.98565  0.85770  0.64337  1.0000
  H   H5758     1.0  0.56693  0.94463  0.62620  1.0000
  H   H5759     1.0  0.60033  0.76052  0.54309  1.0000
  C   C3247     1.0  0.63871  0.66352  0.66816  1.0000
  H   H5760     1.0  0.65167  0.68904  0.66763  1.0000
  C   C3248     1.0  0.67840  0.68184  0.55651  1.0000
  H   H5761     1.0  0.95091  0.87004  0.66204  1.0000
  H   H5762     1.0  0.73782  0.78268  0.61102  1.0000
  N   N181      1.0  0.92938  0.96311  0.70704  1.0000
  C   C3249     1.0  0.93958  0.96576  0.68630  1.0000
  C   C3250     1.0  0.94165  0.94447  0.71792  1.0000
  C   C3251     1.0  0.90859  0.95867  0.70938  1.0000
  C   C3252     1.0  0.96402  0.94509  0.71695  1.0000
  H   H5763     1.0  0.74832  0.78818  0.53236  1.0000
  H   H5764     1.0  0.66692  0.84695  0.51863  1.0000
  S   S733      1.0  0.86634  0.99031  0.66583  1.0000
  H   H5765     1.0  0.78463  0.77564  0.52165  1.0000
  H   H5766     1.0  0.60699  0.72666  0.56451  1.0000
  C   C3253     1.0  0.61300  0.97901  0.59210  1.0000
  H   H5767     1.0  0.74689  0.75234  0.49945  1.0000
  H   H5768     1.0  0.94277  0.95102  0.68183  1.0000
  H   H5769     1.0  0.95474  0.96956  0.68350  1.0000
  H   H5770     1.0  0.57924  0.67200  0.57725  1.0000
  H   H5771     1.0  0.94191  0.93059  0.71309  1.0000
  H   H5772     1.0  0.91021  0.94520  0.70339  1.0000
  C   C3254     1.0  0.61336  0.97941  0.73182  1.0000
  H   H5773     1.0  0.87450  0.94139  0.72249  1.0000
  C   C3255     1.0  0.64690  0.69015  0.60740  1.0000
  H   H5774     1.0  0.64492  0.72098  0.63170  1.0000
  H   H5775     1.0  0.61242  0.76116  0.56112  1.0000
  C   C3256     1.0  0.67604  0.81852  0.50906  1.0000
  H   H5776     1.0  0.75569  0.85628  0.49889  1.0000
  H   H5777     1.0  0.59795  0.71083  0.69038  1.0000
  H   H5778     1.0  0.99145  0.96159  0.73344  1.0000
  H   H5779     1.0  0.97269  0.94956  0.70230  1.0000
  C   C3257     1.0  0.60939  0.98059  0.57430  1.0000
  C   C3258     1.0  0.93207  0.88888  0.72232  1.0000
  C   C3259     1.0  0.63393  0.69333  0.52082  1.0000
  H   H5780     1.0  0.96231  0.87358  0.67931  1.0000
  S   S734      1.0  0.70771  0.90573  0.50645  1.0000
  C   C3260     1.0  0.67511  0.74132  0.50523  1.0000
  H   H5781     1.0  0.62511  0.69235  0.72959  1.0000
  C   C3261     1.0  0.96122  0.92753  0.64323  1.0000
  S   S735      1.0  0.66914  0.76016  0.51857  1.0000
  H   H5782     1.0  0.61431  0.71779  0.50408  1.0000
  N   N182      1.0  0.71791  0.85795  0.62322  1.0000
  C   C3262     1.0  0.71038  0.84046  0.63819  1.0000
  C   C3263     1.0  0.73938  0.85758  0.62423  1.0000
  C   C3264     1.0  0.70357  0.87769  0.62688  1.0000
  C   C3265     1.0  0.71835  0.85595  0.60371  1.0000
  C   C3266     1.0  0.73190  0.83598  0.59810  1.0000
  C   C3267     1.0  0.69088  0.83500  0.63630  1.0000
  C   C3268     1.0  0.70916  0.89755  0.61311  1.0000
  C   C3269     1.0  0.74145  0.86311  0.64210  1.0000
  C   C3270     1.0  0.76385  0.85866  0.64339  1.0000
  C   C3271     1.0  0.72807  0.83323  0.58013  1.0000
  C   C3272     1.0  0.69520  0.91661  0.61956  1.0000
  H   H5783     1.0  0.70695  0.84379  0.65248  1.0000
  H   H5784     1.0  0.72257  0.82625  0.63872  1.0000
  H   H5785     1.0  0.74917  0.84208  0.62359  1.0000
  H   H5786     1.0  0.74671  0.86798  0.61160  1.0000
  H   H5787     1.0  0.70197  0.87905  0.64160  1.0000
  H   H5788     1.0  0.68791  0.87770  0.62604  1.0000
  H   H5789     1.0  0.70259  0.85779  0.60184  1.0000
  H   H5790     1.0  0.72453  0.86850  0.59275  1.0000
  H   H5791     1.0  0.74820  0.83672  0.59540  1.0000
  H   H5792     1.0  0.67791  0.84839  0.63621  1.0000
  H   H5793     1.0  0.69368  0.82956  0.62310  1.0000
  H   H5794     1.0  0.70730  0.89837  0.59877  1.0000
  H   H5795     1.0  0.72514  0.89835  0.61202  1.0000
  H   H5796     1.0  0.73512  0.87963  0.64176  1.0000
  H   H5797     1.0  0.73322  0.85416  0.65518  1.0000
  H   H5798     1.0  0.76483  0.86284  0.65625  1.0000
  H   H5799     1.0  0.77078  0.84212  0.64429  1.0000
  H   H5800     1.0  0.77281  0.86768  0.63088  1.0000
  H   H5801     1.0  0.73022  0.84685  0.56851  1.0000
  H   H5802     1.0  0.67891  0.91693  0.62041  1.0000
  H   H5803     1.0  0.69700  0.91712  0.63360  1.0000
  H   H5804     1.0  0.69929  0.93053  0.60922  1.0000
  H   H5805     1.0  0.63780  0.72763  0.52583  1.0000
  C   C3273     1.0  0.70818  0.84319  0.49534  1.0000
  C   C3274     1.0  0.79538  0.78284  0.50952  1.0000
  C   C3275     1.0  0.76110  0.74031  0.49958  1.0000
  S   S736      1.0  0.65904  0.94816  0.49803  1.0000
  C   C3276     1.0  0.61467  0.75503  0.54839  1.0000
  C   C3277     1.0  0.62396  0.72281  0.65938  1.0000
  C   C3278     1.0  0.92743  0.98203  0.67246  1.0000
  C   C3279     1.0  0.62644  0.95776  0.73315  1.0000
  C   C3280     1.0  0.89572  0.95442  0.72993  1.0000
  N   N183      1.0  0.60303  0.89587  0.60166  1.0000
  C   C3281     1.0  0.60236  0.90868  0.58195  1.0000
  C   C3282     1.0  0.62487  0.88775  0.60414  1.0000
  C   C3283     1.0  0.59383  0.87768  0.60400  1.0000
  C   C3284     1.0  0.59062  0.90759  0.61664  1.0000
  C   C3285     1.0  0.58069  0.91907  0.57814  1.0000
  C   C3286     1.0  0.59507  0.86097  0.62248  1.0000
  C   C3287     1.0  0.64067  0.90120  0.59306  1.0000
  C   C3288     1.0  0.66056  0.89350  0.60002  1.0000
  H   H5806     1.0  0.59179  0.94088  0.55284  1.0000
  C   C3289     1.0  0.58834  0.84210  0.62162  1.0000
  H   H5807     1.0  0.61053  0.89918  0.57129  1.0000
  H   H5808     1.0  0.61062  0.92134  0.57829  1.0000
  H   H5809     1.0  0.62527  0.88417  0.61939  1.0000
  H   H5810     1.0  0.63141  0.87296  0.59959  1.0000
  H   H5811     1.0  0.60124  0.87010  0.59181  1.0000
  H   H5812     1.0  0.57731  0.88253  0.60379  1.0000
  H   H5813     1.0  0.57413  0.91152  0.61621  1.0000
  H   H5814     1.0  0.59127  0.89785  0.63098  1.0000
  H   H5815     1.0  0.59865  0.93761  0.60177  1.0000
  H   H5816     1.0  0.57069  0.90799  0.58155  1.0000
  H   H5817     1.0  0.57322  0.93097  0.58654  1.0000
  H   H5818     1.0  0.58484  0.86686  0.63486  1.0000
  H   H5819     1.0  0.61081  0.85572  0.62499  1.0000
  H   H5820     1.0  0.64438  0.90073  0.57794  1.0000
  H   H5821     1.0  0.66683  0.87716  0.59949  1.0000
  H   H5822     1.0  0.67200  0.90261  0.59086  1.0000
  C   C3290     1.0  0.91791  0.88995  0.71176  1.0000
  H   H5823     1.0  0.58889  0.83053  0.63508  1.0000
  H   H5824     1.0  0.67428  0.82516  0.53577  1.0000
  H   H5825     1.0  0.98379  0.94250  0.62224  1.0000
  H   H5826     1.0  0.59877  0.83510  0.60989  1.0000
  H   H5827     1.0  0.79027  0.96858  0.58361  1.0000
  H   H5828     1.0  0.72644  0.76397  0.59347  1.0000
  C   C3291     1.0  0.69048  0.72380  0.50807  1.0000
  C   C3292     1.0  0.74697  0.80304  0.53584  1.0000
  N   N184      1.0  0.69988  0.83717  0.51625  1.0000
  H   H5829     1.0  0.69661  0.80381  0.65302  1.0000
  H   H5830     1.0  0.96562  0.84828  0.67546  1.0000
  C   C3293     1.0  0.60492  0.69857  0.65643  1.0000
  H   H5831     1.0  0.78751  0.79869  0.50410  1.0000
  Fe  Fe367     1.0  0.67842  0.75319  0.54653  1.0000
  C   C3294     1.0  0.61209  0.69931  0.60284  1.0000
  C   C3295     1.0  0.71410  0.81813  0.52413  1.0000
  C   C3296     1.0  0.62414  0.72253  0.53592  1.0000
  H   H5832     1.0  0.65276  0.80427  0.50704  1.0000
  Fe  Fe368     1.0  0.67094  0.77193  0.58069  1.0000
  H   H5833     1.0  0.67265  0.68597  0.57049  1.0000
  H   H5834     1.0  0.68047  0.82255  0.66641  1.0000
  H   H5835     1.0  0.65772  0.89538  0.61473  1.0000
  H   H5836     1.0  0.71238  0.83055  0.58284  1.0000
  H   H5837     1.0  0.61849  0.73042  0.63039  1.0000
  H   H5838     1.0  0.72928  0.82215  0.60922  1.0000
  C   C3297     1.0  0.59736  0.92732  0.61600  1.0000
  H   H5839     1.0  0.68700  0.86324  0.57093  1.0000
  C   C3298     1.0  0.75554  0.72213  0.51533  1.0000
  C   C3299     1.0  0.69156  0.86756  0.55530  1.0000
  H   H5840     1.0  0.68154  0.84182  0.55325  1.0000
  H   H5841     1.0  0.58777  0.95309  0.62955  1.0000
  S   S737      1.0  0.69261  0.77550  0.55243  1.0000
  H   H5842     1.0  0.73913  0.81973  0.57562  1.0000
  H   H5843     1.0  0.92322  0.88679  0.69774  1.0000
  H   H5844     1.0  0.70595  0.87318  0.55145  1.0000
  H   H5845     1.0  0.63484  0.91726  0.59426  1.0000
  C   C3300     1.0  0.61083  0.69788  0.68715  1.0000
  H   H5846     1.0  0.70746  0.81213  0.53925  1.0000
  C   C3301     1.0  0.75433  0.76190  0.57206  1.0000
  C   C3302     1.0  0.69492  0.84897  0.54701  1.0000
  H   H5847     1.0  0.63897  0.67641  0.52283  1.0000
  H   H5848     1.0  0.81381  0.75636  0.49899  1.0000
  H   H5849     1.0  0.63675  0.69150  0.56602  1.0000
  C   C3303     1.0  0.97590  0.92423  0.72541  1.0000
  N   N185      1.0  0.62674  0.69961  0.53961  1.0000
  C   C3304     1.0  0.58407  0.71401  0.65813  1.0000
  H   H5850     1.0  0.55528  0.72068  0.64942  1.0000
  H   H5851     1.0  0.70831  0.83791  0.55151  1.0000
  H   H5852     1.0  0.61041  0.73409  0.66485  1.0000
  Fe  Fe369     1.0  0.67768  0.72595  0.58555  1.0000
  H   H5853     1.0  0.57244  0.84623  0.61946  1.0000
  H   H5854     1.0  0.71232  0.86130  0.51940  1.0000
  H   H5855     1.0  0.58608  0.73001  0.65240  1.0000
  S   S738      1.0  0.70067  0.72568  0.55783  1.0000
  H   H5856     1.0  0.95872  0.98567  0.70602  1.0000
  S   S739      1.0  0.65449  0.75222  0.57374  1.0000
  H   H5857     1.0  0.56633  0.93765  0.55511  1.0000
  S   S740      1.0  0.69226  0.74562  0.59484  1.0000
  C   C3305     1.0  0.68426  0.81782  0.65271  1.0000
  C   C3306     1.0  0.58185  0.92953  0.55736  1.0000
  C   C3307     1.0  0.73620  0.82044  0.52234  1.0000
  H   H5858     1.0  0.67046  0.81406  0.65090  1.0000
  Fe  Fe370     1.0  0.71307  0.74796  0.56606  1.0000
  C   C3308     1.0  0.74133  0.76786  0.58833  1.0000
  H   H5859     1.0  0.62719  0.76114  0.53740  1.0000
  H   H5860     1.0  0.82068  0.76891  0.52386  1.0000
  H   H5861     1.0  0.75922  0.78624  0.49763  1.0000
  H   H5862     1.0  0.64595  0.75338  0.63877  1.0000
  H   H5863     1.0  0.98099  0.88385  0.64498  1.0000
  H   H5864     1.0  0.74836  0.88704  0.51050  1.0000
  H   H5865     1.0  0.91503  0.97600  0.67062  1.0000
  C   C3309     1.0  0.57047  0.71015  0.64723  1.0000
  C   C3310     1.0  0.81623  0.96804  0.59386  1.0000
  C   C3311     1.0  0.98379  0.86779  0.65306  1.0000
  H   H5866     1.0  0.76255  0.97385  0.53157  1.0000
  H   H5867     1.0  0.63513  0.70711  0.69474  1.0000
  H   H5868     1.0  0.80725  0.79395  0.52766  1.0000
  H   H5869     1.0  0.76901  0.70924  0.51604  1.0000
  H   H5870     1.0  0.87581  0.83336  0.72401  1.0000
  H   H5871     1.0  0.76246  0.80538  0.53479  1.0000
  H   H5872     1.0  0.69921  0.72165  0.51856  1.0000
  S   S741      1.0  0.82330  0.83587  0.51467  1.0000
  C   C3312     1.0  0.69843  0.85457  0.52519  1.0000
  H   H5873     1.0  0.79031  0.73542  0.50712  1.0000
  H   H5874     1.0  0.74989  0.72661  0.52921  1.0000
  C   C3313     1.0  0.66389  0.69380  0.54345  1.0000
  H   H5875     1.0  0.59393  0.70374  0.54328  1.0000
  H   H5876     1.0  0.94829  0.88479  0.71646  1.0000
  H   H5877     1.0  0.68003  0.66511  0.55841  1.0000
  H   H5878     1.0  0.56112  0.98430  0.61788  1.0000
  H   H5879     1.0  0.82213  0.97964  0.58155  1.0000
  H   H5880     1.0  0.77079  0.75432  0.51642  1.0000
  C   C3314     1.0  0.87299  0.82106  0.71886  1.0000
  H   H5881     1.0  0.58052  0.92998  0.64462  1.0000
  C   C3315     1.0  0.63031  0.73055  0.63763  1.0000
  H   H5882     1.0  0.61924  0.76306  0.63772  1.0000
  H   H5883     1.0  0.63646  0.72403  0.66529  1.0000
  H   H5884     1.0  0.64617  0.68906  0.64621  1.0000
  C   C3316     1.0  0.69448  0.70891  0.49738  1.0000
  H   H5885     1.0  0.64779  0.69937  0.51244  1.0000
  C   C3317     1.0  0.64237  0.68868  0.55145  1.0000
  C   C3318     1.0  0.81313  0.78430  0.51697  1.0000
  H   H5886     1.0  0.60124  0.68310  0.66230  1.0000
  H   H5887     1.0  0.51046  0.66157  0.72349  1.0000
  C   C3319     1.0  0.60648  0.69397  0.55026  1.0000
  H   H5888     1.0  0.60372  0.68421  0.69210  1.0000
  H   H5889     1.0  0.96395  0.95590  0.72535  1.0000
  H   H5890     1.0  0.58795  0.91796  0.54847  1.0000
  H   H5891     1.0  0.64277  0.82823  0.51442  1.0000
  C   C3320     1.0  0.55505  0.97616  0.70845  1.0000
  H   H5892     1.0  0.56142  0.95899  0.73552  1.0000
  H   H5893     1.0  0.85858  0.81647  0.72769  1.0000
  H   H5894     1.0  0.65225  0.80521  0.53068  1.0000
  C   C3321     1.0  0.77789  0.74857  0.50322  1.0000
  H   H5895     1.0  0.86575  0.96817  0.72322  1.0000
  H   H5896     1.0  0.88583  0.80763  0.72050  1.0000
  H   H5897     1.0  0.63932  0.95751  0.72054  1.0000
  C   C3322     1.0  0.89693  0.89434  0.71964  1.0000
  H   H5898     1.0  0.82935  0.95699  0.59913  1.0000
  H   H5899     1.0  0.93437  0.94162  0.73325  1.0000
  N   N186      1.0  0.78657  0.76493  0.48756  1.0000
  H   H5900     1.0  0.63068  0.65967  0.68310  1.0000
  H   H5901     1.0  0.60808  0.98351  0.71840  1.0000
  C   C3323     1.0  0.92656  0.98185  0.71473  1.0000
  C   C3324     1.0  0.94132  0.98728  0.65293  1.0000
  H   H5902     1.0  0.65224  0.75762  0.48906  1.0000
  H   H5903     1.0  0.72364  0.84662  0.49246  1.0000
  Fe  Fe371     1.0  0.61687  0.98789  0.63589  1.0000
  C   C3325     1.0  0.58392  0.66777  0.56326  1.0000
  H   H5904     1.0  0.59594  0.99096  0.57011  1.0000
  H   H5905     1.0  0.69690  0.87613  0.48805  1.0000
  C   C3326     1.0  0.54012  0.98912  0.69894  1.0000
  H   H5906     1.0  0.60226  0.98797  0.60155  1.0000
  C   C3327     1.0  0.51540  0.98880  0.72878  1.0000
  H   H5907     1.0  0.61596  0.66112  0.56241  1.0000
  H   H5908     1.0  0.62337  0.98967  0.73116  1.0000
  H   H5909     1.0  0.67882  0.86152  0.48834  1.0000
  H   H5910     1.0  0.98133  0.99052  0.67166  1.0000
  H   H5911     1.0  0.60959  0.66625  0.53975  1.0000
  H   H5912     1.0  0.71672  0.96646  0.48873  1.0000
  Fe  Fe372     1.0  0.64195  0.93186  0.48769  1.0000
  H   H5913     1.0  0.91179  0.99254  0.71276  1.0000
  H   H5914     1.0  0.89448  0.96660  0.73732  1.0000
  H   H5915     1.0  0.73991  0.74931  0.81634  1.0000
  H   H5916     1.0  0.80683  0.66754  0.85776  1.0000
  H   H5917     1.0  0.85069  0.76988  0.96742  1.0000
  H   H5918     1.0  0.89288  0.87672  0.79006  1.0000
  H   H5919     1.0  0.58313  0.70808  0.85310  1.0000
  H   H5920     1.0  0.82426  0.88913  0.97048  1.0000
  H   H5921     1.0  0.80570  0.76151  0.86950  1.0000
  C   C3328     1.0  0.89004  0.81904  0.92152  1.0000
  C   C3329     1.0  0.80148  0.67386  0.97903  1.0000
  H   H5922     1.0  0.86154  0.83508  0.81620  1.0000
  H   H5923     1.0  0.57041  0.72744  0.82312  1.0000
  H   H5924     1.0  0.78054  0.70983  0.91676  1.0000
  Fe  Fe373     1.0  0.70853  0.70722  0.87885  1.0000
  S   S742      1.0  0.69274  0.73374  0.85998  1.0000
  H   H5925     1.0  0.77688  0.75246  0.93586  1.0000
  Fe  Fe374     1.0  0.67930  0.71756  0.91445  1.0000
  S   S743      1.0  0.66096  0.74506  0.89800  1.0000
  S   S744      1.0  0.66950  0.70961  0.94643  1.0000
  Fe  Fe375     1.0  0.66383  0.72459  0.87837  1.0000
  S   S745      1.0  0.63925  0.72461  0.86362  1.0000
  Fe  Fe376     1.0  0.69180  0.75126  0.88124  1.0000
  S   S746      1.0  0.69974  0.78256  0.87040  1.0000
  S   S747      1.0  0.67985  0.69661  0.89607  1.0000
  S   S748      1.0  0.70976  0.72521  0.89880  1.0000
  Fe  Fe377     1.0  0.82033  0.77508  0.91677  1.0000
  S   S749      1.0  0.82736  0.79002  0.88601  1.0000
  S   S750      1.0  0.82576  0.74193  0.93114  1.0000
  Fe  Fe378     1.0  0.80050  0.81499  0.92913  1.0000
  S   S751      1.0  0.80535  0.83387  0.89934  1.0000
  S   S752      1.0  0.78376  0.82436  0.95666  1.0000
  Fe  Fe379     1.0  0.79557  0.80897  0.89218  1.0000
  S   S753      1.0  0.77568  0.81671  0.87100  1.0000
  Fe  Fe380     1.0  0.83672  0.81350  0.89545  1.0000
  S   S754      1.0  0.86740  0.82208  0.88076  1.0000
  S   S755      1.0  0.78789  0.79221  0.92217  1.0000
  S   S756      1.0  0.83253  0.79660  0.92588  1.0000
  Fe  Fe381     1.0  0.92333  0.95189  0.78396  1.0000
  S   S757      1.0  0.92263  0.94006  0.81500  1.0000
  H   H5926     1.0  0.85373  0.84781  0.75872  1.0000
  Fe  Fe382     1.0  0.93429  0.90929  0.77615  1.0000
  S   S758      1.0  0.93452  0.89377  0.80641  1.0000
  H   H5927     1.0  0.55143  0.72038  0.81535  1.0000
  Fe  Fe383     1.0  0.90597  0.91723  0.81323  1.0000
  S   S759      1.0  0.87647  0.91147  0.83397  1.0000
  Fe  Fe384     1.0  0.95129  0.91764  0.80559  1.0000
  C   C3330     1.0  0.71050  0.76155  0.98176  1.0000
  S   S760      1.0  0.90442  0.93098  0.78278  1.0000
  S   S761      1.0  0.95330  0.93139  0.77477  1.0000
  N   N187      1.0  0.86425  0.86661  0.80350  1.0000
  H   H5928     1.0  0.78963  0.65994  0.96332  1.0000
  H   H5929     1.0  0.59795  0.70858  0.80069  1.0000
  H   H5930     1.0  0.87394  0.90211  0.74376  1.0000
  H   H5931     1.0  0.86088  0.81676  0.95477  1.0000
  H   H5932     1.0  0.87006  0.69479  0.84132  1.0000
  C   C3331     1.0  0.92538  0.96464  0.88185  1.0000
  H   H5933     1.0  0.88026  0.66940  0.94642  1.0000
  H   H5934     1.0  0.97048  0.99221  0.79477  1.0000
  H   H5935     1.0  0.57824  0.70264  0.79283  1.0000
  H   H5936     1.0  0.92931  0.97544  0.90493  1.0000
  C   C3332     1.0  0.50346  0.93997  0.84355  1.0000
  H   H5937     1.0  0.75055  0.75874  0.98266  1.0000
  C   C3333     1.0  0.75695  0.87365  0.96732  1.0000
  H   H5938     1.0  0.93204  0.94851  0.88774  1.0000
  C   C3334     1.0  0.79897  0.83016  0.96877  1.0000
  C   C3335     1.0  0.81568  0.83919  0.95888  1.0000
  H   H5939     1.0  0.90616  0.99108  0.85236  1.0000
  H   H5940     1.0  0.79015  0.88033  0.97503  1.0000
  H   H5941     1.0  0.69219  0.70163  0.83499  1.0000
  H   H5942     1.0  0.73199  0.81760  0.96622  1.0000
  H   H5943     1.0  0.81988  0.84188  0.94360  1.0000
  H   H5944     1.0  0.83912  0.85289  0.96096  1.0000
  H   H5945     1.0  0.52280  0.71612  0.87807  1.0000
  C   C3336     1.0  0.86969  0.84732  0.86893  1.0000
  C   C3337     1.0  0.85255  0.86335  0.86816  1.0000
  C   C3338     1.0  0.85493  0.88311  0.85788  1.0000
  C   C3339     1.0  0.87439  0.88693  0.84821  1.0000
  C   C3340     1.0  0.89155  0.87098  0.84933  1.0000
  C   C3341     1.0  0.88918  0.85123  0.85959  1.0000
  H   H5946     1.0  0.83748  0.86048  0.87532  1.0000
  H   H5947     1.0  0.84159  0.89540  0.85713  1.0000
  H   H5948     1.0  0.90662  0.87379  0.84208  1.0000
  H   H5949     1.0  0.90250  0.83889  0.86019  1.0000
  C   C3342     1.0  0.72187  0.78997  0.87127  1.0000
  C   C3343     1.0  0.72748  0.80688  0.85759  1.0000
  C   C3344     1.0  0.74413  0.81443  0.85775  1.0000
  C   C3345     1.0  0.75536  0.80547  0.87180  1.0000
  C   C3346     1.0  0.75003  0.78833  0.88558  1.0000
  C   C3347     1.0  0.73327  0.78052  0.88529  1.0000
  H   H5950     1.0  0.71872  0.81437  0.84682  1.0000
  H   H5951     1.0  0.74807  0.82763  0.84708  1.0000
  H   H5952     1.0  0.75858  0.78137  0.89654  1.0000
  H   H5953     1.0  0.72880  0.76768  0.89614  1.0000
  C   C3348     1.0  0.68642  0.70880  0.96039  1.0000
  C   C3349     1.0  0.56711  0.71537  0.81806  1.0000
  C   C3350     1.0  0.72039  0.70768  0.96392  1.0000
  C   C3351     1.0  0.70692  0.70978  0.95235  1.0000
  H   H5954     1.0  0.86965  0.79316  0.94785  1.0000
  H   H5955     1.0  0.71254  0.71153  0.93729  1.0000
  C   C3352     1.0  0.63809  0.70193  0.85795  1.0000
  C   C3353     1.0  0.64574  0.68266  0.86825  1.0000
  H   H5956     1.0  0.55904  0.72513  0.85558  1.0000
  H   H5957     1.0  0.70851  0.67036  0.85665  1.0000
  C   C3354     1.0  0.62806  0.68534  0.83817  1.0000
  C   C3355     1.0  0.62900  0.70320  0.84304  1.0000
  C   C3356     1.0  0.50347  0.66731  0.75871  1.0000
  C   C3357     1.0  0.97056  0.97176  0.83895  1.0000
  H   H5958     1.0  0.62177  0.68645  0.82624  1.0000
  H   H5959     1.0  0.62312  0.71806  0.83497  1.0000
  H   H5960     1.0  0.67499  0.68890  0.83059  1.0000
  H   H5961     1.0  0.75143  0.79879  0.97716  1.0000
  C   C3358     1.0  0.74889  0.89264  0.97635  1.0000
  H   H5962     1.0  0.72751  0.87247  0.96306  1.0000
  H   H5963     1.0  0.82873  0.86418  0.75882  1.0000
  H   H5964     1.0  0.50213  0.89731  0.79259  1.0000
  H   H5965     1.0  0.54780  0.89175  0.79690  1.0000
  H   H5966     1.0  0.68815  0.66054  0.85556  1.0000
  S   S762      1.0  0.94347  0.89125  0.75339  1.0000
  H   H5967     1.0  0.88717  0.87181  0.81501  1.0000
  C   C3359     1.0  0.83609  0.69450  0.89625  1.0000
  C   C3360     1.0  0.83671  0.71485  0.88701  1.0000
  C   C3361     1.0  0.83330  0.72973  0.89755  1.0000
  C   C3362     1.0  0.82974  0.72409  0.91731  1.0000
  C   C3363     1.0  0.82958  0.70368  0.92641  1.0000
  C   C3364     1.0  0.83277  0.68894  0.91593  1.0000
  H   H5968     1.0  0.83989  0.71904  0.87176  1.0000
  H   H5969     1.0  0.83381  0.74541  0.89043  1.0000
  H   H5970     1.0  0.82708  0.69919  0.94159  1.0000
  H   H5971     1.0  0.58523  0.97035  0.74803  1.0000
  H   H5972     1.0  0.57909  0.98042  0.78904  1.0000
  H   H5973     1.0  0.86485  0.84825  0.83185  1.0000
  N   N188      1.0  0.87499  0.79269  0.97513  1.0000
  H   H5974     1.0  0.82996  0.86629  0.83756  1.0000
  H   H5975     1.0  0.86533  0.70653  0.95640  1.0000
  H   H5976     1.0  0.90395  0.82437  0.91230  1.0000
  C   C3365     1.0  0.73429  0.79721  0.93713  1.0000
  H   H5977     1.0  0.98177  0.96063  0.84678  1.0000
  H   H5978     1.0  0.57231  0.71666  0.90197  1.0000
  H   H5979     1.0  0.56688  0.96678  0.77987  1.0000
  H   H5980     1.0  0.92869  0.85781  0.79022  1.0000
  C   C3366     1.0  0.85188  0.88747  0.80619  1.0000
  C   C3367     1.0  0.76561  0.71981  0.91444  1.0000
  H   H5981     1.0  0.55300  0.67294  0.87933  1.0000
  H   H5982     1.0  0.69321  0.70021  0.81122  1.0000
  H   H5983     1.0  0.88728  0.80724  0.91567  1.0000
  H   H5984     1.0  0.80124  0.72329  0.83646  1.0000
  H   H5985     1.0  0.58026  0.72879  0.78907  1.0000
  H   H5986     1.0  0.85303  0.73274  0.95770  1.0000
  H   H5987     1.0  0.51145  0.91253  0.83324  1.0000
  C   C3368     1.0  0.63569  0.66608  0.84855  1.0000
  H   H5988     1.0  0.80551  0.68569  0.83552  1.0000
  C   C3369     1.0  0.85815  0.90597  0.79071  1.0000
  C   C3370     1.0  0.56051  0.67352  0.86423  1.0000
  H   H5989     1.0  0.91405  0.73403  0.98070  1.0000
  C   C3371     1.0  0.56546  0.70422  0.88152  1.0000
  C   C3372     1.0  0.56659  0.70881  0.85993  1.0000
  H   H5990     1.0  0.75665  0.77560  0.96078  1.0000
  H   H5991     1.0  0.86550  0.94894  0.74492  1.0000
  H   H5992     1.0  0.93335  0.83145  0.80268  1.0000
  H   H5993     1.0  0.88187  0.69147  0.81752  1.0000
  C   C3373     1.0  0.56544  0.98151  0.78372  1.0000
  H   H5994     1.0  0.89666  0.82229  0.94648  1.0000
  C   C3374     1.0  0.76421  0.72347  0.89394  1.0000
  C   C3375     1.0  0.84235  0.86478  0.78129  1.0000
  H   H5995     1.0  0.83774  0.83008  0.85519  1.0000
  H   H5996     1.0  0.73725  0.81824  0.90974  1.0000
  H   H5997     1.0  0.82068  0.77898  0.82712  1.0000
  H   H5998     1.0  0.81207  0.83792  0.85140  1.0000
  C   C3376     1.0  0.78675  0.67494  0.96698  1.0000
  C   C3377     1.0  0.90129  0.84505  0.80303  1.0000
  H   H5999     1.0  0.73631  0.70795  0.95766  1.0000
  H   H6000     1.0  0.55548  0.90752  0.77390  1.0000
  C   C3378     1.0  0.94726  0.98918  0.78255  1.0000
  C   C3379     1.0  0.69074  0.69181  0.82622  1.0000
  C   C3380     1.0  0.86369  0.86242  0.78508  1.0000
  H   H6001     1.0  0.77259  0.87358  0.95835  1.0000
  H   H6002     1.0  0.87853  0.74941  0.97555  1.0000
  H   H6003     1.0  0.71865  0.67138  0.90309  1.0000
  H   H6004     1.0  0.81396  0.77078  0.98078  1.0000
  H   H6005     1.0  0.87186  0.84652  0.78408  1.0000
  C   C3381     1.0  0.80855  0.68320  0.84977  1.0000
  H   H6006     1.0  0.90648  0.79716  0.94123  1.0000
  N   N189      1.0  0.72403  0.77691  0.97198  1.0000
  H   H6007     1.0  0.82789  0.92609  0.79410  1.0000
  H   H6008     1.0  0.73561  0.67441  0.93925  1.0000
  H   H6009     1.0  0.87233  0.87228  0.77294  1.0000
  C   C3382     1.0  0.80909  0.76030  0.85452  1.0000
  H   H6010     1.0  0.83241  0.87987  0.78287  1.0000
  H   H6011     1.0  0.56308  0.73578  0.88289  1.0000
  H   H6012     1.0  0.79408  0.75875  0.83374  1.0000
  H   H6013     1.0  0.83538  0.88872  0.80734  1.0000
  H   H6014     1.0  0.75307  0.71232  0.92378  1.0000
  H   H6015     1.0  0.89645  0.83341  0.81580  1.0000
  C   C3383     1.0  0.89311  0.81015  0.94173  1.0000
  H   H6016     1.0  0.54012  0.88930  0.77666  1.0000
  C   C3384     1.0  0.83391  0.85379  0.82980  1.0000
  H   H6017     1.0  0.85278  0.88986  0.81992  1.0000
  C   C3385     1.0  0.76155  0.74443  0.83390  1.0000
  C   C3386     1.0  0.53024  0.97590  0.73836  1.0000
  H   H6018     1.0  0.89911  0.90164  0.76187  1.0000
  C   C3387     1.0  0.75057  0.74729  0.95887  1.0000
  H   H6019     1.0  0.77793  0.69825  0.85995  1.0000
  C   C3388     1.0  0.88629  0.86615  0.80292  1.0000
  H   H6020     1.0  0.95511  0.97170  0.87349  1.0000
  H   H6021     1.0  0.70372  0.66218  0.81992  1.0000
  H   H6022     1.0  0.87683  0.83225  0.92110  1.0000
  H   H6023     1.0  0.90962  0.72813  0.96057  1.0000
  H   H6024     1.0  0.75551  0.72625  0.86217  1.0000
  H   H6025     1.0  0.77756  0.77092  0.85201  1.0000
  C   C3389     1.0  0.56926  0.69462  0.83266  1.0000
  C   C3390     1.0  0.76208  0.74004  0.85510  1.0000
  S   S763      1.0  0.83905  0.67608  0.88330  1.0000
  H   H6026     1.0  0.52739  0.92731  0.79389  1.0000
  H   H6027     1.0  0.82402  0.85809  0.81952  1.0000
  H   H6028     1.0  0.76548  0.75944  0.82627  1.0000
  C   C3391     1.0  0.91101  0.74067  0.96631  1.0000
  H   H6029     1.0  0.84894  0.93902  0.78338  1.0000
  H   H6030     1.0  0.82907  0.78189  0.84663  1.0000
  H   H6031     1.0  0.73592  0.73021  0.83788  1.0000
  H   H6032     1.0  0.81705  0.67220  0.96988  1.0000
  H   H6033     1.0  0.55270  0.66456  0.85931  1.0000
  S   S764      1.0  0.73690  0.68834  0.86450  1.0000
  H   H6034     1.0  0.90237  0.83943  0.79031  1.0000
  H   H6035     1.0  0.77643  0.75028  0.88424  1.0000
  C   C3392     1.0  0.79349  0.69878  0.86052  1.0000
  C   C3393     1.0  0.81589  0.77985  0.84225  1.0000
  H   H6036     1.0  0.83300  0.67320  0.92314  1.0000
  H   H6037     1.0  0.85775  0.90456  0.77655  1.0000
  H   H6038     1.0  0.79562  0.72759  0.88432  1.0000
  H   H6039     1.0  0.89524  0.81056  0.97709  1.0000
  N   N190      1.0  0.78267  0.73782  0.85937  1.0000
  C   C3394     1.0  0.88112  0.68420  0.83272  1.0000
  H   H6040     1.0  0.82228  0.74748  0.85228  1.0000
  H   H6041     1.0  0.83125  0.82181  0.83723  1.0000
  C   C3395     1.0  0.74019  0.74533  0.83159  1.0000
  H   H6042     1.0  0.85111  0.87524  0.75062  1.0000
  H   H6043     1.0  0.74156  0.75080  0.94788  1.0000
  H   H6044     1.0  0.58592  0.68880  0.83189  1.0000
  H   H6045     1.0  0.78921  0.68676  0.95370  1.0000
  H   H6046     1.0  0.87369  0.90723  0.79062  1.0000
  C   C3396     1.0  0.92283  0.84659  0.80293  1.0000
  C   C3397     1.0  0.93581  0.98130  0.83414  1.0000
  C   C3398     1.0  0.99234  0.94334  0.79922  1.0000
  C   C3399     1.0  0.73502  0.80642  0.97929  1.0000
  C   C3400     1.0  0.78065  0.73513  0.88037  1.0000
  C   C3401     1.0  0.79826  0.72037  0.85213  1.0000
  C   C3402     1.0  0.84417  0.86286  0.76113  1.0000
  C   C3403     1.0  0.98992  0.97278  0.74200  1.0000
  C   C3404     1.0  0.71754  0.78904  0.95379  1.0000
  C   C3405     1.0  0.77326  0.74167  0.94961  1.0000
  H   H6047     1.0  0.71137  0.75146  0.97226  1.0000
  C   C3406     1.0  0.67938  0.70642  0.98006  1.0000
  H   H6048     1.0  0.89638  0.68170  0.83593  1.0000
  H   H6049     1.0  0.77223  0.73227  0.82700  1.0000
  H   H6050     1.0  0.75089  0.75271  0.86108  1.0000
  C   C3407     1.0  0.85705  0.85021  0.82018  1.0000
  H   H6051     1.0  0.88920  0.76309  0.95226  1.0000
  H   H6052     1.0  0.80327  0.79339  0.84391  1.0000
  H   H6053     1.0  0.92280  0.85130  0.81586  1.0000
  H   H6054     1.0  0.83484  0.85244  0.79104  1.0000
  H   H6055     1.0  0.84395  0.92828  0.80842  1.0000
  H   H6056     1.0  0.76526  0.70854  0.89081  1.0000
  C   C3408     1.0  0.87366  0.80308  0.95493  1.0000
  H   H6057     1.0  0.79093  0.70640  0.97650  1.0000
  C   C3409     1.0  0.82850  0.83468  0.84425  1.0000
  C   C3410     1.0  0.82653  0.84544  0.96871  1.0000
  H   H6058     1.0  0.99492  0.96422  0.75529  1.0000
  H   H6059     1.0  0.97862  0.94784  0.79378  1.0000
  H   H6060     1.0  0.72871  0.75713  0.83851  1.0000
  H   H6061     1.0  0.81328  0.71920  0.85525  1.0000
  C   C3411     1.0  0.52361  0.91670  0.78739  1.0000
  C   C3412     1.0  0.84378  0.92602  0.79444  1.0000
  C   C3413     1.0  0.91685  0.97551  0.89833  1.0000
  S   S765      1.0  0.52432  0.96886  0.76309  1.0000
  H   H6062     1.0  0.96879  0.89878  0.87671  1.0000
  H   H6063     1.0  0.90549  0.96749  0.90923  1.0000
  H   H6064     1.0  0.73253  0.89277  0.98298  1.0000
  H   H6065     1.0  0.53043  0.69474  0.84520  1.0000
  H   H6066     1.0  0.78206  0.90701  0.96615  1.0000
  C   C3414     1.0  0.72488  0.81283  0.92150  1.0000
  H   H6067     1.0  0.83593  0.69127  0.97140  1.0000
  H   H6068     1.0  0.95567  0.90398  0.85786  1.0000
  C   C3415     1.0  0.58184  0.71365  0.79904  1.0000
  C   C3416     1.0  0.50543  0.90710  0.80039  1.0000
  H   H6069     1.0  0.70487  0.80230  0.95662  1.0000
  H   H6070     1.0  0.74884  0.73294  0.89279  1.0000
  H   H6071     1.0  0.90868  0.96723  0.84568  1.0000
  C   C3417     1.0  0.64431  0.66487  0.86369  1.0000
  N   N191      1.0  0.94899  0.96854  0.84791  1.0000
  C   C3418     1.0  0.75151  0.66809  0.94124  1.0000
  C   C3419     1.0  0.73359  0.66201  0.89910  1.0000
  H   H6072     1.0  0.91237  0.96445  0.87626  1.0000
  H   H6073     1.0  0.94089  0.97544  0.82091  1.0000
  H   H6074     1.0  0.74460  0.78440  0.93087  1.0000
  N   N192      1.0  0.55798  0.69525  0.85284  1.0000
  S   S766      1.0  0.97943  0.90760  0.81805  1.0000
  H   H6075     1.0  0.57543  0.68930  0.88619  1.0000
  H   H6076     1.0  0.82454  0.68434  0.84831  1.0000
  H   H6077     1.0  0.71481  0.82630  0.92690  1.0000
  C   C3420     1.0  0.57290  0.72042  0.88655  1.0000
  H   H6078     1.0  0.49560  0.72632  0.85992  1.0000
  H   H6079     1.0  0.77702  0.72601  0.94697  1.0000
  H   H6080     1.0  0.71094  0.77971  0.94805  1.0000
  H   H6081     1.0  0.87399  0.71956  0.96912  1.0000
  C   C3421     1.0  0.54289  0.90022  0.78353  1.0000
  H   H6082     1.0  0.54883  0.97068  0.81221  1.0000
  C   C3422     1.0  0.87954  0.80778  0.98372  1.0000
  C   C3423     1.0  0.79007  0.75743  0.84930  1.0000
  H   H6083     1.0  0.79515  0.69372  0.87544  1.0000
  H   H6084     1.0  0.74380  0.80466  0.94156  1.0000
  H   H6085     1.0  0.72180  0.67530  0.82221  1.0000
  H   H6086     1.0  0.95135  0.97270  0.78538  1.0000
  H   H6087     1.0  0.92420  0.74726  0.95704  1.0000
  H   H6088     1.0  0.81449  0.91649  0.96604  1.0000
  H   H6089     1.0  0.86891  0.82290  0.98081  1.0000
  H   H6090     1.0  0.71588  0.80584  0.91585  1.0000
  H   H6091     1.0  0.51125  0.89636  0.81256  1.0000
  H   H6092     1.0  0.95348  0.94257  0.83561  1.0000
  C   C3424     1.0  0.86022  0.71778  0.96562  1.0000
  H   H6093     1.0  0.90907  0.99156  0.89338  1.0000
  H   H6094     1.0  0.82125  0.71648  0.96851  1.0000
  H   H6095     1.0  0.97523  0.96878  0.82446  1.0000
  C   C3425     1.0  0.53562  0.70370  0.85256  1.0000
  H   H6096     1.0  0.49883  0.68421  0.75448  1.0000
  C   C3426     1.0  0.94195  0.97499  0.86662  1.0000
  H   H6097     1.0  0.90653  0.98612  0.81299  1.0000
  C   C3427     1.0  0.91246  0.98260  0.84081  1.0000
  H   H6098     1.0  0.65244  0.68147  0.87994  1.0000
  C   C3428     1.0  0.70641  0.67161  0.82832  1.0000
  H   H6099     1.0  0.97949  0.92760  0.85234  1.0000
  C   C3429     1.0  0.74324  0.87344  0.95467  1.0000
  C   C3430     1.0  0.74575  0.66709  0.88102  1.0000
  H   H6100     1.0  0.75704  0.67943  0.94530  1.0000
  H   H6101     1.0  0.99267  0.88139  0.76227  1.0000
  H   H6102     1.0  0.58901  0.72085  0.87891  1.0000
  C   C3431     1.0  0.78209  0.89497  0.97946  1.0000
  H   H6103     1.0  0.76377  0.73466  0.91816  1.0000
  H   H6104     1.0  0.97844  0.88854  0.78414  1.0000
  H   H6105     1.0  0.56424  0.68364  0.82743  1.0000
  H   H6106     1.0  0.96985  0.91983  0.74076  1.0000
  H   H6107     1.0  0.83550  0.79534  0.96568  1.0000
  H   H6108     1.0  0.78318  0.74211  0.95865  1.0000
  C   C3432     1.0  0.52039  0.70450  0.87184  1.0000
  H   H6109     1.0  0.52011  0.92508  0.77346  1.0000
  H   H6110     1.0  0.50084  0.66287  0.77434  1.0000
  C   C3433     1.0  0.89207  0.77394  0.97627  1.0000
  H   H6111     1.0  0.52178  0.68948  0.88191  1.0000
  H   H6112     1.0  0.67528  0.74999  0.97982  1.0000
  C   C3434     1.0  0.82796  0.70372  0.97908  1.0000
  H   H6113     1.0  0.76151  0.66515  0.92755  1.0000
  C   C3435     1.0  0.58291  0.66149  0.86333  1.0000
  H   H6114     1.0  0.53330  0.71974  0.84426  1.0000
  H   H6115     1.0  0.90264  0.93961  0.73818  1.0000
  H   H6116     1.0  0.63291  0.95288  0.74599  1.0000
  H   H6117     1.0  0.93348  0.94320  0.85580  1.0000
  H   H6118     1.0  0.90723  0.77828  0.97031  1.0000
  H   H6119     1.0  0.59288  0.67089  0.86452  1.0000
  C   C3436     1.0  0.94909  0.94632  0.84984  1.0000
  H   H6120     1.0  0.60097  0.97302  0.76172  1.0000
  C   C3437     1.0  0.92533  0.89307  0.74043  1.0000
  C   C3438     1.0  0.89126  0.75704  0.96697  1.0000
  H   H6121     1.0  0.68180  0.78401  0.97780  1.0000
  H   H6122     1.0  0.75721  0.85928  0.97831  1.0000
  H   H6123     1.0  0.98303  0.86251  0.78208  1.0000
  C   C3439     1.0  0.71349  0.70475  0.98358  1.0000
  H   H6124     1.0  0.74638  0.73365  0.96957  1.0000
  H   H6125     1.0  0.85858  0.66758  0.83485  1.0000
  C   C3440     1.0  0.49827  0.71091  0.86938  1.0000
  C   C3441     1.0  0.98982  0.87628  0.77787  1.0000
  C   C3442     1.0  0.59483  0.98047  0.74884  1.0000
  H   H6126     1.0  0.93638  0.99191  0.86417  1.0000
  H   H6127     1.0  0.54979  0.70367  0.89000  1.0000
  H   H6128     1.0  0.74084  0.66551  0.97858  1.0000
  C   C3443     1.0  0.84173  0.78153  0.97565  1.0000
  H   H6129     1.0  0.74266  0.88737  0.94310  1.0000
  C   C3444     1.0  0.49764  0.92468  0.83582  1.0000
  H   H6130     1.0  0.74951  0.85986  0.94820  1.0000
  C   C3445     1.0  0.74596  0.76530  0.96883  1.0000
  S   S767      1.0  0.91623  0.98514  0.76934  1.0000
  S   S768      1.0  0.89677  0.67031  0.97701  1.0000
  H   H6131     1.0  0.50842  0.93216  0.85701  1.0000
  C   C3446     1.0  0.84517  0.71035  0.98377  1.0000
  H   H6132     1.0  0.53281  0.98374  0.79561  1.0000
  C   C3447     1.0  0.90435  0.89810  0.74806  1.0000
  H   H6133     1.0  0.74894  0.90649  0.96458  1.0000
  H   H6134     1.0  0.97358  0.98053  0.74554  1.0000
  C   C3448     1.0  0.87407  0.66398  0.83778  1.0000
  H   H6135     1.0  0.49976  0.94566  0.80830  1.0000
  H   H6136     1.0  0.77065  0.67863  0.97480  1.0000
  H   H6137     1.0  0.66352  0.70570  0.98638  1.0000
  C   C3449     1.0  0.96394  0.93053  0.86157  1.0000
  H   H6138     1.0  0.52006  0.66246  0.75274  1.0000
  H   H6139     1.0  0.51627  0.94644  0.83329  1.0000
  C   C3450     1.0  0.95719  0.91006  0.86945  1.0000
  C   C3451     1.0  0.54676  0.98373  0.80002  1.0000
  C   C3452     1.0  0.81663  0.90236  0.97723  1.0000
  C   C3453     1.0  0.89017  0.89838  0.73781  1.0000
  C   C3454     1.0  0.70459  0.66046  0.84939  1.0000
  H   H6140     1.0  0.94229  0.91183  0.87979  1.0000
  H   H6141     1.0  0.96528  0.93609  0.87351  1.0000
  C   C3455     1.0  0.85467  0.78738  0.98638  1.0000
  H   H6142     1.0  0.80263  0.74038  0.98446  1.0000
  C   C3456     1.0  0.72108  0.79067  0.98533  1.0000
  H   H6143     1.0  0.72330  0.92721  0.98640  1.0000
  H   H6144     1.0  0.82684  0.90387  0.98556  1.0000
