data_image0
_chemical_formula_structural       H3S2HSFeSFeSHC2H3FeS2FeS2FeS2FeSHFeCFeS3C6H5CH2C6H5C2H2CH2CH5CH3CHC2H2NC6HC3H14CH3CHCH2CHCH5SH2CH4CH6NH3CHCHCH5C3HC2HCH2NC12H17C2H12FeCHCHC5HNCH6SCH4SHCHCH2CHFe2HCH5CSFeH2C2HC2HC2H4SHNHCH4NFeSFeS2FeS2FeSFeS3FeS2FeS2FeSFeS3FeS3CH2CHSHC2HC2H3C6H4C6H4C6H4C6H5CH2C2H4CH2CH2CH2C3HCH2CH2CHCH5CHCH2C2H2CHCH10CH2CH6SCH2CH5SH3NCH3CHNC3HCHC3HCH11CH3CH2CHSH5CHSHCHCNCH9FeH2CHCH3FeH5C2H3C2NC12H27CH10CH2C3HCH2C2HNH3CH2CH2CHC3HCH2FeSFeS2FeS2FeSFeHS2FeS2FeS2FeSFeS3FeS3H2CHC3HC2H3C6H4C6H4C6H4C6H5C2H3C2HFeHC4HCFeH2CH4CH2CH2NC12H28NC4HC4FeCSH3C2H5C2H7C2H3CHCH3CHCH9CH5CHCH3SC2HC2HCH3SH5S2HNCH2SC2HNH10CH2CH3CH8CHCH3C3SCH3C3H3C3HCSHSHFeSFeSFeS2FeS2FeS2FeSHFeCFeHS2HCH2C7H7CHC7H6CH7CHC2H2SHCHC2HSHCNHSCHC2FeSH5CHCHCH2CSHC2H7NHCHC2HSC2H3CH7SHNHC2H3C3H3CH6C2H7CFeH3C2H4C2HCH4CHC2H8CH7CH4CHCH9C2NCHFeHSCHCH4SHC3HC2HC2H2CSCHFeS2FeS2FeS2FeS2C3HC2H4C4H2C6H2CHC3H4C2H2SHFeS2FeS2FeS2FeS2C6H4C2H2NC5H3CHC2H4C4HCNC8HC2H24C2HC2HCH2CH7CH4CHCH8CHNH5CH4CHCHCHC2HC5NH5C2H2CHCH6CH3CH2C2H2C3H3C2H3CH3CHCH5C3HC2H2CH19CH3C2HC2H4C2HCHC2H4CHSHNH4CSH3C2HC2H3NCHCH6CH3CHFeH6CHSFeSFeS2FeHFeCS2NH3CH2C3H5C3HC2H4C3SFeSFeS2C7H4C6HC2HNH2CHCH4NCH3CHCHCHCH3CH3NCH3CH3CHCH3CHCHCH5CHCH2C2H5CH2CH5CH4CH3CHC2H4C2HCH2C2HSH2CH4C3H3CHC4H3CHCHCH8CH2CH2CSHCHFeH4NHCH5CH2C2H4CHCH4SCHCH4C2HCH3C2H4CH5C2H2SHCSFeSFeSHFeSHFeS2HC5H4C3HC2H7FeHFeS2C6H4C6H2CH3C4H3C2HCSCH4CH2CHC2HCHC2H2C4H6CH2CH3CH2CH2CHCHCH7C3H4C2HCH2C2H3NHCH10CH8NCHNHCH3CHCHCH2CH4C3H5CH3SH3NH2CHC7H2C3H2CH10CHNH2CH3CH3CH3CH3CH6CHNCHCHSH2NHCHCHCH3NH6CH3CHSH2FeS2FeS2FeS2FeS2FeS2FeS2C3HC2H4C4H2C6H3CHC4HC4H4CHFeS2FeS2C3HC2H4C2H3C5H4CH3C2H2CH7SCH3CH4C3H9C4H3CH3C2HCH3CHC2H5CHCHCH5CHC2NC12H29CH2C3H5CH5NH6CSCH5CH5NC4HFeC4HCHCH5C2H7CH3CH2N2CH5CH3C2HCH2CHC2H3NH3CH4CH2CH4CHCHCH6C3HSCH3CH3CH6FeC2HCH2CH5SHCHFeSFeSFeS2H2CH3FeS2FeS2FeS2FeSFeS3C6H8CHC6H2SH3CH3CHC2HC2H3CH2CH9CH2C2H4C2HC3HCH2C2HC3NCHCHCH4NC2SCH3C2HCH4CH8NC8H2C2H16CH4CH10C2H2CSHCH3C2H3NH6SHCNH2C2HCH4CH3CH6CHCH2CH4CHFeHCH5CH2SHC2H2C2H2CH2CHSHCS2H2C2HFeCSH2FeSFeS2FeS2FeCFeS3FeS2FeSCFeSFeS3FeS2HCH4C3HC3H2CH2C5HCHC6H4C6H4C6H4C6H2NHCH12CHC2H3CH4CH3C5H8CH2FeC2H2C3H2SCH2CNH14SH4CHCH5N2HC3H3C3H2CHC3H4SH5SCH3SH3C2SHC2HCH2C2HCH4C3HS2CHNSHFeH3C2HC2HCHSCH5FeH3C2H7CHFeH3NHFeSFeS2FeS2FeHFeS3FeS2FeSCFeSFeS3H6FeS3CHCH2C2H2CHCHC6H4C6H4C6H4C6H3CHC3H8CFeH4C3HC2NC10H12CH10C2SH6CHCHSCHCH4CH7CH8FeH2CH2SCFeH2C2H2C2HC3H2CHCHSC3H8CH6CHNC3H2CH2CHCH7CHSCH2CHCHNH2CH4CH9CNH3C2H5CH3SHSC3HCH5CHSCSHFeCFeSCH2C2HFeS2H6FeS2FeS2FeS2FeSFeHS2C3HC7H4CH3CH2C7H5CH3CH2CH8CH5CHCNHNH7CH3FeC2NHCH5CHCH2CHCH2NCHCH2CHC3H4SHFeSHCHCH5NC11H5CH22FeCH2C3HCS2H3CH4CHCHCHCHCH3C3HCHCHCHSH2CHC2HSH2CH2CHC4SH4SC2H7CH2CH5C
_chemical_formula_sum              "H2048 S256 Fe128 C1152 N64"
_cell_length_a       50.3074
_cell_length_b       51.27
_cell_length_c       52.4979
_cell_angle_alpha    90.0799
_cell_angle_beta     90.1209
_cell_angle_gamma    90.0717

_space_group_name_H-M_alt    "P 1"
_space_group_IT_number       1

loop_
  _space_group_symop_operation_xyz
  'x, y, z'

loop_
  _atom_site_type_symbol
  _atom_site_label
  _atom_site_symmetry_multiplicity
  _atom_site_fract_x
  _atom_site_fract_y
  _atom_site_fract_z
  _atom_site_occupancy
  H   H1        1.0  0.03091  0.13692  0.01732  1.0000
  H   H2        1.0  0.17380  0.17033  0.99495  1.0000
  H   H3        1.0  0.28347  0.99326  0.36812  1.0000
  S   S1        1.0  0.23496  0.05531  0.41535  1.0000
  S   S2        1.0  0.02786  0.32858  0.96304  1.0000
  H   H4        1.0  0.05714  0.18128  0.05979  1.0000
  S   S3        1.0  0.25038  0.11671  0.42310  1.0000
  Fe  Fe1       1.0  0.21331  0.09235  0.42630  1.0000
  S   S4        1.0  0.17742  0.11480  0.41070  1.0000
  Fe  Fe2       1.0  0.27263  0.07970  0.41596  1.0000
  S   S5        1.0  0.30414  0.07864  0.38478  1.0000
  H   H5        1.0  0.15513  0.97230  0.04493  1.0000
  C   C1        1.0  0.16579  0.00174  0.98731  1.0000
  C   C2        1.0  0.08051  0.19205  0.09231  1.0000
  H   H6        1.0  0.27486  0.02549  0.06374  1.0000
  H   H7        1.0  0.01065  0.18739  0.04199  1.0000
  H   H8        1.0  0.15565  0.98573  0.97663  1.0000
  Fe  Fe3       1.0  0.03133  0.11711  0.09162  1.0000
  S   S6        1.0  0.06409  0.09497  0.07017  1.0000
  S   S7        1.0  0.03392  0.14707  0.12305  1.0000
  Fe  Fe4       1.0  0.02495  0.11253  0.36895  1.0000
  S   S8        1.0  0.06015  0.08484  0.37397  1.0000
  S   S9        1.0  0.02758  0.15562  0.36223  1.0000
  Fe  Fe5       1.0  0.21963  0.09934  0.03430  1.0000
  S   S10       1.0  0.20854  0.07401  0.00127  1.0000
  S   S11       1.0  0.18996  0.11323  0.06442  1.0000
  Fe  Fe6       1.0  0.27812  0.10478  0.01580  1.0000
  S   S12       1.0  0.27025  0.08013  0.98078  1.0000
  H   H9        1.0  0.29823  0.21959  0.04903  1.0000
  Fe  Fe7       1.0  0.23193  0.10254  0.97780  1.0000
  C   C3        1.0  0.15969  0.97375  0.02433  1.0000
  Fe  Fe8       1.0  0.24763  0.05357  0.00723  1.0000
  S   S13       1.0  0.25221  0.00926  0.01148  1.0000
  S   S14       1.0  0.24114  0.12909  0.01053  1.0000
  S   S15       1.0  0.25754  0.07714  0.04252  1.0000
  C   C4        1.0  0.15479  0.10894  0.06485  1.0000
  C   C5        1.0  0.13987  0.12076  0.08437  1.0000
  C   C6        1.0  0.11208  0.11718  0.08599  1.0000
  C   C7        1.0  0.09885  0.10150  0.06820  1.0000
  C   C8        1.0  0.11370  0.09004  0.04840  1.0000
  C   C9        1.0  0.14144  0.09384  0.04663  1.0000
  H   H10       1.0  0.14995  0.13248  0.09857  1.0000
  H   H11       1.0  0.10104  0.12593  0.10144  1.0000
  H   H12       1.0  0.10364  0.07824  0.03430  1.0000
  H   H13       1.0  0.15251  0.08508  0.03123  1.0000
  H   H14       1.0  0.19932  0.19523  0.96199  1.0000
  C   C10       1.0  0.06297  0.39449  0.95932  1.0000
  H   H15       1.0  0.29787  0.17154  0.42511  1.0000
  H   H16       1.0  0.11629  0.99685  0.00455  1.0000
  C   C11       1.0  0.14521  0.10566  0.40005  1.0000
  C   C12       1.0  0.13653  0.07974  0.39971  1.0000
  C   C13       1.0  0.11047  0.07371  0.39158  1.0000
  C   C14       1.0  0.09268  0.09349  0.38418  1.0000
  C   C15       1.0  0.10138  0.11941  0.38458  1.0000
  C   C16       1.0  0.12758  0.12538  0.39219  1.0000
  H   H17       1.0  0.14988  0.06437  0.40562  1.0000
  H   H18       1.0  0.10396  0.05359  0.39123  1.0000
  H   H19       1.0  0.08795  0.13484  0.37903  1.0000
  H   H20       1.0  0.13413  0.14549  0.39235  1.0000
  H   H21       1.0  0.02427  0.05589  0.32387  1.0000
  C   C17       1.0  0.29655  0.01218  0.40325  1.0000
  C   C18       1.0  0.24926  0.98401  0.98833  1.0000
  H   H22       1.0  0.16216  0.01028  0.06890  1.0000
  H   H23       1.0  0.08589  0.17162  0.09698  1.0000
  C   C19       1.0  0.24575  0.98925  0.96241  1.0000
  H   H24       1.0  0.04654  0.12965  0.98710  1.0000
  H   H25       1.0  0.07159  0.21391  0.42119  1.0000
  C   C20       1.0  0.10010  0.12751  0.45197  1.0000
  H   H26       1.0  0.09065  0.40550  0.99042  1.0000
  H   H27       1.0  0.04665  0.44934  0.95557  1.0000
  H   H28       1.0  0.06288  0.19759  0.10380  1.0000
  H   H29       1.0  0.04561  0.40292  0.01000  1.0000
  H   H30       1.0  0.11915  0.99380  0.05438  1.0000
  C   C21       1.0  0.29840  0.21828  0.99608  1.0000
  H   H31       1.0  0.28657  0.97709  0.42344  1.0000
  H   H32       1.0  0.31851  0.19203  0.03935  1.0000
  H   H33       1.0  0.06706  0.44347  0.98267  1.0000
  C   C22       1.0  0.00493  0.16436  0.23829  1.0000
  H   H34       1.0  0.23415  0.98327  0.43555  1.0000
  C   C23       1.0  0.24197  0.20038  0.96527  1.0000
  C   C24       1.0  0.17543  0.02012  0.02962  1.0000
  H   H35       1.0  0.06735  0.21503  0.06099  1.0000
  H   H36       1.0  0.11714  0.39255  0.95404  1.0000
  N   N1        1.0  0.09478  0.18927  0.01888  1.0000
  C   C25       1.0  0.09850  0.18782  0.04743  1.0000
  C   C26       1.0  0.12047  0.18229  0.00536  1.0000
  C   C27       1.0  0.08794  0.21720  0.01234  1.0000
  C   C28       1.0  0.07222  0.17224  0.00975  1.0000
  C   C29       1.0  0.07378  0.14306  0.01681  1.0000
  C   C30       1.0  0.27562  0.00686  0.38276  1.0000
  H   H37       1.0  0.08451  0.33015  0.44299  1.0000
  C   C31       1.0  0.13904  0.16202  0.01842  1.0000
  C   C32       1.0  0.16147  0.15338  0.00072  1.0000
  C   C33       1.0  0.04880  0.12854  0.00812  1.0000
  H   H38       1.0  0.00092  0.28223  0.02611  1.0000
  H   H39       1.0  0.05542  0.29127  0.44799  1.0000
  H   H40       1.0  0.11507  0.20099  0.05331  1.0000
  H   H41       1.0  0.10472  0.16801  0.05351  1.0000
  H   H42       1.0  0.24260  0.19057  0.98398  1.0000
  H   H43       1.0  0.13318  0.19996  0.00290  1.0000
  H   H44       1.0  0.10312  0.23069  0.02056  1.0000
  H   H45       1.0  0.06861  0.22296  0.02090  1.0000
  H   H46       1.0  0.05292  0.17994  0.01674  1.0000
  H   H47       1.0  0.07072  0.17284  0.98863  1.0000
  H   H48       1.0  0.07551  0.14049  0.03766  1.0000
  H   H49       1.0  0.09083  0.13369  0.00714  1.0000
  H   H50       1.0  0.28370  0.17294  0.96706  1.0000
  H   H51       1.0  0.12635  0.02992  0.00827  1.0000
  C   C34       1.0  0.00234  0.15321  0.21378  1.0000
  H   H52       1.0  0.14970  0.14876  0.44802  1.0000
  H   H53       1.0  0.14839  0.17078  0.03564  1.0000
  H   H54       1.0  0.12823  0.14436  0.02453  1.0000
  C   C35       1.0  0.16029  0.02737  0.97249  1.0000
  H   H55       1.0  0.19912  0.03186  0.09143  1.0000
  C   C36       1.0  0.30514  0.98656  0.41661  1.0000
  H   H56       1.0  0.05029  0.10770  0.01370  1.0000
  H   H57       1.0  0.05279  0.10717  0.20341  1.0000
  C   C37       1.0  0.08656  0.01721  0.04172  1.0000
  H   H58       1.0  0.04686  0.20133  0.44293  1.0000
  C   C38       1.0  0.29177  0.01635  0.07399  1.0000
  H   H59       1.0  0.07612  0.00057  0.03252  1.0000
  H   H60       1.0  0.06857  0.38054  0.02466  1.0000
  H   H61       1.0  0.31366  0.02172  0.39375  1.0000
  H   H62       1.0  0.00928  0.06470  0.29357  1.0000
  H   H63       1.0  0.15336  0.14366  0.98344  1.0000
  S   S16       1.0  0.00269  0.16519  0.29077  1.0000
  H   H64       1.0  0.19162  0.17132  0.43519  1.0000
  H   H65       1.0  0.11623  0.17527  0.98566  1.0000
  C   C39       1.0  0.29791  0.18735  0.95917  1.0000
  H   H66       1.0  0.20364  0.97360  0.02455  1.0000
  H   H67       1.0  0.09917  0.26377  0.98547  1.0000
  H   H68       1.0  0.06727  0.21361  0.97544  1.0000
  H   H69       1.0  0.07351  0.08016  0.21273  1.0000
  C   C40       1.0  0.12888  0.01006  0.01642  1.0000
  H   H70       1.0  0.26348  0.20582  0.01766  1.0000
  H   H71       1.0  0.00251  0.43420  0.01953  1.0000
  H   H72       1.0  0.25737  0.99845  0.39137  1.0000
  H   H73       1.0  0.29301  0.23827  0.00246  1.0000
  H   H74       1.0  0.19352  0.99669  0.06023  1.0000
  H   H75       1.0  0.19551  0.02111  0.02076  1.0000
  N   N2        1.0  0.15760  0.00153  0.01505  1.0000
  H   H76       1.0  0.10276  0.21735  0.97249  1.0000
  H   H77       1.0  0.30151  0.99150  0.04274  1.0000
  H   H78       1.0  0.08248  0.03530  0.03076  1.0000
  C   C41       1.0  0.32592  0.17652  0.96565  1.0000
  H   H79       1.0  0.21418  0.04086  0.06160  1.0000
  C   C42       1.0  0.19499  0.03680  0.07122  1.0000
  H   H80       1.0  0.32196  0.06996  0.00433  1.0000
  C   C43       1.0  0.23763  0.96998  0.45119  1.0000
  H   H81       1.0  0.06363  0.25998  0.98983  1.0000
  H   H82       1.0  0.28381  0.00014  0.08574  1.0000
  H   H83       1.0  0.17448  0.13923  0.01080  1.0000
  H   H84       1.0  0.07841  0.01985  0.06121  1.0000
  H   H85       1.0  0.28410  0.26824  0.95428  1.0000
  C   C44       1.0  0.30514  0.26259  0.95736  1.0000
  C   C45       1.0  0.29787  0.19958  0.04089  1.0000
  C   C46       1.0  0.21404  0.21138  0.96134  1.0000
  H   H86       1.0  0.16751  0.04032  0.02831  1.0000
  C   C47       1.0  0.00836  0.20795  0.03877  1.0000
  C   C48       1.0  0.11644  0.01198  0.04331  1.0000
  H   H87       1.0  0.31907  0.14703  0.43875  1.0000
  C   C49       1.0  0.32396  0.02785  0.03863  1.0000
  H   H88       1.0  0.09720  0.20518  0.09764  1.0000
  H   H89       1.0  0.00569  0.16500  0.19700  1.0000
  N   N3        1.0  0.08227  0.10442  0.28931  1.0000
  C   C50       1.0  0.10481  0.09255  0.30432  1.0000
  C   C51       1.0  0.05651  0.09273  0.29863  1.0000
  C   C52       1.0  0.08649  0.09889  0.26138  1.0000
  C   C53       1.0  0.08103  0.13362  0.29299  1.0000
  C   C54       1.0  0.08370  0.14340  0.32081  1.0000
  C   C55       1.0  0.13293  0.10348  0.29853  1.0000
  C   C56       1.0  0.06325  0.10695  0.24351  1.0000
  C   C57       1.0  0.05264  0.06311  0.29339  1.0000
  C   C58       1.0  0.02561  0.05364  0.30285  1.0000
  C   C59       1.0  0.07975  0.17292  0.32237  1.0000
  C   C60       1.0  0.15304  0.09425  0.31846  1.0000
  C   C61       1.0  0.06983  0.10131  0.21565  1.0000
  H   H90       1.0  0.10612  0.07125  0.30067  1.0000
  H   H91       1.0  0.10091  0.09416  0.32519  1.0000
  H   H92       1.0  0.05469  0.09537  0.31957  1.0000
  H   H93       1.0  0.03915  0.10335  0.29055  1.0000
  H   H94       1.0  0.09086  0.07786  0.25820  1.0000
  H   H95       1.0  0.10448  0.10933  0.25445  1.0000
  H   H96       1.0  0.09655  0.14368  0.28152  1.0000
  H   H97       1.0  0.06181  0.14139  0.28561  1.0000
  H   H98       1.0  0.10366  0.13913  0.32876  1.0000
  H   H99       1.0  0.06884  0.13381  0.33313  1.0000
  H   H100      1.0  0.13971  0.09649  0.27959  1.0000
  H   H101      1.0  0.13344  0.12507  0.29835  1.0000
  H   H102      1.0  0.05898  0.12811  0.24516  1.0000
  H   H103      1.0  0.04486  0.09604  0.24811  1.0000
  H   H104      1.0  0.05367  0.05863  0.27277  1.0000
  H   H105      1.0  0.06794  0.05144  0.30344  1.0000
  H   H106      1.0  0.12543  0.02861  0.05386  1.0000
  C   C62       1.0  0.00583  0.22497  0.05942  1.0000
  C   C63       1.0  0.18064  0.01411  0.05821  1.0000
  H   H107      1.0  0.08185  0.17944  0.34246  1.0000
  H   H108      1.0  0.09489  0.18321  0.31072  1.0000
  H   H109      1.0  0.05958  0.17836  0.31552  1.0000
  H   H110      1.0  0.14760  0.10167  0.33768  1.0000
  H   H111      1.0  0.15385  0.07261  0.31902  1.0000
  H   H112      1.0  0.17314  0.10176  0.31368  1.0000
  H   H113      1.0  0.07673  0.18315  0.43683  1.0000
  H   H114      1.0  0.08759  0.11258  0.20959  1.0000
  H   H115      1.0  0.28795  0.02615  0.41704  1.0000
  H   H116      1.0  0.01025  0.20419  0.99793  1.0000
  H   H117      1.0  0.27024  0.02547  0.37323  1.0000
  H   H118      1.0  0.06470  0.11934  0.42952  1.0000
  Fe  Fe9       1.0  0.99731  0.14854  0.33093  1.0000
  C   C64       1.0  0.28433  0.19944  0.01480  1.0000
  H   H119      1.0  0.13916  0.02784  0.96625  1.0000
  C   C65       1.0  0.30958  0.23292  0.95302  1.0000
  H   H120      1.0  0.16393  0.04478  0.98447  1.0000
  C   C66       1.0  0.07395  0.19465  0.06399  1.0000
  C   C67       1.0  0.31211  0.00570  0.05506  1.0000
  C   C68       1.0  0.00309  0.26153  0.02958  1.0000
  C   C69       1.0  0.06852  0.20305  0.43926  1.0000
  C   C70       1.0  0.00002  0.45292  0.45155  1.0000
  H   H121      1.0  0.31101  0.26827  0.97699  1.0000
  N   N4        1.0  0.29201  0.21472  0.96822  1.0000
  C   C71       1.0  0.07726  0.38917  0.98508  1.0000
  H   H122      1.0  0.04406  0.36849  0.00253  1.0000
  H   H123      1.0  0.18748  0.99765  0.98557  1.0000
  H   H124      1.0  0.02310  0.03264  0.29822  1.0000
  H   H125      1.0  0.30700  0.03601  0.02755  1.0000
  H   H126      1.0  0.32649  0.08859  0.06171  1.0000
  H   H127      1.0  0.08208  0.25485  0.44557  1.0000
  S   S17       1.0  0.00591  0.21323  0.09112  1.0000
  C   C72       1.0  0.08505  0.22350  0.98350  1.0000
  H   H128      1.0  0.28676  0.18662  0.05408  1.0000
  H   H129      1.0  0.31515  0.00673  0.99555  1.0000
  H   H130      1.0  0.01016  0.18477  0.24007  1.0000
  H   H131      1.0  0.18249  0.05464  0.07079  1.0000
  S   S18       1.0  0.31809  0.12608  0.02027  1.0000
  H   H132      1.0  0.08953  0.37122  0.98340  1.0000
  C   C73       1.0  0.00340  0.25186  0.05473  1.0000
  H   H133      1.0  0.07796  0.25657  0.95864  1.0000
  C   C74       1.0  0.05761  0.38503  0.00683  1.0000
  H   H134      1.0  0.31296  0.97313  0.40173  1.0000
  H   H135      1.0  0.31383  0.13586  0.96157  1.0000
  C   C75       1.0  0.99898  0.44188  0.00064  1.0000
  H   H136      1.0  0.32026  0.21692  0.99920  1.0000
  Fe  Fe10      1.0  0.99857  0.29549  0.96100  1.0000
  Fe  Fe11      1.0  0.99758  0.12751  0.13982  1.0000
  H   H137      1.0  0.04463  0.40574  0.96328  1.0000
  C   C76       1.0  0.00823  0.21757  0.01377  1.0000
  H   H138      1.0  0.24472  0.00924  0.95592  1.0000
  H   H139      1.0  0.30106  0.03100  0.08686  1.0000
  H   H140      1.0  0.10619  0.14283  0.43826  1.0000
  H   H141      1.0  0.32953  0.96641  0.02250  1.0000
  H   H142      1.0  0.00606  0.44780  0.43242  1.0000
  C   C77       1.0  0.31690  0.16834  0.43541  1.0000
  S   S19       1.0  0.00391  0.14100  0.06728  1.0000
  Fe  Fe12      1.0  0.00434  0.16974  0.09923  1.0000
  H   H143      1.0  0.10639  0.43569  0.95721  1.0000
  H   H144      1.0  0.28433  0.17897  0.00803  1.0000
  C   C78       1.0  0.26340  0.22196  0.96254  1.0000
  C   C79       1.0  0.00049  0.14953  0.26044  1.0000
  H   H145      1.0  0.25713  0.23874  0.97460  1.0000
  C   C80       1.0  0.08127  0.25276  0.97923  1.0000
  C   C81       1.0  0.00522  0.24429  0.00902  1.0000
  H   H146      1.0  0.20916  0.22571  0.97650  1.0000
  C   C82       1.0  0.06999  0.12401  0.44959  1.0000
  C   C83       1.0  0.06718  0.45088  0.96282  1.0000
  H   H147      1.0  0.00162  0.26524  0.07059  1.0000
  H   H148      1.0  0.19897  0.03077  0.95411  1.0000
  H   H149      1.0  0.05021  0.33886  0.44788  1.0000
  H   H150      1.0  0.32571  0.04715  0.97853  1.0000
  S   S20       1.0  0.00350  0.25453  0.97700  1.0000
  H   H151      1.0  0.10945  0.10889  0.44615  1.0000
  N   N5        1.0  0.32471  0.98948  0.43829  1.0000
  H   H152      1.0  0.32760  0.99552  0.06627  1.0000
  C   C84       1.0  0.32959  0.14922  0.95450  1.0000
  H   H153      1.0  0.32866  0.17499  0.98658  1.0000
  H   H154      1.0  0.04212  0.26690  0.49949  1.0000
  H   H155      1.0  0.03802  0.43988  0.91666  1.0000
  H   H156      1.0  0.06374  0.38626  0.90736  1.0000
  N   N6        1.0  0.08253  0.26120  0.48653  1.0000
  Fe  Fe13      1.0  0.02683  0.32842  0.92029  1.0000
  S   S21       1.0  0.06380  0.33401  0.89517  1.0000
  Fe  Fe14      1.0  0.22058  0.24084  0.58536  1.0000
  S   S22       1.0  0.22242  0.27224  0.55600  1.0000
  S   S23       1.0  0.20695  0.20039  0.57355  1.0000
  Fe  Fe15      1.0  0.23809  0.27740  0.62856  1.0000
  S   S24       1.0  0.24071  0.31173  0.60152  1.0000
  S   S25       1.0  0.25629  0.27999  0.66894  1.0000
  Fe  Fe16      1.0  0.20180  0.29723  0.58490  1.0000
  S   S26       1.0  0.17125  0.32526  0.56745  1.0000
  Fe  Fe17      1.0  0.26097  0.28419  0.57443  1.0000
  S   S27       1.0  0.29362  0.29340  0.54546  1.0000
  S   S28       1.0  0.19759  0.26494  0.61386  1.0000
  S   S29       1.0  0.26062  0.25062  0.60182  1.0000
  Fe  Fe18      1.0  0.27148  0.29569  0.86546  1.0000
  S   S30       1.0  0.27510  0.26392  0.83614  1.0000
  S   S31       1.0  0.30482  0.32484  0.87430  1.0000
  Fe  Fe19      1.0  0.21382  0.27965  0.87972  1.0000
  S   S32       1.0  0.21442  0.24629  0.85174  1.0000
  S   S33       1.0  0.17952  0.28375  0.90828  1.0000
  Fe  Fe20      1.0  0.25578  0.23875  0.86600  1.0000
  S   S34       1.0  0.27545  0.20079  0.87718  1.0000
  Fe  Fe21      1.0  0.23345  0.27463  0.82426  1.0000
  S   S35       1.0  0.21445  0.27937  0.78463  1.0000
  S   S36       1.0  0.25431  0.26998  0.89580  1.0000
  S   S37       1.0  0.23073  0.30848  0.85181  1.0000
  Fe  Fe22      1.0  0.01223  0.32653  0.53509  1.0000
  S   S38       1.0  0.01597  0.35049  0.49949  1.0000
  S   S39       1.0  0.04524  0.31070  0.56075  1.0000
  S   S40       1.0  0.27233  0.14341  0.48648  1.0000
  C   C85       1.0  0.24985  0.35895  0.54097  1.0000
  H   H157      1.0  0.14729  0.36362  0.91699  1.0000
  H   H158      1.0  0.01834  0.44085  0.59367  1.0000
  C   C86       1.0  0.32341  0.37768  0.55333  1.0000
  H   H159      1.0  0.16238  0.13852  0.51894  1.0000
  S   S41       1.0  0.21080  0.11942  0.94361  1.0000
  H   H160      1.0  0.28001  0.32737  0.76944  1.0000
  C   C87       1.0  0.25675  0.17752  0.89420  1.0000
  C   C88       1.0  0.22933  0.18031  0.89765  1.0000
  H   H161      1.0  0.29953  0.26511  0.48956  1.0000
  C   C89       1.0  0.25603  0.13845  0.92068  1.0000
  C   C90       1.0  0.26986  0.15613  0.90513  1.0000
  H   H162      1.0  0.21901  0.19662  0.88915  1.0000
  H   H163      1.0  0.01567  0.40626  0.59976  1.0000
  H   H164      1.0  0.29095  0.15361  0.90206  1.0000
  C   C91       1.0  0.22449  0.18491  0.54867  1.0000
  C   C92       1.0  0.24520  0.19768  0.53607  1.0000
  C   C93       1.0  0.25918  0.18482  0.51661  1.0000
  C   C94       1.0  0.25266  0.15921  0.50959  1.0000
  C   C95       1.0  0.23161  0.14656  0.52181  1.0000
  C   C96       1.0  0.21765  0.15937  0.54140  1.0000
  H   H165      1.0  0.25052  0.21740  0.54141  1.0000
  H   H166      1.0  0.27502  0.19474  0.50682  1.0000
  H   H167      1.0  0.22663  0.12671  0.51669  1.0000
  H   H168      1.0  0.20192  0.14925  0.55132  1.0000
  C   C97       1.0  0.13652  0.31941  0.56429  1.0000
  C   C98       1.0  0.12318  0.30161  0.57986  1.0000
  C   C99       1.0  0.09531  0.29903  0.57820  1.0000
  C   C100      1.0  0.08044  0.31383  0.56071  1.0000
  C   C101      1.0  0.09385  0.33095  0.54444  1.0000
  C   C102      1.0  0.12170  0.33393  0.54645  1.0000
  H   H169      1.0  0.13424  0.29037  0.59372  1.0000
  H   H170      1.0  0.08517  0.28569  0.59086  1.0000
  H   H171      1.0  0.08272  0.34227  0.53074  1.0000
  H   H172      1.0  0.13185  0.34772  0.53429  1.0000
  C   C103      1.0  0.24389  0.27900  0.70088  1.0000
  C   C104      1.0  0.21697  0.28240  0.70672  1.0000
  C   C105      1.0  0.20846  0.28256  0.73239  1.0000
  C   C106      1.0  0.22657  0.27899  0.75262  1.0000
  C   C107      1.0  0.25345  0.27537  0.74679  1.0000
  C   C108      1.0  0.26200  0.27554  0.72114  1.0000
  H   H173      1.0  0.20277  0.28521  0.69148  1.0000
  H   H174      1.0  0.18764  0.28552  0.73656  1.0000
  H   H175      1.0  0.26760  0.27227  0.76200  1.0000
  H   H176      1.0  0.28277  0.27261  0.71689  1.0000
  C   C109      1.0  0.09595  0.32020  0.89958  1.0000
  C   C110      1.0  0.11646  0.32691  0.88258  1.0000
  C   C111      1.0  0.14216  0.31613  0.88512  1.0000
  C   C112      1.0  0.14763  0.29837  0.90460  1.0000
  C   C113      1.0  0.12729  0.29214  0.92196  1.0000
  C   C114      1.0  0.10159  0.30290  0.91944  1.0000
  H   H177      1.0  0.11246  0.34062  0.86741  1.0000
  H   H178      1.0  0.15790  0.32180  0.87226  1.0000
  H   H179      1.0  0.12489  0.24658  0.88919  1.0000
  H   H180      1.0  0.14129  0.17421  0.46921  1.0000
  H   H181      1.0  0.26706  0.36535  0.79539  1.0000
  C   C115      1.0  0.30455  0.36866  0.60696  1.0000
  H   H182      1.0  0.12476  0.36890  0.59926  1.0000
  H   H183      1.0  0.04629  0.24790  0.55690  1.0000
  C   C116      1.0  0.08581  0.28943  0.47878  1.0000
  C   C117      1.0  0.06410  0.41232  0.48533  1.0000
  H   H184      1.0  0.27671  0.45921  0.56235  1.0000
  H   H185      1.0  0.18382  0.19782  0.45691  1.0000
  H   H186      1.0  0.29257  0.34078  0.57831  1.0000
  H   H187      1.0  0.11393  0.08340  0.48344  1.0000
  C   C118      1.0  0.02492  0.41500  0.88657  1.0000
  H   H188      1.0  0.12491  0.16010  0.56067  1.0000
  H   H189      1.0  0.16241  0.38961  0.89904  1.0000
  C   C119      1.0  0.14781  0.25442  0.52727  1.0000
  H   H190      1.0  0.08610  0.29772  0.93277  1.0000
  H   H191      1.0  0.07715  0.41719  0.89913  1.0000
  C   C120      1.0  0.12332  0.39896  0.91398  1.0000
  H   H192      1.0  0.06152  0.44738  0.58784  1.0000
  H   H193      1.0  0.01813  0.24483  0.53565  1.0000
  C   C121      1.0  0.30919  0.01490  0.50710  1.0000
  C   C122      1.0  0.24115  0.97983  0.47582  1.0000
  C   C123      1.0  0.03718  0.23573  0.54165  1.0000
  H   H194      1.0  0.19256  0.14046  0.47143  1.0000
  C   C124      1.0  0.23683  0.34910  0.51646  1.0000
  H   H195      1.0  0.14651  0.18480  0.51143  1.0000
  H   H196      1.0  0.31588  0.27433  0.91891  1.0000
  C   C125      1.0  0.14876  0.05971  0.48616  1.0000
  H   H197      1.0  0.31504  0.27756  0.79389  1.0000
  H   H198      1.0  0.08223  0.42468  0.48458  1.0000
  C   C126      1.0  0.28295  0.40523  0.56214  1.0000
  H   H199      1.0  0.32667  0.37382  0.51185  1.0000
  C   C127      1.0  0.10924  0.25169  0.49595  1.0000
  H   H200      1.0  0.06314  0.10763  0.46176  1.0000
  H   H201      1.0  0.10858  0.23074  0.50105  1.0000
  H   H202      1.0  0.24839  0.96954  0.51503  1.0000
  H   H203      1.0  0.02376  0.39396  0.88153  1.0000
  H   H204      1.0  0.03675  0.42539  0.87190  1.0000
  C   C128      1.0  0.12093  0.26592  0.51957  1.0000
  H   H205      1.0  0.27930  0.30654  0.79707  1.0000
  C   C129      1.0  0.21523  0.16187  0.91218  1.0000
  H   H206      1.0  0.08994  0.30190  0.49568  1.0000
  H   H207      1.0  0.13727  0.04300  0.49389  1.0000
  C   C130      1.0  0.22865  0.14126  0.92420  1.0000
  C   C131      1.0  0.26426  0.34526  0.80281  1.0000
  H   H208      1.0  0.24723  0.34330  0.55531  1.0000
  H   H209      1.0  0.15167  0.10525  0.45952  1.0000
  C   C132      1.0  0.13758  0.17393  0.54984  1.0000
  H   H210      1.0  0.27188  0.44764  0.59462  1.0000
  C   C133      1.0  0.30195  0.42640  0.57309  1.0000
  H   H211      1.0  0.26142  0.22869  0.94238  1.0000
  H   H212      1.0  0.15563  0.26495  0.54424  1.0000
  H   H213      1.0  0.26742  0.36294  0.58803  1.0000
  H   H214      1.0  0.29168  0.99165  0.46449  1.0000
  H   H215      1.0  0.07362  0.34217  0.47374  1.0000
  H   H216      1.0  0.01834  0.39622  0.55365  1.0000
  H   H217      1.0  0.18493  0.16651  0.49318  1.0000
  H   H218      1.0  0.31478  0.21666  0.60705  1.0000
  H   H219      1.0  0.05181  0.24686  0.46093  1.0000
  H   H220      1.0  0.31576  0.17852  0.45406  1.0000
  C   C134      1.0  0.13414  0.08522  0.49175  1.0000
  H   H221      1.0  0.23902  0.37659  0.54747  1.0000
  H   H222      1.0  0.07454  0.22389  0.52608  1.0000
  C   C135      1.0  0.15132  0.15491  0.46832  1.0000
  H   H223      1.0  0.13198  0.19409  0.55536  1.0000
  H   H224      1.0  0.09698  0.12353  0.49324  1.0000
  H   H225      1.0  0.09146  0.44683  0.92882  1.0000
  H   H226      1.0  0.31677  0.35362  0.78755  1.0000
  H   H227      1.0  0.12437  0.28687  0.51563  1.0000
  H   H228      1.0  0.31862  0.24803  0.57104  1.0000
  S   S42       1.0  0.21859  0.08612  0.46850  1.0000
  C   C136      1.0  0.06802  0.33006  0.45701  1.0000
  H   H229      1.0  0.24504  0.18538  0.95045  1.0000
  H   H230      1.0  0.13228  0.08713  0.51271  1.0000
  C   C137      1.0  0.06160  0.26017  0.50703  1.0000
  H   H231      1.0  0.24359  0.33891  0.79852  1.0000
  H   H232      1.0  0.02409  0.40883  0.92672  1.0000
  H   H233      1.0  0.14584  0.23349  0.53226  1.0000
  H   H234      1.0  0.05934  0.14209  0.45516  1.0000
  H   H235      1.0  0.12943  0.12855  0.52509  1.0000
  S   S43       1.0  0.24013  0.01390  0.48267  1.0000
  H   H236      1.0  0.27599  0.41308  0.54349  1.0000
  H   H237      1.0  0.11278  0.17452  0.51680  1.0000
  H   H238      1.0  0.15868  0.17087  0.55529  1.0000
  N   N7        1.0  0.13747  0.13541  0.48523  1.0000
  C   C138      1.0  0.13386  0.17017  0.52116  1.0000
  H   H239      1.0  0.03054  0.40523  0.50925  1.0000
  H   H240      1.0  0.06644  0.27415  0.52259  1.0000
  H   H241      1.0  0.11421  0.39289  0.89559  1.0000
  C   C139      1.0  0.18144  0.15897  0.47367  1.0000
  H   H242      1.0  0.04629  0.22031  0.50483  1.0000
  N   N8        1.0  0.05517  0.41707  0.55967  1.0000
  C   C140      1.0  0.02518  0.41593  0.55991  1.0000
  C   C141      1.0  0.06562  0.40921  0.53373  1.0000
  C   C142      1.0  0.06510  0.39740  0.57892  1.0000
  H   H243      1.0  0.30443  0.02212  0.45551  1.0000
  C   C143      1.0  0.15013  0.38509  0.91603  1.0000
  H   H244      1.0  0.06977  0.39146  0.48370  1.0000
  C   C144      1.0  0.09565  0.39296  0.57969  1.0000
  C   C145      1.0  0.04891  0.41717  0.51005  1.0000
  C   C146      1.0  0.28686  0.45140  0.57953  1.0000
  H   H245      1.0  0.09995  0.15576  0.48181  1.0000
  C   C147      1.0  0.10311  0.37309  0.60019  1.0000
  H   H246      1.0  0.04279  0.43784  0.51036  1.0000
  H   H247      1.0  0.18341  0.98164  0.48110  1.0000
  H   H248      1.0  0.08626  0.41660  0.53107  1.0000
  H   H249      1.0  0.06706  0.38755  0.53234  1.0000
  H   H250      1.0  0.05554  0.37801  0.57544  1.0000
  H   H251      1.0  0.05936  0.40325  0.59856  1.0000
  H   H252      1.0  0.26644  0.12242  0.92960  1.0000
  H   H253      1.0  0.29897  0.38831  0.61383  1.0000
  H   H254      1.0  0.16874  0.05975  0.49523  1.0000
  H   H255      1.0  0.15107  0.05688  0.46527  1.0000
  H   H256      1.0  0.29521  0.18633  0.93817  1.0000
  C   C148      1.0  0.29802  0.34967  0.62853  1.0000
  H   H257      1.0  0.10645  0.41123  0.58424  1.0000
  H   H258      1.0  0.10305  0.38551  0.56118  1.0000
  H   H259      1.0  0.16021  0.98605  0.50678  1.0000
  C   C149      1.0  0.03734  0.41863  0.91295  1.0000
  H   H260      1.0  0.28129  0.37700  0.51948  1.0000
  H   H261      1.0  0.28891  0.23228  0.48188  1.0000
  C   C150      1.0  0.16712  0.97217  0.49195  1.0000
  H   H262      1.0  0.26702  0.34540  0.82382  1.0000
  S   S44       1.0  0.99963  0.29388  0.91823  1.0000
  H   H263      1.0  0.32607  0.30374  0.59098  1.0000
  H   H264      1.0  0.27660  0.35075  0.63358  1.0000
  H   H265      1.0  0.09842  0.38079  0.61944  1.0000
  H   H266      1.0  0.09220  0.35449  0.59728  1.0000
  H   H267      1.0  0.17454  0.01247  0.93599  1.0000
  C   C151      1.0  0.10809  0.13579  0.47937  1.0000
  H   H268      1.0  0.10409  0.21550  0.45822  1.0000
  S   S45       1.0  0.28141  0.07290  0.45724  1.0000
  H   H269      1.0  0.12414  0.25321  0.48032  1.0000
  C   C152      1.0  0.32744  0.23104  0.52078  1.0000
  H   H270      1.0  0.32220  0.29426  0.82264  1.0000
  C   C153      1.0  0.14138  0.14197  0.51303  1.0000
  N   N9        1.0  0.29401  0.37797  0.55904  1.0000
  C   C154      1.0  0.19360  0.17850  0.45510  1.0000
  H   H271      1.0  0.08754  0.44427  0.56562  1.0000
  H   H272      1.0  0.31235  0.41991  0.59050  1.0000
  H   H273      1.0  0.32784  0.28650  0.71261  1.0000
  H   H274      1.0  0.32119  0.01709  0.52475  1.0000
  H   H275      1.0  0.32882  0.14984  0.93337  1.0000
  H   H276      1.0  0.19402  0.16404  0.91475  1.0000
  H   H277      1.0  0.17243  0.04758  0.93809  1.0000
  H   H278      1.0  0.03283  0.21614  0.54961  1.0000
  H   H279      1.0  0.28972  0.34610  0.53213  1.0000
  Fe  Fe23      1.0  0.24267  0.05050  0.45754  1.0000
  H   H280      1.0  0.30855  0.25058  0.45948  1.0000
  H   H281      1.0  0.12697  0.42031  0.91354  1.0000
  C   C155      1.0  0.28874  0.36175  0.58254  1.0000
  H   H282      1.0  0.32277  0.25033  0.52915  1.0000
  C   C156      1.0  0.27984  0.36487  0.53699  1.0000
  H   H283      1.0  0.30284  0.32930  0.62299  1.0000
  H   H284      1.0  0.13136  0.27864  0.93730  1.0000
  H   H285      1.0  0.00443  0.42307  0.88654  1.0000
  Fe  Fe24      1.0  0.25663  0.10857  0.46447  1.0000
  H   H286      1.0  0.21562  0.34441  0.52021  1.0000
  H   H287      1.0  0.24132  0.97286  0.92471  1.0000
  H   H288      1.0  0.32631  0.36764  0.60376  1.0000
  H   H289      1.0  0.30920  0.21922  0.52395  1.0000
  H   H290      1.0  0.16106  0.39167  0.93330  1.0000
  C   C157      1.0  0.07383  0.24587  0.46322  1.0000
  C   C158      1.0  0.06552  0.40679  0.91398  1.0000
  H   H291      1.0  0.26474  0.40477  0.57419  1.0000
  H   H292      1.0  0.30100  0.03430  0.50188  1.0000
  H   H293      1.0  0.29244  0.00138  0.51111  1.0000
  C   C159      1.0  0.05610  0.23321  0.51902  1.0000
  C   C160      1.0  0.06553  0.44362  0.56732  1.0000
  N   N10       1.0  0.12697  0.27403  0.81328  1.0000
  C   C161      1.0  0.10083  0.28320  0.80231  1.0000
  C   C162      1.0  0.13962  0.25366  0.79618  1.0000
  C   C163      1.0  0.12100  0.26132  0.83863  1.0000
  C   C164      1.0  0.14595  0.29632  0.81799  1.0000
  C   C165      1.0  0.15190  0.31443  0.79517  1.0000
  C   C166      1.0  0.08528  0.30353  0.81845  1.0000
  C   C167      1.0  0.14495  0.24849  0.85239  1.0000
  C   C168      1.0  0.13477  0.25594  0.76704  1.0000
  C   C169      1.0  0.15226  0.23681  0.75230  1.0000
  C   C170      1.0  0.16989  0.33704  0.80327  1.0000
  C   C171      1.0  0.06048  0.31297  0.80438  1.0000
  C   C172      1.0  0.13600  0.23358  0.87607  1.0000
  H   H294      1.0  0.08742  0.26614  0.79924  1.0000
  H   H295      1.0  0.10359  0.29195  0.78319  1.0000
  H   H296      1.0  0.16154  0.25300  0.79941  1.0000
  H   H297      1.0  0.13231  0.23376  0.80116  1.0000
  H   H298      1.0  0.10523  0.24619  0.83625  1.0000
  H   H299      1.0  0.11304  0.27578  0.85247  1.0000
  H   H300      1.0  0.13858  0.30873  0.83373  1.0000
  H   H301      1.0  0.16557  0.28885  0.82463  1.0000
  H   H302      1.0  0.13349  0.32300  0.78714  1.0000
  H   H303      1.0  0.16260  0.30364  0.78011  1.0000
  H   H304      1.0  0.07842  0.29499  0.83671  1.0000
  H   H305      1.0  0.09768  0.32091  0.82269  1.0000
  H   H306      1.0  0.15915  0.26373  0.85869  1.0000
  H   H307      1.0  0.15561  0.23450  0.83995  1.0000
  H   H308      1.0  0.11371  0.25117  0.76254  1.0000
  H   H309      1.0  0.13888  0.27573  0.75973  1.0000
  H   H310      1.0  0.14774  0.21639  0.75789  1.0000
  H   H311      1.0  0.14859  0.23893  0.73153  1.0000
  H   H312      1.0  0.17364  0.24082  0.75600  1.0000
  H   H313      1.0  0.16012  0.34908  0.81816  1.0000
  H   H314      1.0  0.18909  0.32953  0.81076  1.0000
  H   H315      1.0  0.17418  0.34960  0.78656  1.0000
  H   H316      1.0  0.04957  0.32709  0.81657  1.0000
  H   H317      1.0  0.06600  0.32289  0.78635  1.0000
  H   H318      1.0  0.04700  0.29634  0.80010  1.0000
  H   H319      1.0  0.12318  0.21681  0.87066  1.0000
  H   H320      1.0  0.15373  0.22605  0.88636  1.0000
  C   C173      1.0  0.32718  0.30311  0.55004  1.0000
  H   H321      1.0  0.31383  0.33752  0.81743  1.0000
  H   H322      1.0  0.30987  0.35471  0.64572  1.0000
  H   H323      1.0  0.31128  0.30133  0.75602  1.0000
  H   H324      1.0  0.16979  0.10789  0.48819  1.0000
  H   H325      1.0  0.24684  0.33103  0.50977  1.0000
  H   H326      1.0  0.10744  0.26404  0.53614  1.0000
  H   H327      1.0  0.23777  0.36419  0.50133  1.0000
  H   H328      1.0  0.30697  0.22907  0.93218  1.0000
  H   H329      1.0  0.05126  0.41738  0.46882  1.0000
  H   H330      1.0  0.09967  0.37038  0.93393  1.0000
  C   C174      1.0  0.30538  0.24660  0.48004  1.0000
  H   H331      1.0  0.32166  0.18095  0.50356  1.0000
  H   H332      1.0  0.16247  0.25657  0.51162  1.0000
  C   C175      1.0  0.28385  0.32651  0.79025  1.0000
  C   C176      1.0  0.14929  0.10882  0.48032  1.0000
  C   C177      1.0  0.01153  0.42193  0.58574  1.0000
  H   H333      1.0  0.21511  0.18085  0.45942  1.0000
  C   C178      1.0  0.31056  0.00199  0.46044  1.0000
  H   H334      1.0  0.01659  0.42960  0.54585  1.0000
  H   H335      1.0  0.21239  0.22097  0.94241  1.0000
  C   C179      1.0  0.31304  0.33422  0.79644  1.0000
  C   C180      1.0  0.32655  0.00412  0.48568  1.0000
  H   H336      1.0  0.15058  0.96792  0.47851  1.0000
  N   N11       1.0  0.07983  0.40756  0.93930  1.0000
  H   H337      1.0  0.32497  0.20153  0.56235  1.0000
  H   H338      1.0  0.32643  0.24830  0.61699  1.0000
  H   H339      1.0  0.07765  0.20584  0.47911  1.0000
  C   C181      1.0  0.08231  0.21679  0.46153  1.0000
  H   H340      1.0  0.31856  0.29982  0.94230  1.0000
  H   H341      1.0  0.04427  0.30322  0.47829  1.0000
  C   C182      1.0  0.24389  0.96854  0.94473  1.0000
  H   H342      1.0  0.32076  0.40673  0.52231  1.0000
  H   H343      1.0  0.31739  0.43152  0.55887  1.0000
  C   C183      1.0  0.08735  0.43527  0.94633  1.0000
  H   H344      1.0  0.32547  0.16915  0.53549  1.0000
  C   C184      1.0  0.06156  0.30219  0.46528  1.0000
  C   C185      1.0  0.32186  0.27869  0.93886  1.0000
  C   C186      1.0  0.10484  0.39145  0.93642  1.0000
  H   H345      1.0  0.10330  0.29157  0.46592  1.0000
  C   C187      1.0  0.17763  0.02955  0.94871  1.0000
  H   H346      1.0  0.29945  0.96696  0.81689  1.0000
  H   H347      1.0  0.05562  0.37541  0.95203  1.0000
  Fe  Fe25      1.0  0.03249  0.59591  0.41112  1.0000
  S   S46       1.0  0.06161  0.61420  0.38255  1.0000
  Fe  Fe26      1.0  0.25033  0.64573  0.11487  1.0000
  S   S47       1.0  0.25055  0.60322  0.10411  1.0000
  S   S48       1.0  0.24239  0.66275  0.15470  1.0000
  Fe  Fe27      1.0  0.26345  0.66280  0.06003  1.0000
  S   S49       1.0  0.26444  0.62121  0.04650  1.0000
  S   S50       1.0  0.27430  0.68959  0.02714  1.0000
  Fe  Fe28      1.0  0.22691  0.61592  0.06940  1.0000
  S   S51       1.0  0.19236  0.59354  0.05036  1.0000
  Fe  Fe29      1.0  0.28794  0.61299  0.08180  1.0000
  H   H348      1.0  0.30447  0.74174  0.40884  1.0000
  S   S52       1.0  0.22491  0.65798  0.08116  1.0000
  S   S53       1.0  0.28883  0.65482  0.09450  1.0000
  Fe  Fe30      1.0  0.28311  0.62285  0.35914  1.0000
  S   S54       1.0  0.28586  0.65332  0.32835  1.0000
  S   S55       1.0  0.31507  0.61243  0.38858  1.0000
  Fe  Fe31      1.0  0.22124  0.61944  0.35409  1.0000
  S   S56       1.0  0.22000  0.64973  0.32323  1.0000
  S   S57       1.0  0.18722  0.59743  0.37329  1.0000
  Fe  Fe32      1.0  0.25566  0.62910  0.30675  1.0000
  S   S58       1.0  0.25954  0.61402  0.26570  1.0000
  Fe  Fe33      1.0  0.25014  0.67132  0.34727  1.0000
  S   S59       1.0  0.24740  0.71478  0.35519  1.0000
  S   S60       1.0  0.25527  0.59723  0.33667  1.0000
  S   S61       1.0  0.24890  0.64237  0.37892  1.0000
  Fe  Fe34      1.0  0.03093  0.59328  0.01814  1.0000
  S   S62       1.0  0.06777  0.61600  0.03266  1.0000
  S   S63       1.0  0.02248  0.58611  0.97644  1.0000
  S   S64       1.0  0.23814  0.80571  0.00411  1.0000
  H   H349      1.0  0.18948  0.70868  0.07488  1.0000
  H   H350      1.0  0.20522  0.63613  0.00143  1.0000
  C   C188      1.0  0.19425  0.72508  0.96237  1.0000
  H   H351      1.0  0.24248  0.64173  0.43709  1.0000
  C   C189      1.0  0.31903  0.60693  0.17747  1.0000
  C   C190      1.0  0.24928  0.72615  0.38697  1.0000
  C   C191      1.0  0.25430  0.70899  0.40702  1.0000
  H   H352      1.0  0.09065  0.75164  0.01367  1.0000
  C   C192      1.0  0.24856  0.76229  0.41743  1.0000
  C   C193      1.0  0.24621  0.75285  0.39228  1.0000
  H   H353      1.0  0.25671  0.68854  0.40333  1.0000
  H   H354      1.0  0.24643  0.78290  0.42138  1.0000
  H   H355      1.0  0.24230  0.76632  0.37687  1.0000
  C   C194      1.0  0.26198  0.72117  0.02118  1.0000
  C   C195      1.0  0.26456  0.73124  0.99649  1.0000
  C   C196      1.0  0.25669  0.75687  0.99090  1.0000
  C   C197      1.0  0.24649  0.77282  0.01013  1.0000
  C   C198      1.0  0.24339  0.76259  0.03478  1.0000
  C   C199      1.0  0.25095  0.73673  0.04029  1.0000
  H   H356      1.0  0.27279  0.71906  0.98168  1.0000
  H   H357      1.0  0.25880  0.76437  0.97182  1.0000
  H   H358      1.0  0.23542  0.77481  0.04974  1.0000
  H   H359      1.0  0.24893  0.72915  0.05941  1.0000
  C   C200      1.0  0.15751  0.59973  0.04658  1.0000
  C   C201      1.0  0.14529  0.62222  0.05612  1.0000
  C   C202      1.0  0.11790  0.62673  0.05179  1.0000
  C   C203      1.0  0.10208  0.60858  0.03834  1.0000
  C   C204      1.0  0.11422  0.58592  0.02909  1.0000
  C   C205      1.0  0.14172  0.58165  0.03306  1.0000
  H   H360      1.0  0.15698  0.63612  0.06679  1.0000
  H   H361      1.0  0.10883  0.64430  0.05913  1.0000
  H   H362      1.0  0.10251  0.57179  0.01862  1.0000
  H   H363      1.0  0.15084  0.56414  0.02561  1.0000
  C   C206      1.0  0.24416  0.64837  0.18559  1.0000
  C   C207      1.0  0.24336  0.66462  0.20725  1.0000
  C   C208      1.0  0.24726  0.65444  0.23199  1.0000
  C   C209      1.0  0.25204  0.62779  0.23537  1.0000
  C   C210      1.0  0.25196  0.61142  0.21381  1.0000
  C   C211      1.0  0.24794  0.62159  0.18911  1.0000
  H   H364      1.0  0.24031  0.68536  0.20482  1.0000
  H   H365      1.0  0.24718  0.66732  0.24833  1.0000
  H   H366      1.0  0.25539  0.59074  0.21618  1.0000
  H   H367      1.0  0.24805  0.60877  0.17275  1.0000
  C   C212      1.0  0.09662  0.60971  0.38073  1.0000
  C   C213      1.0  0.10985  0.59092  0.39526  1.0000
  C   C214      1.0  0.13756  0.58760  0.39278  1.0000
  C   C215      1.0  0.15247  0.60314  0.37596  1.0000
  C   C216      1.0  0.13931  0.62209  0.36154  1.0000
  C   C217      1.0  0.11154  0.62529  0.36388  1.0000
  H   H368      1.0  0.09867  0.57872  0.40821  1.0000
  H   H369      1.0  0.14748  0.57277  0.40394  1.0000
  H   H370      1.0  0.15044  0.63403  0.34840  1.0000
  H   H371      1.0  0.10147  0.63981  0.35248  1.0000
  H   H372      1.0  0.30418  0.96270  0.98108  1.0000
  C   C218      1.0  0.18140  0.69819  0.37674  1.0000
  C   C219      1.0  0.22478  0.63186  0.44526  1.0000
  H   H373      1.0  0.31840  0.70701  0.42788  1.0000
  H   H374      1.0  0.18891  0.95506  0.99916  1.0000
  H   H375      1.0  0.30354  0.65110  0.15228  1.0000
  C   C220      1.0  0.25655  0.71830  0.43205  1.0000
  C   C221      1.0  0.03476  0.71051  0.96042  1.0000
  H   H376      1.0  0.12064  0.73301  0.01729  1.0000
  Fe  Fe35      1.0  0.24041  0.82223  0.96407  1.0000
  H   H377      1.0  0.22982  0.65533  0.01690  1.0000
  C   C222      1.0  0.24247  0.63787  0.98184  1.0000
  C   C223      1.0  0.16123  0.67861  0.98653  1.0000
  C   C224      1.0  0.16963  0.70042  0.34998  1.0000
  C   C225      1.0  0.31345  0.76801  0.37863  1.0000
  H   H378      1.0  0.18681  0.64461  0.41003  1.0000
  C   C226      1.0  0.32132  0.74514  0.39570  1.0000
  Fe  Fe36      1.0  0.00736  0.54824  0.43760  1.0000
  H   H379      1.0  0.02340  0.72784  0.96699  1.0000
  H   H380      1.0  0.19952  0.68600  0.37529  1.0000
  C   C227      1.0  0.31389  0.81525  0.00479  1.0000
  H   H381      1.0  0.16876  0.72778  0.99519  1.0000
  H   H382      1.0  0.32673  0.93608  0.98659  1.0000
  H   H383      1.0  0.09465  0.48262  0.97179  1.0000
  H   H384      1.0  0.00805  0.71652  0.01984  1.0000
  C   C228      1.0  0.01744  0.68300  0.99463  1.0000
  H   H385      1.0  0.16426  0.68086  0.34244  1.0000
  H   H386      1.0  0.15172  0.71306  0.35012  1.0000
  C   C229      1.0  0.99800  0.70345  0.00599  1.0000
  H   H387      1.0  0.02252  0.66870  0.00992  1.0000
  H   H388      1.0  0.31670  0.80320  0.02208  1.0000
  N   N12       1.0  0.16610  0.59294  0.28089  1.0000
  C   C230      1.0  0.19491  0.58606  0.28517  1.0000
  C   C231      1.0  0.16272  0.62211  0.28348  1.0000
  C   C232      1.0  0.15027  0.58028  0.30201  1.0000
  C   C233      1.0  0.15566  0.58350  0.25541  1.0000
  C   C234      1.0  0.17587  0.58204  0.23300  1.0000
  C   C235      1.0  0.20088  0.55644  0.28755  1.0000
  C   C236      1.0  0.12028  0.58730  0.30313  1.0000
  C   C237      1.0  0.17828  0.63938  0.26445  1.0000
  C   C238      1.0  0.17372  0.66837  0.26979  1.0000
  C   C239      1.0  0.16172  0.57806  0.20751  1.0000
  C   C240      1.0  0.22987  0.55020  0.28140  1.0000
  C   C241      1.0  0.10536  0.56938  0.32148  1.0000
  H   H389      1.0  0.20242  0.59549  0.30294  1.0000
  H   H390      1.0  0.20760  0.59414  0.26992  1.0000
  H   H391      1.0  0.14154  0.62765  0.28087  1.0000
  H   H392      1.0  0.16823  0.62836  0.30315  1.0000
  H   H393      1.0  0.15907  0.58522  0.32097  1.0000
  H   H394      1.0  0.15134  0.55866  0.30051  1.0000
  H   H395      1.0  0.14716  0.56349  0.25710  1.0000
  H   H396      1.0  0.13861  0.59583  0.24920  1.0000
  H   H397      1.0  0.18958  0.56533  0.23570  1.0000
  H   H398      1.0  0.18836  0.59972  0.23135  1.0000
  H   H399      1.0  0.19691  0.54999  0.30741  1.0000
  H   H400      1.0  0.18809  0.54467  0.27469  1.0000
  H   H401      1.0  0.11079  0.58560  0.28410  1.0000
  H   H402      1.0  0.11763  0.60755  0.31016  1.0000
  H   H403      1.0  0.19998  0.63582  0.26558  1.0000
  H   H404      1.0  0.17119  0.63583  0.24476  1.0000
  H   H405      1.0  0.15240  0.67341  0.26728  1.0000
  H   H406      1.0  0.17998  0.67356  0.28943  1.0000
  H   H407      1.0  0.18559  0.68021  0.25622  1.0000
  H   H408      1.0  0.14864  0.59495  0.20320  1.0000
  H   H409      1.0  0.17668  0.57642  0.19204  1.0000
  H   H410      1.0  0.14965  0.55990  0.20778  1.0000
  H   H411      1.0  0.23355  0.52903  0.28403  1.0000
  H   H412      1.0  0.23449  0.55542  0.26136  1.0000
  H   H413      1.0  0.24343  0.56117  0.29422  1.0000
  H   H414      1.0  0.08450  0.57615  0.32356  1.0000
  H   H415      1.0  0.10513  0.54903  0.31420  1.0000
  H   H416      1.0  0.11482  0.56967  0.34062  1.0000
  N   N13       1.0  0.04256  0.69364  0.98276  1.0000
  C   C242      1.0  0.05918  0.67052  0.97473  1.0000
  C   C243      1.0  0.05687  0.70957  0.00291  1.0000
  C   C244      1.0  0.25080  0.95783  0.99630  1.0000
  C   C245      1.0  0.19267  0.66167  0.42200  1.0000
  H   H417      1.0  0.18944  0.93974  0.05581  1.0000
  C   C246      1.0  0.18980  0.93536  0.03509  1.0000
  C   C247      1.0  0.25374  0.74494  0.43737  1.0000
  C   C248      1.0  0.08765  0.71106  0.00136  1.0000
  C   C249      1.0  0.09869  0.73221  0.01900  1.0000
  Fe  Fe37      1.0  0.00015  0.55008  0.98967  1.0000
  C   C250      1.0  0.32271  0.69017  0.41529  1.0000
  S   S65       1.0  0.32676  0.58937  0.08383  1.0000
  H   H418      1.0  0.06387  0.65825  0.99171  1.0000
  H   H419      1.0  0.12591  0.61986  0.98375  1.0000
  H   H420      1.0  0.04898  0.72987  0.00326  1.0000
  C   C251      1.0  0.16358  0.73088  0.43321  1.0000
  C   C252      1.0  0.18801  0.68714  0.02588  1.0000
  H   H421      1.0  0.28897  0.61091  0.14724  1.0000
  H   H422      1.0  0.29464  0.65180  0.44216  1.0000
  H   H423      1.0  0.02893  0.64226  0.96175  1.0000
  H   H424      1.0  0.09623  0.69212  0.00751  1.0000
  H   H425      1.0  0.23523  0.93539  0.42771  1.0000
  C   C253      1.0  0.31307  0.65393  0.17122  1.0000
  C   C254      1.0  0.18799  0.71817  0.99060  1.0000
  H   H426      1.0  0.19377  0.76088  0.42799  1.0000
  H   H427      1.0  0.17356  0.92147  0.03034  1.0000
  H   H428      1.0  0.00690  0.48191  0.01177  1.0000
  H   H429      1.0  0.04506  0.67509  0.43874  1.0000
  H   H430      1.0  0.05285  0.70154  0.02229  1.0000
  H   H431      1.0  0.14665  0.72774  0.44637  1.0000
  H   H432      1.0  0.30748  0.78488  0.39062  1.0000
  C   C255      1.0  0.04675  0.65234  0.95424  1.0000
  C   C256      1.0  0.22095  0.65073  0.99808  1.0000
  H   H433      1.0  0.25364  0.95352  0.01628  1.0000
  H   H434      1.0  0.20909  0.92593  0.03050  1.0000
  H   H435      1.0  0.30630  0.77507  0.96984  1.0000
  C   C257      1.0  0.18936  0.75402  0.95709  1.0000
  H   H436      1.0  0.20094  0.71234  0.42331  1.0000
  C   C258      1.0  0.16117  0.68589  0.39551  1.0000
  H   H437      1.0  0.14267  0.69777  0.39520  1.0000
  H   H438      1.0  0.18741  0.66647  0.03212  1.0000
  H   H439      1.0  0.21884  0.61541  0.43262  1.0000
  C   C259      1.0  0.17012  0.69971  0.06955  1.0000
  H   H440      1.0  0.14605  0.69238  0.03664  1.0000
  C   C260      1.0  0.18231  0.70686  0.43333  1.0000
  H   H441      1.0  0.32407  0.85000  0.02685  1.0000
  H   H442      1.0  0.25989  0.65108  0.97992  1.0000
  H   H443      1.0  0.11383  0.64989  0.99689  1.0000
  H   H444      1.0  0.31218  0.76280  0.01182  1.0000
  H   H445      1.0  0.06941  0.73577  0.95500  1.0000
  H   H446      1.0  0.16974  0.67914  0.07603  1.0000
  H   H447      1.0  0.28419  0.56425  0.13738  1.0000
  H   H448      1.0  0.31005  0.55603  0.15969  1.0000
  H   H449      1.0  0.13156  0.68796  0.43770  1.0000
  C   C261      1.0  0.21074  0.67620  0.98539  1.0000
  H   H450      1.0  0.06000  0.49018  0.97649  1.0000
  H   H451      1.0  0.09350  0.72793  0.03914  1.0000
  H   H452      1.0  0.29634  0.76258  0.36627  1.0000
  H   H453      1.0  0.31602  0.62434  0.22799  1.0000
  H   H454      1.0  0.15561  0.73492  0.41392  1.0000
  C   C262      1.0  0.30130  0.70186  0.16723  1.0000
  H   H455      1.0  0.29163  0.69844  0.14846  1.0000
  C   C263      1.0  0.23820  0.94279  0.44682  1.0000
  H   H456      1.0  0.14436  0.96135  0.01482  1.0000
  H   H457      1.0  0.28900  0.84284  0.02501  1.0000
  H   H458      1.0  0.22826  0.68950  0.98605  1.0000
  S   S66       1.0  0.00095  0.51301  0.96496  1.0000
  C   C264      1.0  0.32547  0.95734  0.98274  1.0000
  C   C265      1.0  0.18693  0.96041  0.01960  1.0000
  H   H459      1.0  0.07866  0.67675  0.96709  1.0000
  C   C266      1.0  0.16567  0.70135  0.04082  1.0000
  C   C267      1.0  0.20189  0.65119  0.44829  1.0000
  H   H460      1.0  0.15406  0.71037  0.07963  1.0000
  C   C268      1.0  0.14789  0.67339  0.43871  1.0000
  H   H461      1.0  0.16977  0.63798  0.97700  1.0000
  H   H462      1.0  0.30303  0.60758  0.19198  1.0000
  H   H463      1.0  0.09767  0.65384  0.45115  1.0000
  S   S67       1.0  0.00612  0.62371  0.43271  1.0000
  H   H464      1.0  0.14395  0.68928  0.99450  1.0000
  H   H465      1.0  0.20695  0.67218  0.96484  1.0000
  H   H466      1.0  0.18731  0.71809  0.38285  1.0000
  H   H467      1.0  0.20332  0.72829  0.00243  1.0000
  H   H468      1.0  0.30319  0.68347  0.40766  1.0000
  S   S68       1.0  0.01053  0.55609  0.03121  1.0000
  S   S69       1.0  0.04376  0.57272  0.44575  1.0000
  H   H469      1.0  0.29657  0.65261  0.18511  1.0000
  N   N14       1.0  0.17096  0.68196  0.42242  1.0000
  C   C269      1.0  0.30548  0.59768  0.15251  1.0000
  H   H470      1.0  0.21069  0.66971  0.41266  1.0000
  H   H471      1.0  0.12527  0.64838  0.41244  1.0000
  S   S70       1.0  0.99781  0.56970  0.40096  1.0000
  C   C270      1.0  0.24873  0.93711  0.97864  1.0000
  C   C271      1.0  0.12802  0.64143  0.98302  1.0000
  H   H472      1.0  0.09484  0.71518  0.98189  1.0000
  N   N15       1.0  0.18687  0.68943  0.99719  1.0000
  H   H473      1.0  0.18461  0.70923  0.33704  1.0000
  H   H474      1.0  0.15999  0.64277  0.00980  1.0000
  H   H475      1.0  0.15532  0.66685  0.38703  1.0000
  H   H476      1.0  0.16813  0.75905  0.96010  1.0000
  H   H477      1.0  0.31967  0.59709  0.13651  1.0000
  H   H478      1.0  0.28609  0.70010  0.18245  1.0000
  H   H479      1.0  0.29625  0.80831  0.99409  1.0000
  H   H480      1.0  0.12302  0.64807  0.96348  1.0000
  H   H481      1.0  0.20749  0.69479  0.03287  1.0000
  H   H482      1.0  0.16001  0.68205  0.96570  1.0000
  C   C272      1.0  0.15647  0.64904  0.98996  1.0000
  H   H483      1.0  0.24917  0.61955  0.99109  1.0000
  H   H484      1.0  0.16499  0.72240  0.03612  1.0000
  C   C273      1.0  0.29399  0.57024  0.15546  1.0000
  H   H485      1.0  0.27900  0.56973  0.17095  1.0000
  H   H486      1.0  0.24994  0.91710  0.98507  1.0000
  H   H487      1.0  0.30778  0.71362  0.37131  1.0000
  C   C274      1.0  0.30793  0.84290  0.01413  1.0000
  H   H488      1.0  0.32778  0.68306  0.96158  1.0000
  H   H489      1.0  0.20189  0.76639  0.96972  1.0000
  H   H490      1.0  0.32217  0.66781  0.37064  1.0000
  H   H491      1.0  0.26054  0.70478  0.44740  1.0000
  H   H492      1.0  0.23460  0.63290  0.96266  1.0000
  H   H493      1.0  0.00563  0.67199  0.98042  1.0000
  H   H494      1.0  0.30935  0.72203  0.16752  1.0000
  H   H495      1.0  0.16416  0.77191  0.44380  1.0000
  C   C275      1.0  0.13503  0.64688  0.43132  1.0000
  H   H496      1.0  0.30574  0.85657  0.99789  1.0000
  C   C276      1.0  0.17831  0.75540  0.44207  1.0000
  H   H497      1.0  0.07321  0.61977  0.96278  1.0000
  H   H498      1.0  0.14984  0.63092  0.43052  1.0000
  H   H499      1.0  0.29751  0.94029  0.44298  1.0000
  C   C277      1.0  0.32922  0.64137  0.22485  1.0000
  C   C278      1.0  0.07432  0.47983  0.96395  1.0000
  C   C279      1.0  0.11363  0.63896  0.45043  1.0000
  S   S71       1.0  0.00768  0.50351  0.43588  1.0000
  C   C280      1.0  0.32378  0.68232  0.17152  1.0000
  H   H500      1.0  0.14835  0.86479  0.45145  1.0000
  H   H501      1.0  0.10451  0.62016  0.44444  1.0000
  H   H502      1.0  0.31658  0.65895  0.22269  1.0000
  C   C281      1.0  0.32453  0.77988  0.95904  1.0000
  C   C282      1.0  0.00139  0.46898  0.99633  1.0000
  C   C283      1.0  0.32708  0.72026  0.37969  1.0000
  H   H503      1.0  0.21544  0.72104  0.95798  1.0000
  H   H504      1.0  0.32187  0.72338  0.03664  1.0000
  H   H505      1.0  0.32413  0.73724  0.99199  1.0000
  C   C284      1.0  0.99718  0.47919  0.97195  1.0000
  C   C285      1.0  0.24534  0.94235  0.95268  1.0000
  C   C286      1.0  0.31189  0.66050  0.45238  1.0000
  H   H506      1.0  0.31203  0.72830  0.91661  1.0000
  C   C287      1.0  0.08378  0.81543  0.75633  1.0000
  S   S72       1.0  0.24125  0.79707  0.92924  1.0000
  H   H507      1.0  0.04315  0.72149  0.54363  1.0000
  S   S73       1.0  0.24221  0.85053  0.89654  1.0000
  H   H508      1.0  0.01717  0.74766  0.52119  1.0000
  Fe  Fe38      1.0  0.21062  0.82473  0.91341  1.0000
  S   S74       1.0  0.17818  0.80641  0.88824  1.0000
  Fe  Fe39      1.0  0.27268  0.82468  0.91496  1.0000
  S   S75       1.0  0.30712  0.80628  0.89284  1.0000
  Fe  Fe40      1.0  0.02489  0.79272  0.57645  1.0000
  S   S76       1.0  0.05734  0.80850  0.54975  1.0000
  S   S77       1.0  0.02361  0.75276  0.59416  1.0000
  Fe  Fe41      1.0  0.01779  0.79597  0.86926  1.0000
  S   S78       1.0  0.05139  0.81797  0.88955  1.0000
  S   S79       1.0  0.02060  0.76733  0.83702  1.0000
  Fe  Fe42      1.0  0.21855  0.82304  0.52664  1.0000
  S   S80       1.0  0.21717  0.82295  0.48386  1.0000
  S   S81       1.0  0.18425  0.81686  0.55491  1.0000
  Fe  Fe43      1.0  0.28049  0.82741  0.52726  1.0000
  S   S82       1.0  0.28301  0.82827  0.48449  1.0000
  H   H509      1.0  0.03631  0.69893  0.50539  1.0000
  Fe  Fe44      1.0  0.24760  0.85561  0.48654  1.0000
  C   C288      1.0  0.01204  0.64456  0.51607  1.0000
  Fe  Fe45      1.0  0.25248  0.79605  0.48542  1.0000
  H   H510      1.0  0.28588  0.91342  0.89071  1.0000
  S   S83       1.0  0.24721  0.85698  0.52931  1.0000
  S   S84       1.0  0.25184  0.79396  0.52812  1.0000
  H   H511      1.0  0.02080  0.69985  0.94770  1.0000
  C   C289      1.0  0.05530  0.75032  0.50067  1.0000
  H   H512      1.0  0.15404  0.76471  0.52065  1.0000
  H   H513      1.0  0.31607  0.73692  0.49778  1.0000
  C   C290      1.0  0.09793  0.72757  0.50447  1.0000
  C   C291      1.0  0.09268  0.80978  0.55143  1.0000
  C   C292      1.0  0.10700  0.81833  0.52994  1.0000
  C   C293      1.0  0.13502  0.81997  0.53036  1.0000
  C   C294      1.0  0.14907  0.81364  0.55253  1.0000
  C   C295      1.0  0.13474  0.80517  0.57400  1.0000
  C   C296      1.0  0.10676  0.80301  0.57342  1.0000
  H   H514      1.0  0.09632  0.82366  0.51282  1.0000
  H   H515      1.0  0.14572  0.82633  0.51367  1.0000
  H   H516      1.0  0.14538  0.80027  0.59127  1.0000
  H   H517      1.0  0.09609  0.79651  0.59013  1.0000
  H   H518      1.0  0.06160  0.75434  0.48076  1.0000
  H   H519      1.0  0.19001  0.89330  0.50234  1.0000
  H   H520      1.0  0.21280  0.90995  0.59568  1.0000
  C   C297      1.0  0.10518  0.81372  0.79836  1.0000
  H   H521      1.0  0.23485  0.89957  0.57037  1.0000
  C   C298      1.0  0.25418  0.90338  0.85066  1.0000
  C   C299      1.0  0.14291  0.80953  0.88934  1.0000
  C   C300      1.0  0.13029  0.82754  0.90526  1.0000
  C   C301      1.0  0.10231  0.82975  0.90503  1.0000
  C   C302      1.0  0.08655  0.81389  0.88912  1.0000
  C   C303      1.0  0.09913  0.79573  0.87330  1.0000
  C   C304      1.0  0.12715  0.79369  0.87334  1.0000
  H   H522      1.0  0.14207  0.83992  0.91759  1.0000
  H   H523      1.0  0.09281  0.84389  0.91731  1.0000
  H   H524      1.0  0.08730  0.78331  0.86106  1.0000
  H   H525      1.0  0.13669  0.77968  0.86096  1.0000
  H   H526      1.0  0.30439  0.91914  0.93518  1.0000
  H   H527      1.0  0.31071  0.84698  0.82825  1.0000
  C   C305      1.0  0.06421  0.49297  0.56394  1.0000
  H   H528      1.0  0.06587  0.78362  0.81144  1.0000
  H   H529      1.0  0.09175  0.89316  0.57381  1.0000
  H   H530      1.0  0.07899  0.76265  0.75777  1.0000
  H   H531      1.0  0.10028  0.76040  0.78527  1.0000
  H   H532      1.0  0.03422  0.75221  0.92634  1.0000
  H   H533      1.0  0.32284  0.87423  0.81031  1.0000
  H   H534      1.0  0.08624  0.49396  0.56522  1.0000
  C   C306      1.0  0.12009  0.84020  0.79727  1.0000
  H   H535      1.0  0.06395  0.46683  0.53235  1.0000
  C   C307      1.0  0.31167  0.92366  0.84737  1.0000
  C   C308      1.0  0.14480  0.83972  0.81431  1.0000
  H   H536      1.0  0.10656  0.76914  0.50956  1.0000
  H   H537      1.0  0.22313  0.87633  0.59345  1.0000
  S   S85       1.0  0.02919  0.61712  0.50418  1.0000
  H   H538      1.0  0.11140  0.75044  0.53813  1.0000
  C   C309      1.0  0.99732  0.76524  0.74422  1.0000
  H   H539      1.0  0.06562  0.73500  0.80809  1.0000
  C   C310      1.0  0.06597  0.78667  0.79050  1.0000
  C   C311      1.0  0.05809  0.70036  0.46962  1.0000
  H   H540      1.0  0.13910  0.83676  0.83456  1.0000
  S   S86       1.0  0.31437  0.82692  0.55645  1.0000
  H   H541      1.0  0.18143  0.87463  0.46056  1.0000
  C   C312      1.0  0.06634  0.63120  0.94603  1.0000
  N   N16       1.0  0.07887  0.81250  0.78451  1.0000
  H   H542      1.0  0.21229  0.90398  0.84069  1.0000
  S   S87       1.0  0.00636  0.75896  0.66694  1.0000
  C   C313      1.0  0.11364  0.75022  0.51713  1.0000
  H   H543      1.0  0.13750  0.93217  0.50734  1.0000
  C   C314      1.0  0.07557  0.70576  0.58263  1.0000
  C   C315      1.0  0.08994  0.88834  0.55325  1.0000
  Fe  Fe46      1.0  0.99896  0.77177  0.62542  1.0000
  S   S88       1.0  0.20783  0.84859  0.94939  1.0000
  H   H544      1.0  0.28088  0.88338  0.82548  1.0000
  H   H545      1.0  0.06963  0.89364  0.54674  1.0000
  H   H546      1.0  0.08038  0.79668  0.70610  1.0000
  H   H547      1.0  0.32805  0.86273  0.86744  1.0000
  H   H548      1.0  0.14091  0.87499  0.54855  1.0000
  C   C316      1.0  0.17042  0.88779  0.51067  1.0000
  H   H549      1.0  0.05721  0.50956  0.55209  1.0000
  C   C317      1.0  0.02444  0.75022  0.50143  1.0000
  H   H550      1.0  0.24891  0.90429  0.87115  1.0000
  C   C318      1.0  0.08062  0.70421  0.55398  1.0000
  H   H551      1.0  0.31854  0.95686  0.78961  1.0000
  H   H552      1.0  0.06374  0.74346  0.90911  1.0000
  C   C319      1.0  0.05722  0.70180  0.49915  1.0000
  S   S89       1.0  0.27417  0.84806  0.95116  1.0000
  H   H553      1.0  0.04463  0.78661  0.78469  1.0000
  C   C320      1.0  0.32753  0.87790  0.85233  1.0000
  C   C321      1.0  0.27934  0.88644  0.84632  1.0000
  H   H554      1.0  0.12667  0.84439  0.77753  1.0000
  H   H555      1.0  0.15850  0.82383  0.80846  1.0000
  H   H556      1.0  0.04444  0.82798  0.74236  1.0000
  H   H557      1.0  0.10749  0.85657  0.80388  1.0000
  H   H558      1.0  0.01602  0.73432  0.48954  1.0000
  H   H559      1.0  0.08119  0.72529  0.59013  1.0000
  H   H560      1.0  0.29400  0.75839  0.92030  1.0000
  N   N17       1.0  0.16225  0.90712  0.53094  1.0000
  H   H561      1.0  0.04881  0.79324  0.74225  1.0000
  C   C322      1.0  0.11063  0.90325  0.53769  1.0000
  H   H562      1.0  0.07634  0.83184  0.70609  1.0000
  C   C323      1.0  0.06045  0.83401  0.79301  1.0000
  C   C324      1.0  0.05628  0.83656  0.82219  1.0000
  H   H563      1.0  0.10728  0.89870  0.51737  1.0000
  S   S90       1.0  0.24353  0.91716  0.92931  1.0000
  C   C325      1.0  0.31402  0.94373  0.45662  1.0000
  C   C326      1.0  0.04290  0.67659  0.45975  1.0000
  H   H564      1.0  0.03767  0.64860  0.54879  1.0000
  H   H565      1.0  0.99950  0.75244  0.76044  1.0000
  H   H566      1.0  0.11912  0.79893  0.79057  1.0000
  C   C327      1.0  0.30633  0.74372  0.93041  1.0000
  H   H567      1.0  0.17708  0.88153  0.57833  1.0000
  H   H568      1.0  0.06718  0.85322  0.78556  1.0000
  H   H569      1.0  0.04028  0.83109  0.78465  1.0000
  H   H570      1.0  0.04709  0.81863  0.82995  1.0000
  H   H571      1.0  0.05433  0.70193  0.58693  1.0000
  H   H572      1.0  0.10229  0.70677  0.55122  1.0000
  H   H573      1.0  0.04685  0.87808  0.82211  1.0000
  S   S91       1.0  0.25727  0.75515  0.46924  1.0000
  H   H574      1.0  0.09943  0.80159  0.74988  1.0000
  N   N18       1.0  0.06875  0.72620  0.51090  1.0000
  H   H575      1.0  0.01935  0.77894  0.47117  1.0000
  C   C328      1.0  0.13931  0.89660  0.54660  1.0000
  C   C329      1.0  0.17735  0.94703  0.50414  1.0000
  H   H576      1.0  0.03459  0.86032  0.84927  1.0000
  H   H577      1.0  0.04859  0.81083  0.69880  1.0000
  H   H578      1.0  0.06184  0.76780  0.51162  1.0000
  C   C330      1.0  0.05898  0.81209  0.73893  1.0000
  C   C331      1.0  0.06668  0.81296  0.71080  1.0000
  C   C332      1.0  0.21753  0.89387  0.58224  1.0000
  H   H579      1.0  0.18194  0.92793  0.56164  1.0000
  H   H580      1.0  0.10064  0.73010  0.48360  1.0000
  H   H581      1.0  0.09191  0.83514  0.75215  1.0000
  C   C333      1.0  0.00777  0.67882  0.54824  1.0000
  H   H582      1.0  0.20387  0.91629  0.53756  1.0000
  H   H583      1.0  0.04108  0.66334  0.93690  1.0000
  H   H584      1.0  0.25713  0.92353  0.84356  1.0000
  H   H585      1.0  0.14945  0.94703  0.53545  1.0000
  H   H586      1.0  0.03338  0.46783  0.55050  1.0000
  H   H587      1.0  0.19871  0.87057  0.55356  1.0000
  C   C334      1.0  0.06482  0.73730  0.78706  1.0000
  C   C335      1.0  0.07934  0.76212  0.77889  1.0000
  H   H588      1.0  0.17388  0.86822  0.51919  1.0000
  H   H589      1.0  0.04369  0.73788  0.78085  1.0000
  H   H590      1.0  0.05067  0.65837  0.46842  1.0000
  H   H591      1.0  0.23356  0.89180  0.81577  1.0000
  H   H592      1.0  0.01827  0.85675  0.81886  1.0000
  H   H593      1.0  0.30100  0.46640  0.58667  1.0000
  H   H594      1.0  0.05558  0.49509  0.58330  1.0000
  C   C336      1.0  0.18571  0.91116  0.54860  1.0000
  Fe  Fe47      1.0  0.24172  0.87269  0.93381  1.0000
  H   H595      1.0  0.05638  0.61766  0.93249  1.0000
  H   H596      1.0  0.29729  0.93829  0.85480  1.0000
  H   H597      1.0  0.07094  0.70558  0.93701  1.0000
  C   C337      1.0  0.31333  0.92664  0.81810  1.0000
  C   C338      1.0  0.24620  0.93496  0.49153  1.0000
  H   H598      1.0  0.07523  0.84003  0.83247  1.0000
  H   H599      1.0  0.19442  0.75852  0.93698  1.0000
  H   H600      1.0  0.15554  0.85859  0.81286  1.0000
  H   H601      1.0  0.10270  0.80827  0.81875  1.0000
  C   C339      1.0  0.30150  0.89893  0.88587  1.0000
  C   C340      1.0  0.19348  0.88751  0.56550  1.0000
  H   H602      1.0  0.14030  0.90438  0.56644  1.0000
  C   C341      1.0  0.15524  0.93341  0.51984  1.0000
  H   H603      1.0  0.06786  0.68420  0.50615  1.0000
  H   H604      1.0  0.18467  0.93426  0.48859  1.0000
  H   H605      1.0  0.10671  0.92439  0.54051  1.0000
  H   H606      1.0  0.00810  0.73568  0.71671  1.0000
  C   C342      1.0  0.99942  0.47935  0.45883  1.0000
  H   H607      1.0  0.06860  0.74457  0.54824  1.0000
  C   C343      1.0  0.14333  0.74826  0.51137  1.0000
  C   C344      1.0  0.24240  0.92508  0.46693  1.0000
  H   H608      1.0  0.09244  0.86700  0.55074  1.0000
  H   H609      1.0  0.18186  0.71377  0.94883  1.0000
  H   H610      1.0  0.07502  0.68432  0.54759  1.0000
  H   H611      1.0  0.10794  0.70878  0.50902  1.0000
  H   H612      1.0  0.08770  0.69083  0.59260  1.0000
  H   H613      1.0  0.24964  0.92166  0.50717  1.0000
  H   H614      1.0  0.27530  0.86666  0.85422  1.0000
  H   H615      1.0  0.19430  0.95248  0.51658  1.0000
  C   C345      1.0  0.06445  0.72522  0.53934  1.0000
  H   H616      1.0  0.29451  0.87992  0.89372  1.0000
  H   H617      1.0  0.22610  0.87172  0.84321  1.0000
  H   H618      1.0  0.29429  0.73470  0.94568  1.0000
  H   H619      1.0  0.14687  0.74939  0.49056  1.0000
  H   H620      1.0  0.07439  0.72003  0.77820  1.0000
  H   H621      1.0  0.02033  0.79255  0.50304  1.0000
  H   H622      1.0  0.07892  0.69861  0.46293  1.0000
  C   C346      1.0  0.02084  0.65662  0.53863  1.0000
  H   H623      1.0  0.16600  0.84634  0.47509  1.0000
  H   H624      1.0  0.04908  0.71779  0.46066  1.0000
  H   H625      1.0  0.15161  0.72974  0.51891  1.0000
  H   H626      1.0  0.32013  0.64556  0.46550  1.0000
  C   C347      1.0  0.15054  0.88351  0.48849  1.0000
  H   H627      1.0  0.14484  0.90210  0.47929  1.0000
  C   C348      1.0  0.23014  0.89194  0.83666  1.0000
  H   H628      1.0  0.15378  0.67274  0.45915  1.0000
  H   H629      1.0  0.23033  0.62380  0.46415  1.0000
  H   H630      1.0  0.29513  0.91948  0.80845  1.0000
  H   H631      1.0  0.30503  0.67745  0.46383  1.0000
  H   H632      1.0  0.18552  0.64081  0.45815  1.0000
  H   H633      1.0  0.08371  0.64001  0.93627  1.0000
  H   H634      1.0  0.07308  0.48869  0.94468  1.0000
  H   H635      1.0  0.02141  0.67838  0.46422  1.0000
  H   H636      1.0  0.13257  0.87332  0.49552  1.0000
  C   C349      1.0  0.03786  0.85937  0.82836  1.0000
  C   C350      1.0  0.31685  0.95526  0.81065  1.0000
  N   N19       1.0  0.30502  0.89685  0.85732  1.0000
  C   C351      1.0  0.16244  0.86628  0.46769  1.0000
  H   H637      1.0  0.01427  0.68767  0.56587  1.0000
  Fe  Fe48      1.0  0.01554  0.59922  0.46677  1.0000
  H   H638      1.0  0.03529  0.72210  0.90822  1.0000
  S   S92       1.0  0.00235  0.81224  0.60860  1.0000
  C   C352      1.0  0.04698  0.73558  0.92052  1.0000
  H   H639      1.0  0.12231  0.63639  0.46973  1.0000
  C   C353      1.0  0.01325  0.77588  0.49126  1.0000
  H   H640      1.0  0.30549  0.95141  0.47459  1.0000
  H   H641      1.0  0.00569  0.64775  0.87892  1.0000
  H   H642      1.0  0.32298  0.73670  0.46418  1.0000
  H   H643      1.0  0.20900  0.66722  0.46076  1.0000
  S   S93       1.0  0.24263  0.89100  0.46018  1.0000
  H   H644      1.0  0.31838  0.79619  0.94631  1.0000
  C   C354      1.0  0.00217  0.75579  0.71933  1.0000
  C   C355      1.0  0.05771  0.72132  0.94393  1.0000
  C   C356      1.0  0.32127  0.90624  0.92993  1.0000
  H   H645      1.0  0.31078  0.90409  0.47059  1.0000
  C   C357      1.0  0.24553  0.96215  0.49590  1.0000
  C   C358      1.0  0.99939  0.77201  0.69784  1.0000
  H   H646      1.0  0.31666  0.88596  0.93583  1.0000
  C   C359      1.0  0.32649  0.90743  0.90129  1.0000
  C   C360      1.0  0.32632  0.91722  0.46269  1.0000
  H   H647      1.0  0.18797  0.75227  0.46088  1.0000
  H   H648      1.0  0.18840  0.70400  0.45350  1.0000
  C   C361      1.0  0.05536  0.46727  0.55178  1.0000
  S   S94       1.0  0.99728  0.70065  0.86270  1.0000
  C   C362      1.0  0.32672  0.86193  0.82717  1.0000
  H   H649      1.0  0.51211  0.19432  0.03339  1.0000
  Fe  Fe49      1.0  0.46064  0.11714  0.08868  1.0000
  S   S95       1.0  0.42139  0.09426  0.08500  1.0000
  S   S96       1.0  0.46070  0.15342  0.11253  1.0000
  Fe  Fe50      1.0  0.49065  0.12301  0.32327  1.0000
  S   S97       1.0  0.49312  0.09413  0.35586  1.0000
  S   S98       1.0  0.49058  0.10471  0.28327  1.0000
  Fe  Fe51      1.0  0.48632  0.16879  0.35998  1.0000
  S   S99       1.0  0.48865  0.14317  0.39420  1.0000
  S   S100      1.0  0.48155  0.21267  0.36349  1.0000
  Fe  Fe52      1.0  0.45985  0.11699  0.37369  1.0000
  S   S101      1.0  0.42805  0.10080  0.40051  1.0000
  S   S102      1.0  0.45539  0.14407  0.34024  1.0000
  C   C363      1.0  0.39259  0.10440  0.06770  1.0000
  C   C364      1.0  0.39354  0.12419  0.04937  1.0000
  C   C365      1.0  0.37056  0.13068  0.03519  1.0000
  H   H650      1.0  0.63086  0.20989  0.43121  1.0000
  C   C366      1.0  0.34518  0.09820  0.05788  1.0000
  C   C367      1.0  0.36820  0.09159  0.07193  1.0000
  H   H651      1.0  0.41207  0.13430  0.04594  1.0000
  H   H652      1.0  0.37167  0.14585  0.02094  1.0000
  H   H653      1.0  0.41158  0.14840  0.42036  1.0000
  H   H654      1.0  0.36708  0.07664  0.08639  1.0000
  C   C368      1.0  0.50361  0.13702  0.20199  1.0000
  C   C369      1.0  0.49485  0.11814  0.25225  1.0000
  C   C370      1.0  0.50443  0.14344  0.24841  1.0000
  C   C371      1.0  0.50913  0.15264  0.22348  1.0000
  H   H655      1.0  0.50853  0.15579  0.26465  1.0000
  H   H656      1.0  0.51692  0.17212  0.22079  1.0000
  C   C372      1.0  0.35680  0.04492  0.00867  1.0000
  C   C373      1.0  0.35492  0.08917  0.36819  1.0000
  C   C374      1.0  0.38235  0.09414  0.37114  1.0000
  C   C375      1.0  0.39347  0.09595  0.39552  1.0000
  C   C376      1.0  0.37678  0.09327  0.41684  1.0000
  C   C377      1.0  0.34929  0.08871  0.41389  1.0000
  H   H657      1.0  0.36003  0.96668  0.00477  1.0000
  H   H658      1.0  0.39496  0.09604  0.35457  1.0000
  C   C378      1.0  0.63829  0.19366  0.41917  1.0000
  H   H659      1.0  0.60583  0.14153  0.28920  1.0000
  C   C379      1.0  0.38591  0.25979  0.43938  1.0000
  C   C380      1.0  0.47613  0.22703  0.39368  1.0000
  C   C381      1.0  0.47600  0.21201  0.41587  1.0000
  H   H660      1.0  0.48006  0.19146  0.41491  1.0000
  H   H661      1.0  0.34659  0.08729  0.34926  1.0000
  H   H662      1.0  0.55318  0.43082  0.44394  1.0000
  H   H663      1.0  0.35003  0.19346  0.21409  1.0000
  C   C382      1.0  0.47905  0.25208  0.03642  1.0000
  C   C383      1.0  0.49008  0.26452  0.01504  1.0000
  H   H664      1.0  0.46460  0.26223  0.04799  1.0000
  H   H665      1.0  0.48450  0.28431  0.01039  1.0000
  S   S103      1.0  0.52288  0.26611  0.97291  1.0000
  H   H666      1.0  0.53136  0.21612  0.99541  1.0000
  Fe  Fe53      1.0  0.49925  0.13949  0.12946  1.0000
  S   S104      1.0  0.49799  0.10134  0.10772  1.0000
  S   S105      1.0  0.50943  0.15018  0.17107  1.0000
  Fe  Fe54      1.0  0.48523  0.17098  0.08130  1.0000
  S   S106      1.0  0.48316  0.13546  0.05641  1.0000
  S   S107      1.0  0.47209  0.21150  0.06960  1.0000
  Fe  Fe55      1.0  0.52080  0.12274  0.07688  1.0000
  S   S108      1.0  0.55404  0.10686  0.05085  1.0000
  S   S109      1.0  0.52404  0.15997  0.09955  1.0000
  Fe  Fe56      1.0  0.52176  0.12258  0.37388  1.0000
  S   S110      1.0  0.55596  0.11067  0.40033  1.0000
  S   S111      1.0  0.52141  0.15004  0.34040  1.0000
  C   C384      1.0  0.64400  0.09048  0.06134  1.0000
  C   C385      1.0  0.62822  0.09751  0.08238  1.0000
  C   C386      1.0  0.60086  0.10309  0.07952  1.0000
  C   C387      1.0  0.58873  0.10118  0.05558  1.0000
  C   C388      1.0  0.60452  0.09410  0.03452  1.0000
  C   C389      1.0  0.63197  0.08898  0.03732  1.0000
  H   H667      1.0  0.63720  0.09857  0.10110  1.0000
  H   H668      1.0  0.58907  0.10843  0.09592  1.0000
  H   H669      1.0  0.59538  0.09248  0.01591  1.0000
  H   H670      1.0  0.64368  0.08321  0.02103  1.0000
  C   C390      1.0  0.49352  0.11189  0.20580  1.0000
  C   C391      1.0  0.48941  0.10247  0.23078  1.0000
  H   H671      1.0  0.48928  0.09959  0.18953  1.0000
  H   H672      1.0  0.48208  0.08282  0.23349  1.0000
  N   N20       1.0  0.34639  0.02036  0.02105  1.0000
  C   C392      1.0  0.63444  0.09545  0.41276  1.0000
  C   C393      1.0  0.60667  0.09796  0.41556  1.0000
  C   C394      1.0  0.59099  0.10919  0.39623  1.0000
  C   C395      1.0  0.60353  0.11882  0.37445  1.0000
  C   C396      1.0  0.63129  0.11629  0.37163  1.0000
  H   H673      1.0  0.62569  0.05457  0.28691  1.0000
  H   H674      1.0  0.40897  0.31170  0.97825  1.0000
  H   H675      1.0  0.59182  0.12814  0.35980  1.0000
  C   C397      1.0  0.49041  0.44806  0.44505  1.0000
  H   H676      1.0  0.54891  0.11814  0.29259  1.0000
  C   C398      1.0  0.46607  0.26566  0.41925  1.0000
  C   C399      1.0  0.47139  0.25397  0.39550  1.0000
  H   H677      1.0  0.41280  0.11102  0.14154  1.0000
  H   H678      1.0  0.47158  0.26579  0.37844  1.0000
  H   H679      1.0  0.36350  0.98920  0.04387  1.0000
  H   H680      1.0  0.36121  0.09498  0.98863  1.0000
  C   C400      1.0  0.50877  0.25150  0.00006  1.0000
  C   C401      1.0  0.51672  0.22619  0.00683  1.0000
  C   C402      1.0  0.50588  0.21383  0.02831  1.0000
  C   C403      1.0  0.48688  0.22670  0.04308  1.0000
  H   H681      1.0  0.61160  0.20513  0.38858  1.0000
  C   C404      1.0  0.40824  0.46070  0.97654  1.0000
  N   N21       1.0  0.42717  0.16815  0.19741  1.0000
  C   C405      1.0  0.43056  0.15511  0.22302  1.0000
  C   C406      1.0  0.43168  0.14869  0.17606  1.0000
  C   C407      1.0  0.44822  0.18913  0.19536  1.0000
  C   C408      1.0  0.40041  0.18106  0.19469  1.0000
  C   C409      1.0  0.37582  0.16332  0.19826  1.0000
  C   C410      1.0  0.42764  0.17284  0.24684  1.0000
  C   C411      1.0  0.44974  0.20373  0.16947  1.0000
  C   C412      1.0  0.42379  0.11981  0.18091  1.0000
  H   H682      1.0  0.44545  0.27945  0.98528  1.0000
  C   C413      1.0  0.42883  0.15682  0.27137  1.0000
  C   C414      1.0  0.47451  0.22096  0.16812  1.0000
  H   H683      1.0  0.45055  0.14591  0.22409  1.0000
  H   H684      1.0  0.41634  0.13878  0.22545  1.0000
  H   H685      1.0  0.42147  0.15519  0.15832  1.0000
  H   H686      1.0  0.45315  0.14779  0.17104  1.0000
  H   H687      1.0  0.46817  0.18065  0.19928  1.0000
  H   H688      1.0  0.44523  0.20456  0.20995  1.0000
  H   H689      1.0  0.39876  0.19794  0.20793  1.0000
  H   H690      1.0  0.39830  0.18965  0.17533  1.0000
  H   H691      1.0  0.37647  0.15264  0.21658  1.0000
  H   H692      1.0  0.37442  0.14922  0.18227  1.0000
  H   H693      1.0  0.44409  0.18724  0.24787  1.0000
  H   H694      1.0  0.40840  0.18333  0.24669  1.0000
  H   H695      1.0  0.43216  0.21652  0.16692  1.0000
  H   H696      1.0  0.45062  0.19010  0.15315  1.0000
  H   H697      1.0  0.43724  0.11104  0.19534  1.0000
  H   H698      1.0  0.37021  0.27479  0.43692  1.0000
  H   H699      1.0  0.39137  0.04252  0.04966  1.0000
  H   H700      1.0  0.52998  0.30265  0.42355  1.0000
  H   H701      1.0  0.42697  0.16994  0.28812  1.0000
  H   H702      1.0  0.41239  0.14234  0.27198  1.0000
  H   H703      1.0  0.44811  0.14640  0.27285  1.0000
  H   H704      1.0  0.47495  0.23132  0.14954  1.0000
  H   H705      1.0  0.47447  0.23566  0.18368  1.0000
  H   H706      1.0  0.49278  0.20887  0.16955  1.0000
  C   C415      1.0  0.49575  0.44507  0.99351  1.0000
  C   C416      1.0  0.39733  0.21216  0.43309  1.0000
  H   H707      1.0  0.61067  0.04883  0.31747  1.0000
  C   C417      1.0  0.62073  0.16328  0.02136  1.0000
  C   C418      1.0  0.38979  0.16250  0.37778  1.0000
  H   H708      1.0  0.33282  0.16611  0.20008  1.0000
  C   C419      1.0  0.60951  0.18529  0.03855  1.0000
  H   H709      1.0  0.57098  0.12277  0.31833  1.0000
  H   H710      1.0  0.34738  0.00608  0.98196  1.0000
  C   C420      1.0  0.58313  0.17707  0.05058  1.0000
  H   H711      1.0  0.49027  0.44009  0.42595  1.0000
  H   H712      1.0  0.33545  0.09188  0.96492  1.0000
  H   H713      1.0  0.34114  0.02716  0.42813  1.0000
  H   H714      1.0  0.59718  0.09058  0.43257  1.0000
  H   H715      1.0  0.62156  0.14509  0.03280  1.0000
  H   H716      1.0  0.60528  0.15950  0.00661  1.0000
  H   H717      1.0  0.36362  0.05927  0.02316  1.0000
  C   C421      1.0  0.33664  0.06005  0.99190  1.0000
  H   H718      1.0  0.62732  0.03671  0.01338  1.0000
  H   H719      1.0  0.39206  0.41874  0.44716  1.0000
  H   H720      1.0  0.60572  0.20320  0.02728  1.0000
  H   H721      1.0  0.62339  0.19014  0.05430  1.0000
  C   C422      1.0  0.64468  0.16950  0.43585  1.0000
  H   H722      1.0  0.40996  0.15372  0.37764  1.0000
  C   C423      1.0  0.62276  0.06277  0.30626  1.0000
  H   H723      1.0  0.63983  0.20937  0.00107  1.0000
  H   H724      1.0  0.36894  0.15178  0.43355  1.0000
  H   H725      1.0  0.39506  0.99164  0.08016  1.0000
  H   H726      1.0  0.57501  0.19335  0.06217  1.0000
  H   H727      1.0  0.56826  0.17199  0.03567  1.0000
  H   H728      1.0  0.58602  0.15996  0.06324  1.0000
  H   H729      1.0  0.33664  0.19973  0.41607  1.0000
  H   H730      1.0  0.55889  0.23923  0.44158  1.0000
  C   C424      1.0  0.40347  0.00937  0.07107  1.0000
  H   H731      1.0  0.52356  0.26991  0.41258  1.0000
  N   N22       1.0  0.64724  0.16865  0.00901  1.0000
  H   H732      1.0  0.58403  0.04071  0.03501  1.0000
  H   H733      1.0  0.59859  0.17969  0.40871  1.0000
  H   H734      1.0  0.42107  0.08295  0.16056  1.0000
  H   H735      1.0  0.42350  0.42087  0.97953  1.0000
  H   H736      1.0  0.55038  0.10784  0.25064  1.0000
  C   C425      1.0  0.34008  0.17875  0.41955  1.0000
  H   H737      1.0  0.43142  0.18204  0.02648  1.0000
  H   H738      1.0  0.33923  0.16870  0.40084  1.0000
  H   H739      1.0  0.41593  0.22172  0.00194  1.0000
  H   H740      1.0  0.36485  0.07200  0.96262  1.0000
  C   C426      1.0  0.62247  0.02261  0.02869  1.0000
  H   H741      1.0  0.37460  0.04032  0.99685  1.0000
  C   C427      1.0  0.42637  0.10357  0.15659  1.0000
  H   H742      1.0  0.45035  0.22459  0.99498  1.0000
  C   C428      1.0  0.36370  0.99784  0.40712  1.0000
  H   H743      1.0  0.65295  0.15372  0.06170  1.0000
  C   C429      1.0  0.60949  0.09004  0.30476  1.0000
  C   C430      1.0  0.61684  0.18728  0.39944  1.0000
  H   H744      1.0  0.62426  0.17243  0.38577  1.0000
  C   C431      1.0  0.57040  0.11766  0.29776  1.0000
  C   C432      1.0  0.57183  0.16646  0.28972  1.0000
  C   C433      1.0  0.36708  0.17347  0.43299  1.0000
  C   C434      1.0  0.44288  0.17545  0.00958  1.0000
  C   C435      1.0  0.38161  0.16669  0.35005  1.0000
  N   N23       1.0  0.39172  0.18571  0.42155  1.0000
  H   H745      1.0  0.65942  0.04490  0.31949  1.0000
  H   H746      1.0  0.43209  0.43949  0.42760  1.0000
  H   H747      1.0  0.42844  0.45637  0.01225  1.0000
  H   H748      1.0  0.52665  0.04895  0.33840  1.0000
  H   H749      1.0  0.56922  0.05101  0.30103  1.0000
  C   C436      1.0  0.64685  0.10421  0.39054  1.0000
  C   C437      1.0  0.53678  0.28207  0.42472  1.0000
  H   H750      1.0  0.66297  0.04999  0.96299  1.0000
  H   H751      1.0  0.64613  0.08615  0.42750  1.0000
  C   C438      1.0  0.56136  0.39759  0.96593  1.0000
  H   H752      1.0  0.65261  0.09478  0.97399  1.0000
  C   C439      1.0  0.33825  0.08633  0.38950  1.0000
  H   H753      1.0  0.55739  0.28093  0.41726  1.0000
  H   H754      1.0  0.39759  0.02340  0.41508  1.0000
  H   H755      1.0  0.37155  0.23642  0.40848  1.0000
  H   H756      1.0  0.46196  0.28634  0.42043  1.0000
  H   H757      1.0  0.38560  0.00329  0.02162  1.0000
  H   H758      1.0  0.33675  0.08653  0.43045  1.0000
  C   C440      1.0  0.47023  0.22353  0.43946  1.0000
  H   H759      1.0  0.38866  0.45573  0.98495  1.0000
  H   H760      1.0  0.41139  0.17972  0.98245  1.0000
  H   H761      1.0  0.61879  0.12954  0.97928  1.0000
  C   C441      1.0  0.55745  0.08740  0.25015  1.0000
  H   H762      1.0  0.39554  0.01175  0.38271  1.0000
  H   H763      1.0  0.62977  0.03041  0.04714  1.0000
  C   C442      1.0  0.38373  0.01876  0.39919  1.0000
  C   C443      1.0  0.41097  0.25797  0.97025  1.0000
  H   H764      1.0  0.41663  0.21975  0.42573  1.0000
  H   H765      1.0  0.41956  0.00368  0.05772  1.0000
  C   C444      1.0  0.54678  0.05011  0.34708  1.0000
  C   C445      1.0  0.35020  0.17933  0.19802  1.0000
  C   C446      1.0  0.39021  0.18849  0.39295  1.0000
  H   H766      1.0  0.37258  0.19999  0.38714  1.0000
  H   H767      1.0  0.57856  0.40503  0.00342  1.0000
  H   H768      1.0  0.54111  0.39443  0.95817  1.0000
  C   C447      1.0  0.56178  0.08026  0.22219  1.0000
  C   C448      1.0  0.41018  0.29994  0.99599  1.0000
  H   H769      1.0  0.41229  0.02190  0.08620  1.0000
  H   H770      1.0  0.39039  0.25408  0.97712  1.0000
  H   H771      1.0  0.55744  0.03148  0.34362  1.0000
  C   C449      1.0  0.34783  0.00662  0.43094  1.0000
  H   H772      1.0  0.64795  0.07132  0.33916  1.0000
  H   H773      1.0  0.54973  0.19349  0.43982  1.0000
  H   H774      1.0  0.36099  0.17433  0.34893  1.0000
  C   C450      1.0  0.43185  0.18749  0.98513  1.0000
  H   H775      1.0  0.46406  0.18094  0.01218  1.0000
  C   C451      1.0  0.42114  0.45003  0.44283  1.0000
  H   H776      1.0  0.58202  0.18220  0.27898  1.0000
  H   H777      1.0  0.44712  0.10413  0.14939  1.0000
  H   H778      1.0  0.37598  0.14822  0.38646  1.0000
  H   H779      1.0  0.36257  0.00764  0.44672  1.0000
  H   H780      1.0  0.40319  0.11784  0.18791  1.0000
  C   C452      1.0  0.59218  0.02110  0.03050  1.0000
  C   C453      1.0  0.34630  0.11757  0.03917  1.0000
  C   C454      1.0  0.63458  0.99544  0.02274  1.0000
  H   H781      1.0  0.35059  0.99407  0.39053  1.0000
  C   C455      1.0  0.64999  0.06448  0.31916  1.0000
  C   C456      1.0  0.55866  0.40360  0.99432  1.0000
  H   H782      1.0  0.55052  0.16642  0.28423  1.0000
  H   H783      1.0  0.59373  0.42544  0.96188  1.0000
  C   C457      1.0  0.49344  0.42768  0.97283  1.0000
  H   H784      1.0  0.52485  0.23290  0.44603  1.0000
  H   H785      1.0  0.36663  0.03013  0.07138  1.0000
  H   H786      1.0  0.54286  0.08254  0.21150  1.0000
  H   H787      1.0  0.44418  0.18057  0.96910  1.0000
  H   H788      1.0  0.38235  0.14777  0.33973  1.0000
  H   H789      1.0  0.37324  0.03686  0.39338  1.0000
  H   H790      1.0  0.57625  0.15358  0.44263  1.0000
  H   H791      1.0  0.64081  0.12352  0.35459  1.0000
  H   H792      1.0  0.63721  0.15038  0.95806  1.0000
  H   H793      1.0  0.56176  0.43750  0.95438  1.0000
  H   H794      1.0  0.44168  0.15385  0.00845  1.0000
  H   H795      1.0  0.58358  0.13747  0.26258  1.0000
  H   H796      1.0  0.54291  0.07370  0.29972  1.0000
  H   H797      1.0  0.58977  0.06351  0.26323  1.0000
  H   H798      1.0  0.42102  0.31156  0.01058  1.0000
  H   H799      1.0  0.49305  0.43786  0.01269  1.0000
  H   H800      1.0  0.38520  0.09457  0.43577  1.0000
  H   H801      1.0  0.39545  0.18051  0.34060  1.0000
  H   H802      1.0  0.38979  0.29596  0.00307  1.0000
  C   C458      1.0  0.41529  0.16846  0.42750  1.0000
  H   H803      1.0  0.57277  0.37919  0.96425  1.0000
  H   H804      1.0  0.54146  0.07462  0.25761  1.0000
  H   H805      1.0  0.64316  0.00687  0.97226  1.0000
  C   C459      1.0  0.36935  0.00808  0.03526  1.0000
  C   C460      1.0  0.42504  0.27443  0.99114  1.0000
  H   H806      1.0  0.62476  0.98863  0.00503  1.0000
  C   C461      1.0  0.37617  0.23359  0.42893  1.0000
  C   C462      1.0  0.43102  0.21775  0.98691  1.0000
  H   H807      1.0  0.37492  0.97971  0.41133  1.0000
  H   H808      1.0  0.43333  0.17542  0.41726  1.0000
  H   H809      1.0  0.60982  0.09884  0.32409  1.0000
  H   H810      1.0  0.62318  0.10243  0.29336  1.0000
  C   C463      1.0  0.46512  0.25032  0.44122  1.0000
  C   C464      1.0  0.56245  0.07298  0.33605  1.0000
  H   H811      1.0  0.59923  0.09594  0.25629  1.0000
  C   C465      1.0  0.58348  0.08415  0.26573  1.0000
  H   H812      1.0  0.40765  0.19984  0.38584  1.0000
  C   C466      1.0  0.58463  0.14020  0.28352  1.0000
  C   C467      1.0  0.64401  0.19097  0.99056  1.0000
  H   H813      1.0  0.58610  0.00752  0.04590  1.0000
  H   H814      1.0  0.57681  0.09337  0.21344  1.0000
  H   H815      1.0  0.58345  0.01451  0.01212  1.0000
  H   H816      1.0  0.57356  0.17079  0.31041  1.0000
  C   C468      1.0  0.56375  0.07128  0.30652  1.0000
  H   H817      1.0  0.55244  0.09127  0.34199  1.0000
  S   S112      1.0  0.48508  0.39458  0.97865  1.0000
  H   H818      1.0  0.62778  0.98168  0.03783  1.0000
  N   N24       1.0  0.58178  0.09078  0.29369  1.0000
  H   H819      1.0  0.58238  0.07257  0.34503  1.0000
  H   H820      1.0  0.42616  0.26386  0.00954  1.0000
  H   H821      1.0  0.56839  0.05969  0.22033  1.0000
  H   H822      1.0  0.54731  0.38769  0.00371  1.0000
  C   C469      1.0  0.38181  0.02458  0.05709  1.0000
  S   S113      1.0  0.46762  0.32298  0.95899  1.0000
  H   H823      1.0  0.54457  0.05281  0.36798  1.0000
  H   H824      1.0  0.54775  0.42216  0.99729  1.0000
  H   H825      1.0  0.62634  0.16538  0.44687  1.0000
  C   C470      1.0  0.33877  0.97255  0.00437  1.0000
  C   C471      1.0  0.41955  0.43583  0.96469  1.0000
  H   H826      1.0  0.62629  0.18789  0.97816  1.0000
  C   C472      1.0  0.33640  0.00243  0.00006  1.0000
  C   C473      1.0  0.65633  0.14421  0.99562  1.0000
  H   H827      1.0  0.35775  0.22858  0.43937  1.0000
  H   H828      1.0  0.34813  0.19007  0.17975  1.0000
  H   H829      1.0  0.46157  0.14834  0.44868  1.0000
  N   N25       1.0  0.42445  0.23271  0.96281  1.0000
  C   C474      1.0  0.63902  0.13504  0.97282  1.0000
  H   H830      1.0  0.65697  0.12764  0.00915  1.0000
  C   C475      1.0  0.35053  0.08098  0.97608  1.0000
  H   H831      1.0  0.64702  0.15220  0.42318  1.0000
  H   H832      1.0  0.34919  0.14135  0.96046  1.0000
  H   H833      1.0  0.39109  0.45948  0.41490  1.0000
  H   H834      1.0  0.40397  0.26635  0.42901  1.0000
  H   H835      1.0  0.46355  0.25044  0.96077  1.0000
  H   H836      1.0  0.34194  0.18890  0.95784  1.0000
  C   C476      1.0  0.66242  0.21939  0.95509  1.0000
  H   H837      1.0  0.38690  0.21297  0.95802  1.0000
  H   H838      1.0  0.33091  0.22941  0.95720  1.0000
  H   H839      1.0  0.65794  0.23748  0.96592  1.0000
  C   C477      1.0  0.65124  0.11106  0.96014  1.0000
  H   H840      1.0  0.65597  0.20061  0.40861  1.0000
  Fe  Fe57      1.0  0.50643  0.30219  0.95363  1.0000
  H   H841      1.0  0.47576  0.20605  0.95328  1.0000
  H   H842      1.0  0.61841  0.38949  0.95525  1.0000
  H   H843      1.0  0.43838  0.44014  0.95451  1.0000
  H   H844      1.0  0.40898  0.27105  0.95340  1.0000
  H   H845      1.0  0.66330  0.07806  0.30872  1.0000
  H   H846      1.0  0.33024  0.04394  0.05149  1.0000
  C   C478      1.0  0.53584  0.27293  0.45240  1.0000
  H   H847      1.0  0.58236  0.20073  0.45165  1.0000
  S   S114      1.0  0.48391  0.35870  0.90900  1.0000
  Fe  Fe58      1.0  0.46290  0.32026  0.91643  1.0000
  S   S115      1.0  0.42671  0.29898  0.89910  1.0000
  Fe  Fe59      1.0  0.44469  0.33659  0.52941  1.0000
  S   S116      1.0  0.43871  0.33911  0.48714  1.0000
  S   S117      1.0  0.41162  0.33686  0.55928  1.0000
  Fe  Fe60      1.0  0.46523  0.30385  0.48457  1.0000
  H   H848      1.0  0.36820  0.28209  0.82300  1.0000
  Fe  Fe61      1.0  0.47705  0.36254  0.48743  1.0000
  C   C479      1.0  0.46559  0.21644  0.93748  1.0000
  S   S118      1.0  0.46887  0.30041  0.52681  1.0000
  S   S119      1.0  0.48167  0.36196  0.53031  1.0000
  N   N26       1.0  0.33423  0.31492  0.78849  1.0000
  H   H849      1.0  0.49690  0.22490  0.55718  1.0000
  H   H850      1.0  0.47990  0.23246  0.52777  1.0000
  H   H851      1.0  0.49964  0.25705  0.54398  1.0000
  C   C480      1.0  0.61894  0.26190  0.49114  1.0000
  H   H852      1.0  0.33495  0.38830  0.56808  1.0000
  H   H853      1.0  0.36247  0.27831  0.70966  1.0000
  C   C481      1.0  0.36406  0.31726  0.57679  1.0000
  C   C482      1.0  0.37987  0.32220  0.55523  1.0000
  C   C483      1.0  0.36943  0.31680  0.53106  1.0000
  H   H854      1.0  0.33565  0.24720  0.83556  1.0000
  H   H855      1.0  0.34678  0.25048  0.48837  1.0000
  H   H856      1.0  0.37199  0.32128  0.59557  1.0000
  H   H857      1.0  0.38133  0.32055  0.51432  1.0000
  H   H858      1.0  0.33106  0.35740  0.55429  1.0000
  C   C484      1.0  0.39265  0.30671  0.89348  1.0000
  C   C485      1.0  0.38192  0.33138  0.89840  1.0000
  C   C486      1.0  0.35490  0.33652  0.89286  1.0000
  H   H859      1.0  0.54374  0.39509  0.91523  1.0000
  C   C487      1.0  0.34879  0.29218  0.87844  1.0000
  C   C488      1.0  0.37590  0.28726  0.88335  1.0000
  H   H860      1.0  0.39452  0.34662  0.90605  1.0000
  H   H861      1.0  0.33406  0.98489  0.49203  1.0000
  H   H862      1.0  0.36508  0.17955  0.45325  1.0000
  H   H863      1.0  0.38406  0.26829  0.87900  1.0000
  C   C489      1.0  0.34827  0.29226  0.71838  1.0000
  C   C490      1.0  0.34712  0.14780  0.50734  1.0000
  C   C491      1.0  0.55021  0.20391  0.48049  1.0000
  S   S120      1.0  0.50089  0.29745  0.91150  1.0000
  Fe  Fe62      1.0  0.52240  0.33554  0.90799  1.0000
  S   S121      1.0  0.55566  0.34378  0.87931  1.0000
  Fe  Fe63      1.0  0.50559  0.32502  0.52391  1.0000
  S   S122      1.0  0.50313  0.32690  0.48123  1.0000
  S   S123      1.0  0.53907  0.30517  0.54654  1.0000
  C   C492      1.0  0.48690  0.44179  0.49050  1.0000
  C   C493      1.0  0.63079  0.30784  0.54337  1.0000
  C   C494      1.0  0.61755  0.28953  0.55847  1.0000
  C   C495      1.0  0.58951  0.28890  0.55898  1.0000
  C   C496      1.0  0.57433  0.30643  0.54433  1.0000
  C   C497      1.0  0.58755  0.32449  0.52894  1.0000
  C   C498      1.0  0.61561  0.32521  0.52855  1.0000
  H   H864      1.0  0.62896  0.27580  0.56964  1.0000
  H   H865      1.0  0.57947  0.27478  0.57088  1.0000
  H   H866      1.0  0.57619  0.33810  0.51758  1.0000
  H   H867      1.0  0.62565  0.33938  0.51671  1.0000
  C   C499      1.0  0.58771  0.32889  0.87997  1.0000
  C   C500      1.0  0.60644  0.33519  0.86101  1.0000
  C   C501      1.0  0.63221  0.32413  0.86117  1.0000
  C   C502      1.0  0.60580  0.34306  0.63605  1.0000
  C   C503      1.0  0.62088  0.30055  0.89942  1.0000
  C   C504      1.0  0.59510  0.31141  0.89914  1.0000
  H   H868      1.0  0.60099  0.34867  0.84608  1.0000
  C   C505      1.0  0.48645  0.43123  0.46591  1.0000
  C   C506      1.0  0.33151  0.38843  0.52684  1.0000
  H   H869      1.0  0.58101  0.30633  0.91388  1.0000
  N   N27       1.0  0.54732  0.23334  0.48108  1.0000
  H   H870      1.0  0.35336  0.25250  0.57812  1.0000
  H   H871      1.0  0.51547  0.27663  0.45957  1.0000
  C   C507      1.0  0.33165  0.23062  0.60581  1.0000
  H   H872      1.0  0.63636  0.40315  0.92877  1.0000
  C   C508      1.0  0.64111  0.33354  0.66730  1.0000
  H   H873      1.0  0.62308  0.37175  0.67638  1.0000
  H   H874      1.0  0.60310  0.29101  0.65074  1.0000
  H   H875      1.0  0.41337  0.27116  0.55148  1.0000
  H   H876      1.0  0.40558  0.32325  0.82649  1.0000
  N   N28       1.0  0.58019  0.41589  0.92369  1.0000
  C   C509      1.0  0.42263  0.16541  0.45608  1.0000
  H   H877      1.0  0.44889  0.14267  0.48030  1.0000
  H   H878      1.0  0.63216  0.30426  0.60924  1.0000
  H   H879      1.0  0.39686  0.35059  0.84623  1.0000
  C   C510      1.0  0.55385  0.41370  0.91004  1.0000
  H   H880      1.0  0.60105  0.33370  0.59478  1.0000
  C   C511      1.0  0.33814  0.31695  0.88290  1.0000
  H   H881      1.0  0.36764  0.27025  0.79104  1.0000
  C   C512      1.0  0.52727  0.41083  0.86897  1.0000
  H   H882      1.0  0.53024  0.19446  0.48151  1.0000
  C   C513      1.0  0.66241  0.19318  0.47285  1.0000
  H   H883      1.0  0.58464  0.31159  0.61566  1.0000
  H   H884      1.0  0.36752  0.25805  0.53805  1.0000
  H   H885      1.0  0.65069  0.33509  0.58733  1.0000
  C   C514      1.0  0.62000  0.25934  0.62939  1.0000
  H   H886      1.0  0.56696  0.26691  0.49799  1.0000
  H   H887      1.0  0.55256  0.33880  0.59292  1.0000
  H   H888      1.0  0.56783  0.36815  0.60483  1.0000
  N   N29       1.0  0.35090  0.21915  0.53432  1.0000
  C   C515      1.0  0.35899  0.19367  0.52215  1.0000
  H   H889      1.0  0.54094  0.44569  0.47293  1.0000
  H   H890      1.0  0.48397  0.42916  0.50675  1.0000
  H   H891      1.0  0.57571  0.23703  0.51200  1.0000
  C   C516      1.0  0.37393  0.23799  0.53277  1.0000
  H   H892      1.0  0.39959  0.21077  0.45409  1.0000
  H   H893      1.0  0.40491  0.16033  0.46760  1.0000
  H   H894      1.0  0.51931  0.39132  0.87405  1.0000
  C   C517      1.0  0.42053  0.25156  0.54552  1.0000
  H   H895      1.0  0.35842  0.20919  0.91805  1.0000
  C   C518      1.0  0.49700  0.43719  0.94815  1.0000
  H   H896      1.0  0.61508  0.44051  0.92483  1.0000
  H   H897      1.0  0.37207  0.29719  0.75173  1.0000
  H   H898      1.0  0.49473  0.42411  0.93210  1.0000
  C   C519      1.0  0.57127  0.24614  0.49327  1.0000
  H   H899      1.0  0.36728  0.40901  0.53935  1.0000
  C   C520      1.0  0.62178  0.38800  0.93445  1.0000
  H   H900      1.0  0.54011  0.42933  0.91638  1.0000
  C   C521      1.0  0.35538  0.27288  0.80827  1.0000
  H   H901      1.0  0.38634  0.19470  0.90152  1.0000
  H   H902      1.0  0.37420  0.18376  0.53412  1.0000
  H   H903      1.0  0.63471  0.27968  0.66224  1.0000
  H   H904      1.0  0.33502  0.30418  0.50969  1.0000
  H   H905      1.0  0.35259  0.31206  0.71085  1.0000
  C   C522      1.0  0.56381  0.34732  0.60918  1.0000
  H   H906      1.0  0.63860  0.10473  0.94389  1.0000
  C   C523      1.0  0.57501  0.42034  0.95167  1.0000
  H   H907      1.0  0.52276  0.20607  0.52341  1.0000
  H   H908      1.0  0.60528  0.22496  0.47761  1.0000
  C   C524      1.0  0.65137  0.13717  0.48541  1.0000
  C   C525      1.0  0.39872  0.23108  0.54898  1.0000
  H   H909      1.0  0.34965  0.22167  0.61440  1.0000
  H   H910      1.0  0.43142  0.18370  0.46365  1.0000
  H   H911      1.0  0.62635  0.28721  0.91450  1.0000
  H   H912      1.0  0.35196  0.96424  0.45875  1.0000
  H   H913      1.0  0.56244  0.43375  0.87370  1.0000
  C   C526      1.0  0.66030  0.24350  0.78922  1.0000
  H   H914      1.0  0.41279  0.23531  0.90908  1.0000
  H   H915      1.0  0.66068  0.21245  0.46327  1.0000
  C   C527      1.0  0.56321  0.19147  0.45653  1.0000
  H   H916      1.0  0.41310  0.19830  0.94098  1.0000
  H   H917      1.0  0.54043  0.23393  0.53574  1.0000
  H   H918      1.0  0.34366  0.01758  0.48342  1.0000
  H   H919      1.0  0.43532  0.12477  0.45371  1.0000
  H   H920      1.0  0.35720  0.32411  0.83504  1.0000
  C   C528      1.0  0.65350  0.35133  0.62599  1.0000
  H   H921      1.0  0.58282  0.37358  0.92309  1.0000
  H   H922      1.0  0.52158  0.26143  0.49998  1.0000
  H   H923      1.0  0.56803  0.39921  0.87278  1.0000
  H   H924      1.0  0.36897  0.19714  0.50354  1.0000
  C   C529      1.0  0.40496  0.21752  0.94660  1.0000
  H   H925      1.0  0.35754  0.15080  0.48899  1.0000
  H   H926      1.0  0.64531  0.21459  0.94250  1.0000
  H   H927      1.0  0.64310  0.10497  0.51103  1.0000
  C   C530      1.0  0.36529  0.33788  0.82087  1.0000
  H   H928      1.0  0.50476  0.23376  0.48735  1.0000
  C   C531      1.0  0.34315  0.21389  0.56162  1.0000
  C   C532      1.0  0.48713  0.22591  0.91921  1.0000
  H   H929      1.0  0.50119  0.23917  0.92915  1.0000
  H   H930      1.0  0.61268  0.28267  0.49172  1.0000
  H   H931      1.0  0.65943  0.30082  0.62969  1.0000
  H   H932      1.0  0.44494  0.25337  0.93258  1.0000
  C   C533      1.0  0.63965  0.30678  0.88049  1.0000
  C   C534      1.0  0.62315  0.28446  0.64477  1.0000
  H   H933      1.0  0.60787  0.26287  0.61204  1.0000
  C   C535      1.0  0.49824  0.23603  0.53909  1.0000
  H   H934      1.0  0.63119  0.36425  0.59238  1.0000
  H   H935      1.0  0.56126  0.19703  0.49763  1.0000
  C   C536      1.0  0.37653  0.21335  0.90672  1.0000
  C   C537      1.0  0.63793  0.30600  0.62953  1.0000
  H   H936      1.0  0.35878  0.20230  0.57148  1.0000
  S   S124      1.0  0.53022  0.33905  0.94988  1.0000
  H   H937      1.0  0.37030  0.22326  0.88889  1.0000
  H   H938      1.0  0.60083  0.38902  0.89874  1.0000
  C   C538      1.0  0.52294  0.22768  0.52437  1.0000
  H   H939      1.0  0.37278  0.37560  0.52960  1.0000
  H   H940      1.0  0.40380  0.35576  0.81292  1.0000
  H   H941      1.0  0.36097  0.13878  0.52127  1.0000
  H   H942      1.0  0.64638  0.32922  0.84654  1.0000
  C   C539      1.0  0.59549  0.39097  0.91921  1.0000
  C   C540      1.0  0.44337  0.14398  0.45985  1.0000
  C   C541      1.0  0.64350  0.35756  0.70963  1.0000
  H   H943      1.0  0.39388  0.23039  0.56957  1.0000
  H   H944      1.0  0.51340  0.42611  0.87589  1.0000
  H   H945      1.0  0.55009  0.28501  0.46342  1.0000
  C   C542      1.0  0.39564  0.23092  0.92164  1.0000
  H   H946      1.0  0.46968  0.21160  0.45641  1.0000
  C   C543      1.0  0.65016  0.35426  0.59687  1.0000
  C   C544      1.0  0.63456  0.36148  0.92943  1.0000
  C   C545      1.0  0.35125  0.29176  0.74738  1.0000
  C   C546      1.0  0.64139  0.36054  0.68072  1.0000
  H   H947      1.0  0.65199  0.37153  0.63350  1.0000
  H   H948      1.0  0.63166  0.13538  0.47608  1.0000
  H   H949      1.0  0.38100  0.23969  0.51276  1.0000
  C   C547      1.0  0.52338  0.23992  0.49726  1.0000
  H   H950      1.0  0.33622  0.27699  0.87073  1.0000
  C   C548      1.0  0.55493  0.41466  0.88050  1.0000
  H   H951      1.0  0.52847  0.41201  0.84789  1.0000
  C   C549      1.0  0.39473  0.34212  0.82684  1.0000
  H   H952      1.0  0.36677  0.40039  0.50603  1.0000
  H   H953      1.0  0.40516  0.42762  0.95074  1.0000
  H   H954      1.0  0.37745  0.31402  0.78898  1.0000
  H   H955      1.0  0.38491  0.24933  0.92571  1.0000
  H   H956      1.0  0.45298  0.20258  0.92671  1.0000
  H   H957      1.0  0.43804  0.24650  0.55743  1.0000
  H   H958      1.0  0.64274  0.18982  0.48193  1.0000
  H   H959      1.0  0.47816  0.23638  0.90278  1.0000
  C   C550      1.0  0.36140  0.39368  0.52546  1.0000
  H   H960      1.0  0.34697  0.35582  0.89620  1.0000
  H   H961      1.0  0.42698  0.25247  0.52529  1.0000
  C   C551      1.0  0.59630  0.43851  0.91379  1.0000
  H   H962      1.0  0.63781  0.26073  0.48027  1.0000
  H   H963      1.0  0.62130  0.34553  0.93602  1.0000
  C   C552      1.0  0.58103  0.45726  0.46306  1.0000
  S   S125      1.0  0.48114  0.39738  0.46006  1.0000
  H   H964      1.0  0.63974  0.25160  0.62382  1.0000
  C   C553      1.0  0.36092  0.32753  0.79338  1.0000
  H   H965      1.0  0.40700  0.21193  0.54322  1.0000
  Fe  Fe64      1.0  0.49087  0.36000  0.95148  1.0000
  H   H966      1.0  0.60981  0.24439  0.64113  1.0000
  H   H967      1.0  0.64435  0.37712  0.71872  1.0000
  H   H968      1.0  0.55127  0.34592  0.62651  1.0000
  H   H969      1.0  0.36592  0.23442  0.82228  1.0000
  N   N30       1.0  0.63406  0.33347  0.63926  1.0000
  H   H970      1.0  0.56483  0.41980  0.47460  1.0000
  C   C554      1.0  0.33628  0.17358  0.51764  1.0000
  H   H971      1.0  0.60552  0.36477  0.63513  1.0000
  H   H972      1.0  0.66227  0.23524  0.80869  1.0000
  H   H973      1.0  0.62693  0.32117  0.67817  1.0000
  H   H974      1.0  0.63867  0.35888  0.90879  1.0000
  H   H975      1.0  0.60275  0.43478  0.89383  1.0000
  C   C555      1.0  0.65819  0.11051  0.49661  1.0000
  H   H976      1.0  0.49857  0.20900  0.91187  1.0000
  H   H977      1.0  0.54908  0.15205  0.46467  1.0000
  C   C556      1.0  0.33797  0.30746  0.57425  1.0000
  C   C557      1.0  0.34315  0.30755  0.52850  1.0000
  H   H978      1.0  0.36388  0.34437  0.78028  1.0000
  H   H979      1.0  0.59362  0.33811  0.65309  1.0000
  H   H980      1.0  0.65367  0.35999  0.93995  1.0000
  H   H981      1.0  0.64967  0.15100  0.50157  1.0000
  C   C558      1.0  0.58983  0.33242  0.61280  1.0000
  H   H982      1.0  0.62270  0.25509  0.51091  1.0000
  C   C559      1.0  0.33681  0.23823  0.57812  1.0000
  H   H983      1.0  0.34754  0.27139  0.75360  1.0000
  H   H984      1.0  0.63883  0.24634  0.78513  1.0000
  H   H985      1.0  0.62595  0.34699  0.71726  1.0000
  H   H986      1.0  0.65822  0.09536  0.48144  1.0000
  S   S126      1.0  0.45507  0.26304  0.47080  1.0000
  C   C560      1.0  0.44943  0.23955  0.94836  1.0000
  H   H987      1.0  0.39661  0.43892  0.47529  1.0000
  C   C561      1.0  0.55860  0.43719  0.46351  1.0000
  H   H988      1.0  0.65586  0.21266  0.52216  1.0000
  H   H989      1.0  0.59535  0.25278  0.45857  1.0000
  H   H990      1.0  0.34337  0.27450  0.94128  1.0000
  H   H991      1.0  0.42151  0.41540  0.46649  1.0000
  C   C562      1.0  0.56804  0.16227  0.46035  1.0000
  C   C563      1.0  0.54209  0.24346  0.45455  1.0000
  H   H992      1.0  0.58239  0.15892  0.47611  1.0000
  C   C564      1.0  0.34769  0.24578  0.81792  1.0000
  H   H993      1.0  0.39076  0.25829  0.46000  1.0000
  H   H994      1.0  0.35493  0.35684  0.82339  1.0000
  H   H995      1.0  0.66169  0.20623  0.77078  1.0000
  C   C565      1.0  0.59764  0.24520  0.47819  1.0000
  C   C566      1.0  0.40679  0.42958  0.45890  1.0000
  H   H996      1.0  0.43599  0.45995  0.45509  1.0000
  H   H997      1.0  0.59925  0.44714  0.45633  1.0000
  H   H998      1.0  0.33521  0.96345  0.81935  1.0000
  H   H999      1.0  0.33134  0.32926  0.74991  1.0000
  C   C567      1.0  0.33092  0.23586  0.49181  1.0000
  H   H1000     1.0  0.33606  0.23508  0.80322  1.0000
  H   H1001     1.0  0.33606  0.21770  0.48150  1.0000
  H   H1002     1.0  0.65894  0.37207  0.67459  1.0000
  H   H1003     1.0  0.66106  0.32466  0.67032  1.0000
  H   H1004     1.0  0.66187  0.34675  0.71482  1.0000
  C   C568      1.0  0.33037  0.28996  0.80336  1.0000
  C   C569      1.0  0.33098  0.31025  0.76023  1.0000
  H   H1005     1.0  0.33037  0.13404  0.50401  1.0000
  H   H1006     1.0  0.55147  0.54014  0.37277  1.0000
  S   S127      1.0  0.50504  0.55662  0.41088  1.0000
  H   H1007     1.0  0.37747  0.48983  0.00932  1.0000
  C   C570      1.0  0.46905  0.50069  0.06651  1.0000
  S   S128      1.0  0.49155  0.61847  0.41471  1.0000
  Fe  Fe65      1.0  0.46805  0.58165  0.41044  1.0000
  S   S129      1.0  0.43634  0.57679  0.37963  1.0000
  Fe  Fe66      1.0  0.51098  0.55034  0.98446  1.0000
  S   S130      1.0  0.49747  0.55440  0.02529  1.0000
  H   H1008     1.0  0.49306  0.67017  0.99286  1.0000
  Fe  Fe67      1.0  0.51997  0.60938  0.97866  1.0000
  S   S131      1.0  0.50686  0.61708  0.01862  1.0000
  H   H1009     1.0  0.42896  0.56101  0.95899  1.0000
  Fe  Fe68      1.0  0.47341  0.58887  0.01122  1.0000
  S   S132      1.0  0.42964  0.60181  0.01290  1.0000
  S   S133      1.0  0.48542  0.58336  0.97026  1.0000
  H   H1010     1.0  0.46340  0.64995  0.96185  1.0000
  C   C571      1.0  0.37905  0.58019  0.07043  1.0000
  C   C572      1.0  0.40211  0.58272  0.05527  1.0000
  C   C573      1.0  0.40176  0.59856  0.03359  1.0000
  C   C574      1.0  0.37823  0.61211  0.02757  1.0000
  C   C575      1.0  0.35530  0.60984  0.04289  1.0000
  H   H1011     1.0  0.59645  0.68726  0.04934  1.0000
  H   H1012     1.0  0.42003  0.57225  0.06023  1.0000
  H   H1013     1.0  0.37767  0.62443  0.01088  1.0000
  H   H1014     1.0  0.55174  0.50995  0.40946  1.0000
  C   C576      1.0  0.40291  0.58751  0.38229  1.0000
  C   C577      1.0  0.39204  0.59501  0.40567  1.0000
  C   C578      1.0  0.36509  0.60234  0.40719  1.0000
  H   H1015     1.0  0.35274  0.65857  0.38381  1.0000
  C   C579      1.0  0.35969  0.59532  0.36196  1.0000
  C   C580      1.0  0.38656  0.58759  0.36050  1.0000
  H   H1016     1.0  0.40428  0.59480  0.42262  1.0000
  H   H1017     1.0  0.35036  0.67642  0.44453  1.0000
  H   H1018     1.0  0.36228  0.77893  0.01379  1.0000
  H   H1019     1.0  0.39474  0.58162  0.34236  1.0000
  H   H1020     1.0  0.33737  0.62033  0.03792  1.0000
  H   H1021     1.0  0.54323  0.65783  0.04609  1.0000
  H   H1022     1.0  0.55243  0.68237  0.06910  1.0000
  Fe  Fe69      1.0  0.52815  0.59362  0.41907  1.0000
  H   H1023     1.0  0.34327  0.95293  0.42811  1.0000
  Fe  Fe70      1.0  0.53237  0.58271  0.02897  1.0000
  S   S134      1.0  0.56110  0.59018  0.06226  1.0000
  S   S135      1.0  0.54702  0.57627  0.98918  1.0000
  C   C581      1.0  0.65252  0.59903  0.05681  1.0000
  C   C582      1.0  0.63838  0.61042  0.07687  1.0000
  C   C583      1.0  0.61045  0.60774  0.07816  1.0000
  C   C584      1.0  0.59621  0.59404  0.05924  1.0000
  C   C585      1.0  0.61030  0.58337  0.03879  1.0000
  C   C586      1.0  0.63825  0.58567  0.03774  1.0000
  H   H1024     1.0  0.60322  0.50134  0.40628  1.0000
  H   H1025     1.0  0.59976  0.61659  0.09377  1.0000
  H   H1026     1.0  0.59975  0.57278  0.02407  1.0000
  H   H1027     1.0  0.64893  0.57687  0.02206  1.0000
  C   C587      1.0  0.59922  0.60714  0.39786  1.0000
  C   C588      1.0  0.61228  0.58952  0.41385  1.0000
  C   C589      1.0  0.64014  0.58644  0.41225  1.0000
  C   C590      1.0  0.42727  0.47164  0.99726  1.0000
  C   C591      1.0  0.64237  0.61933  0.37945  1.0000
  C   C592      1.0  0.61449  0.62226  0.38092  1.0000
  H   H1028     1.0  0.60087  0.57816  0.42721  1.0000
  H   H1029     1.0  0.65004  0.57253  0.42446  1.0000
  C   C593      1.0  0.43923  0.52120  0.96934  1.0000
  H   H1030     1.0  0.65705  0.55173  0.18577  1.0000
  H   H1031     1.0  0.38561  0.47381  0.44489  1.0000
  H   H1032     1.0  0.46427  0.52088  0.07273  1.0000
  C   C594      1.0  0.34241  0.67542  0.37511  1.0000
  C   C595      1.0  0.35548  0.59370  0.06436  1.0000
  C   C596      1.0  0.57069  0.53278  0.38033  1.0000
  C   C597      1.0  0.40144  0.46984  0.43078  1.0000
  H   H1033     1.0  0.60117  0.67078  0.43565  1.0000
  H   H1034     1.0  0.59928  0.64062  0.03197  1.0000
  H   H1035     1.0  0.33675  0.82952  0.97275  1.0000
  C   C598      1.0  0.55118  0.67955  0.43304  1.0000
  C   C599      1.0  0.60480  0.68497  0.45129  1.0000
  H   H1036     1.0  0.57014  0.69360  0.02685  1.0000
  C   C600      1.0  0.59855  0.68302  0.98169  1.0000
  S   S136      1.0  0.53538  0.64504  0.95807  1.0000
  C   C601      1.0  0.65525  0.94943  0.99808  1.0000
  H   H1037     1.0  0.37913  0.64634  0.96446  1.0000
  H   H1038     1.0  0.56966  0.65156  0.06864  1.0000
  H   H1039     1.0  0.39479  0.47717  0.03586  1.0000
  H   H1040     1.0  0.43865  0.52697  0.03241  1.0000
  C   C602      1.0  0.47127  0.67188  0.99582  1.0000
  H   H1041     1.0  0.50929  0.67036  0.43828  1.0000
  H   H1042     1.0  0.40217  0.52790  0.39794  1.0000
  C   C603      1.0  0.41596  0.51809  0.98846  1.0000
  H   H1043     1.0  0.58015  0.67381  0.97410  1.0000
  C   C604      1.0  0.56021  0.66672  0.05654  1.0000
  C   C605      1.0  0.43576  0.48726  0.40293  1.0000
  H   H1044     1.0  0.42089  0.65061  0.98436  1.0000
  C   C606      1.0  0.64870  0.66568  0.03537  1.0000
  H   H1045     1.0  0.37592  0.72209  0.39010  1.0000
  C   C607      1.0  0.58607  0.57374  0.14257  1.0000
  C   C608      1.0  0.61588  0.69188  0.95884  1.0000
  H   H1046     1.0  0.62562  0.80538  0.44056  1.0000
  H   H1047     1.0  0.41319  0.53764  0.99736  1.0000
  C   C609      1.0  0.34740  0.63723  0.20122  1.0000
  C   C610      1.0  0.39552  0.80536  0.97391  1.0000
  C   C611      1.0  0.33494  0.96276  0.44524  1.0000
  C   C612      1.0  0.60372  0.62586  0.97073  1.0000
  H   H1048     1.0  0.45763  0.52739  0.97932  1.0000
  H   H1049     1.0  0.57377  0.64812  0.01010  1.0000
  H   H1050     1.0  0.64589  0.58344  0.19355  1.0000
  H   H1051     1.0  0.33546  0.96145  0.96432  1.0000
  H   H1052     1.0  0.33214  0.64784  0.26558  1.0000
  H   H1053     1.0  0.39979  0.79543  0.99223  1.0000
  C   C613      1.0  0.59137  0.65667  0.01994  1.0000
  H   H1054     1.0  0.39736  0.51454  0.97746  1.0000
  H   H1055     1.0  0.33565  0.65772  0.98443  1.0000
  C   C614      1.0  0.63015  0.76380  0.44254  1.0000
  H   H1056     1.0  0.63472  0.66017  0.05073  1.0000
  H   H1057     1.0  0.40765  0.70185  0.44002  1.0000
  H   H1058     1.0  0.65135  0.69848  0.42552  1.0000
  C   C615      1.0  0.44178  0.50640  0.02622  1.0000
  H   H1059     1.0  0.57687  0.51571  0.36873  1.0000
  H   H1060     1.0  0.50392  0.48472  0.00563  1.0000
  C   C616      1.0  0.63665  0.57389  0.14288  1.0000
  H   H1061     1.0  0.33942  0.65123  0.42280  1.0000
  H   H1062     1.0  0.42818  0.47321  0.38837  1.0000
  C   C617      1.0  0.58039  0.67815  0.03788  1.0000
  H   H1063     1.0  0.42204  0.71362  0.41057  1.0000
  C   C618      1.0  0.57445  0.48044  0.44505  1.0000
  H   H1064     1.0  0.39922  0.52371  0.05342  1.0000
  C   C619      1.0  0.65536  0.60109  0.39486  1.0000
  H   H1065     1.0  0.63354  0.62919  0.15565  1.0000
  H   H1066     1.0  0.36049  0.49619  0.06562  1.0000
  H   H1067     1.0  0.34767  0.64347  0.33258  1.0000
  H   H1068     1.0  0.51870  0.67704  0.40590  1.0000
  H   H1069     1.0  0.46480  0.65650  0.00936  1.0000
  H   H1070     1.0  0.57423  0.47173  0.42556  1.0000
  H   H1071     1.0  0.43736  0.81328  0.96705  1.0000
  C   C620      1.0  0.39385  0.49433  0.02291  1.0000
  C   C621      1.0  0.36835  0.68463  0.97648  1.0000
  C   C622      1.0  0.45691  0.66872  0.97035  1.0000
  H   H1072     1.0  0.59165  0.70122  0.99113  1.0000
  H   H1073     1.0  0.65000  0.68474  0.99910  1.0000
  H   H1074     1.0  0.38489  0.60900  0.17214  1.0000
  H   H1075     1.0  0.63030  0.62732  0.00273  1.0000
  C   C623      1.0  0.47430  0.50083  0.37447  1.0000
  C   C624      1.0  0.33922  0.81468  0.98812  1.0000
  H   H1076     1.0  0.60734  0.53299  0.41945  1.0000
  C   C625      1.0  0.59417  0.51563  0.41976  1.0000
  H   H1077     1.0  0.33276  0.59132  0.18410  1.0000
  H   H1078     1.0  0.39655  0.67949  0.38677  1.0000
  C   C626      1.0  0.49483  0.47503  0.44868  1.0000
  C   C627      1.0  0.42039  0.80362  0.95727  1.0000
  H   H1079     1.0  0.64908  0.95939  0.98037  1.0000
  H   H1080     1.0  0.33850  0.68530  0.15610  1.0000
  H   H1081     1.0  0.36036  0.62027  0.20572  1.0000
  N   N31       1.0  0.34056  0.69801  0.39350  1.0000
  H   H1082     1.0  0.37342  0.69450  0.35168  1.0000
  C   C628      1.0  0.38449  0.51832  0.03858  1.0000
  H   H1083     1.0  0.62257  0.58801  0.97635  1.0000
  H   H1084     1.0  0.56808  0.57456  0.15477  1.0000
  H   H1085     1.0  0.58480  0.58976  0.12842  1.0000
  H   H1086     1.0  0.61033  0.56111  0.17375  1.0000
  H   H1087     1.0  0.40507  0.47483  0.96087  1.0000
  H   H1088     1.0  0.45505  0.52586  0.40165  1.0000
  H   H1089     1.0  0.48796  0.50090  0.05559  1.0000
  H   H1090     1.0  0.44758  0.47256  0.98909  1.0000
  H   H1091     1.0  0.49832  0.48761  0.43255  1.0000
  H   H1092     1.0  0.55344  0.48636  0.44860  1.0000
  C   C629      1.0  0.61100  0.57669  0.15906  1.0000
  H   H1093     1.0  0.38248  0.66821  0.41586  1.0000
  H   H1094     1.0  0.40608  0.59589  0.13129  1.0000
  H   H1095     1.0  0.36277  0.59123  0.15143  1.0000
  H   H1096     1.0  0.58570  0.54859  0.37837  1.0000
  H   H1097     1.0  0.37452  0.53563  0.43397  1.0000
  H   H1098     1.0  0.37779  0.68173  0.99541  1.0000
  H   H1099     1.0  0.63190  0.77610  0.40278  1.0000
  H   H1100     1.0  0.51566  0.70355  0.42839  1.0000
  N   N32       1.0  0.41382  0.49481  0.42116  1.0000
  C   C630      1.0  0.50511  0.48119  0.96482  1.0000
  H   H1101     1.0  0.41238  0.71379  0.95579  1.0000
  N   N33       1.0  0.59275  0.50400  0.44616  1.0000
  H   H1102     1.0  0.35679  0.60754  0.42548  1.0000
  C   C631      1.0  0.33850  0.73612  0.03042  1.0000
  H   H1103     1.0  0.42906  0.68103  0.42163  1.0000
  H   H1104     1.0  0.45189  0.47690  0.41326  1.0000
  H   H1105     1.0  0.35538  0.82198  0.00073  1.0000
  C   C632      1.0  0.39331  0.50986  0.40611  1.0000
  H   H1106     1.0  0.62736  0.69935  0.02042  1.0000
  C   C633      1.0  0.62316  0.64133  0.98807  1.0000
  H   H1107     1.0  0.35674  0.54608  0.39032  1.0000
  C   C634      1.0  0.35339  0.63323  0.15494  1.0000
  H   H1108     1.0  0.43574  0.51794  0.37365  1.0000
  H   H1109     1.0  0.60992  0.59577  0.16886  1.0000
  C   C635      1.0  0.66203  0.57281  0.18366  1.0000
  H   H1110     1.0  0.35882  0.50389  0.43176  1.0000
  H   H1111     1.0  0.37331  0.66182  0.31671  1.0000
  H   H1112     1.0  0.37946  0.56768  0.08700  1.0000
  H   H1113     1.0  0.63418  0.58609  0.12552  1.0000
  C   C636      1.0  0.36482  0.65680  0.33558  1.0000
  C   C637      1.0  0.36862  0.51963  0.42083  1.0000
  C   C638      1.0  0.36746  0.70701  0.40303  1.0000
  H   H1114     1.0  0.65735  0.79542  0.45172  1.0000
  H   H1115     1.0  0.38034  0.64661  0.34690  1.0000
  H   H1116     1.0  0.58583  0.61978  0.98142  1.0000
  H   H1117     1.0  0.39193  0.82639  0.97768  1.0000
  H   H1118     1.0  0.34734  0.59518  0.34507  1.0000
  C   C639      1.0  0.42540  0.51150  0.44227  1.0000
  H   H1119     1.0  0.58616  0.55476  0.13231  1.0000
  H   H1120     1.0  0.56062  0.54278  0.41857  1.0000
  H   H1121     1.0  0.38125  0.53546  0.02608  1.0000
  S   S137      1.0  0.56400  0.61097  0.39799  1.0000
  H   H1122     1.0  0.59727  0.63769  0.95416  1.0000
  H   H1123     1.0  0.46099  0.50665  0.01578  1.0000
  H   H1124     1.0  0.46711  0.69134  0.00419  1.0000
  N   N34       1.0  0.61188  0.66531  0.00075  1.0000
  H   H1125     1.0  0.63691  0.74171  0.40789  1.0000
  H   H1126     1.0  0.34344  0.74956  0.04635  1.0000
  C   C640      1.0  0.34881  0.60277  0.38535  1.0000
  H   H1127     1.0  0.38639  0.49798  0.38955  1.0000
  C   C641      1.0  0.44933  0.50996  0.38840  1.0000
  C   C642      1.0  0.63433  0.68007  0.01331  1.0000
  C   C643      1.0  0.56745  0.52511  0.40828  1.0000
  C   C644      1.0  0.33872  0.67858  0.97945  1.0000
  C   C645      1.0  0.52190  0.68291  0.42606  1.0000
  C   C646      1.0  0.35322  0.76895  0.99701  1.0000
  C   C647      1.0  0.61677  0.60111  0.96043  1.0000
  H   H1128     1.0  0.40522  0.63088  0.13485  1.0000
  H   H1129     1.0  0.35811  0.62756  0.25280  1.0000
  C   C648      1.0  0.37322  0.61008  0.15423  1.0000
  C   C649      1.0  0.64120  0.76144  0.41556  1.0000
  C   C650      1.0  0.42630  0.66882  0.97404  1.0000
  H   H1130     1.0  0.56285  0.69216  0.41997  1.0000
  H   H1131     1.0  0.38195  0.61464  0.11381  1.0000
  C   C651      1.0  0.39280  0.61315  0.13220  1.0000
  H   H1132     1.0  0.55667  0.65908  0.42920  1.0000
  H   H1133     1.0  0.36521  0.71702  0.42175  1.0000
  H   H1134     1.0  0.42853  0.48854  0.06239  1.0000
  H   H1135     1.0  0.64895  0.62138  0.09127  1.0000
  H   H1136     1.0  0.42169  0.68485  0.98764  1.0000
  H   H1137     1.0  0.63699  0.94415  0.00881  1.0000
  H   H1138     1.0  0.60463  0.63601  0.36849  1.0000
  H   H1139     1.0  0.65134  0.62498  0.18541  1.0000
  H   H1140     1.0  0.36119  0.65416  0.19992  1.0000
  H   H1141     1.0  0.36567  0.65126  0.15606  1.0000
  C   C652      1.0  0.38947  0.68585  0.40579  1.0000
  H   H1142     1.0  0.65490  0.91127  0.97999  1.0000
  N   N35       1.0  0.34666  0.78870  0.97654  1.0000
  H   H1143     1.0  0.42606  0.53231  0.43618  1.0000
  H   H1144     1.0  0.48303  0.51747  0.36382  1.0000
  C   C653      1.0  0.34568  0.64505  0.24909  1.0000
  H   H1145     1.0  0.33130  0.53967  0.41350  1.0000
  H   H1146     1.0  0.65204  0.70979  0.37474  1.0000
  H   H1147     1.0  0.60330  0.70452  0.44216  1.0000
  C   C654      1.0  0.35589  0.68160  0.34922  1.0000
  H   H1148     1.0  0.35865  0.66251  0.24747  1.0000
  H   H1149     1.0  0.36878  0.75511  0.99030  1.0000
  H   H1150     1.0  0.64115  0.64624  0.97674  1.0000
  C   C655      1.0  0.65345  0.62870  0.16473  1.0000
  H   H1151     1.0  0.63618  0.55332  0.13591  1.0000
  H   H1152     1.0  0.34241  0.50781  0.03796  1.0000
  H   H1153     1.0  0.34329  0.63428  0.13602  1.0000
  C   C656      1.0  0.37109  0.79304  0.96034  1.0000
  H   H1154     1.0  0.35594  0.72358  0.02619  1.0000
  H   H1155     1.0  0.46368  0.68472  0.95776  1.0000
  H   H1156     1.0  0.33942  0.72682  0.36335  1.0000
  C   C657      1.0  0.41350  0.69637  0.42039  1.0000
  H   H1157     1.0  0.48941  0.49359  0.38815  1.0000
  H   H1158     1.0  0.42940  0.61934  0.95443  1.0000
  H   H1159     1.0  0.65373  0.63073  0.36597  1.0000
  H   H1160     1.0  0.33442  0.90805  0.44517  1.0000
  H   H1161     1.0  0.62798  0.48086  0.43991  1.0000
  H   H1162     1.0  0.45229  0.46930  0.04494  1.0000
  C   C658      1.0  0.34784  0.53076  0.40254  1.0000
  H   H1163     1.0  0.64638  0.52516  0.43484  1.0000
  N   N36       1.0  0.41968  0.49759  0.00873  1.0000
  C   C659      1.0  0.38121  0.66632  0.95644  1.0000
  H   H1164     1.0  0.63223  0.70478  0.96546  1.0000
  C   C660      1.0  0.65279  0.68026  0.43682  1.0000
  H   H1165     1.0  0.33328  0.68718  0.19000  1.0000
  S   S138      1.0  0.51210  0.51450  0.95845  1.0000
  H   H1166     1.0  0.35171  0.53013  0.06288  1.0000
  H   H1167     1.0  0.44657  0.50630  0.44595  1.0000
  N   N37       1.0  0.66304  0.57982  0.15572  1.0000
  H   H1168     1.0  0.47195  0.48843  0.08371  1.0000
  C   C661      1.0  0.50180  0.47165  0.98957  1.0000
  H   H1169     1.0  0.37041  0.70544  0.97119  1.0000
  C   C662      1.0  0.33326  0.66882  0.43339  1.0000
  H   H1170     1.0  0.60847  0.75989  0.44165  1.0000
  C   C663      1.0  0.35819  0.51263  0.05204  1.0000
  H   H1171     1.0  0.34148  0.69169  0.33653  1.0000
  H   H1172     1.0  0.65855  0.64777  0.02824  1.0000
  H   H1173     1.0  0.33956  0.51513  0.39017  1.0000
  N   N38       1.0  0.33324  0.63282  0.17619  1.0000
  H   H1174     1.0  0.64790  0.66330  0.42442  1.0000
  H   H1175     1.0  0.65293  0.67045  0.17173  1.0000
  H   H1176     1.0  0.44339  0.50284  0.95890  1.0000
  H   H1177     1.0  0.46934  0.48510  0.36067  1.0000
  H   H1178     1.0  0.33886  0.75117  0.40711  1.0000
  H   H1179     1.0  0.33015  0.69048  0.99507  1.0000
  C   C664      1.0  0.44652  0.48946  0.05027  1.0000
  H   H1180     1.0  0.66149  0.70051  0.05603  1.0000
  H   H1181     1.0  0.42584  0.78297  0.95362  1.0000
  H   H1182     1.0  0.66310  0.76443  0.41574  1.0000
  C   C665      1.0  0.33012  0.75151  0.00682  1.0000
  H   H1183     1.0  0.33041  0.77402  0.36646  1.0000
  S   S139      1.0  0.46024  0.57786  0.45226  1.0000
  H   H1184     1.0  0.52062  0.86719  0.58721  1.0000
  H   H1185     1.0  0.52938  0.65239  0.55211  1.0000
  Fe  Fe71      1.0  0.50765  0.74331  0.58637  1.0000
  S   S140      1.0  0.50762  0.77410  0.55630  1.0000
  S   S141      1.0  0.51992  0.70202  0.57610  1.0000
  Fe  Fe72      1.0  0.49101  0.78135  0.62825  1.0000
  S   S142      1.0  0.48960  0.81496  0.60043  1.0000
  S   S143      1.0  0.47634  0.78938  0.66896  1.0000
  Fe  Fe73      1.0  0.46898  0.78742  0.57366  1.0000
  S   S144      1.0  0.43736  0.79794  0.54407  1.0000
  S   S145      1.0  0.46765  0.75459  0.60204  1.0000
  Fe  Fe74      1.0  0.48215  0.74310  0.86412  1.0000
  S   S146      1.0  0.48306  0.77295  0.89521  1.0000
  S   S147      1.0  0.47007  0.70105  0.87024  1.0000
  Fe  Fe75      1.0  0.50162  0.78137  0.82338  1.0000
  S   S148      1.0  0.50409  0.81450  0.85195  1.0000
  S   S149      1.0  0.52016  0.77994  0.78330  1.0000
  Fe  Fe76      1.0  0.46428  0.79957  0.86640  1.0000
  S   S150      1.0  0.43163  0.82717  0.88065  1.0000
  S   S151      1.0  0.46071  0.76863  0.83596  1.0000
  C   C666      1.0  0.40300  0.80509  0.54810  1.0000
  C   C667      1.0  0.39159  0.80854  0.57213  1.0000
  C   C668      1.0  0.36439  0.81488  0.57428  1.0000
  H   H1186     1.0  0.53537  0.89619  0.63675  1.0000
  C   C669      1.0  0.35943  0.81329  0.52853  1.0000
  C   C670      1.0  0.38672  0.80733  0.52635  1.0000
  H   H1187     1.0  0.40380  0.80684  0.58903  1.0000
  H   H1188     1.0  0.35590  0.81809  0.59294  1.0000
  H   H1189     1.0  0.56502  0.50081  0.49491  1.0000
  H   H1190     1.0  0.39534  0.80477  0.50766  1.0000
  C   C671      1.0  0.48908  0.78630  0.70050  1.0000
  C   C672      1.0  0.50760  0.78295  0.75165  1.0000
  C   C673      1.0  0.48207  0.79234  0.74645  1.0000
  C   C674      1.0  0.47291  0.79393  0.72106  1.0000
  H   H1191     1.0  0.46941  0.79849  0.76196  1.0000
  H   H1192     1.0  0.45315  0.80135  0.71730  1.0000
  C   C675      1.0  0.57100  0.53958  0.50880  1.0000
  C   C676      1.0  0.35401  0.83381  0.90206  1.0000
  C   C677      1.0  0.38149  0.83814  0.89873  1.0000
  C   C678      1.0  0.39738  0.82014  0.88536  1.0000
  C   C679      1.0  0.38548  0.79758  0.87559  1.0000
  C   C680      1.0  0.35791  0.79353  0.87845  1.0000
  H   H1193     1.0  0.62707  0.88813  0.47290  1.0000
  H   H1194     1.0  0.39056  0.85561  0.90644  1.0000
  H   H1195     1.0  0.39741  0.78364  0.86518  1.0000
  C   C681      1.0  0.42955  0.60709  0.91528  1.0000
  H   H1196     1.0  0.62980  0.74249  0.86662  1.0000
  C   C682      1.0  0.49911  0.64598  0.91843  1.0000
  C   C683      1.0  0.48524  0.65854  0.89860  1.0000
  C   C684      1.0  0.48864  0.68534  0.89428  1.0000
  C   C685      1.0  0.59935  0.70726  0.93955  1.0000
  H   H1197     1.0  0.47180  0.64749  0.88662  1.0000
  C   C686      1.0  0.48726  0.66504  0.50272  1.0000
  C   C687      1.0  0.50784  0.68838  0.54737  1.0000
  C   C688      1.0  0.49030  0.70221  0.53175  1.0000
  C   C689      1.0  0.48011  0.69056  0.50951  1.0000
  H   H1198     1.0  0.48428  0.72172  0.53703  1.0000
  H   H1199     1.0  0.46644  0.70127  0.49761  1.0000
  H   H1200     1.0  0.60305  0.65501  0.49750  1.0000
  H   H1201     1.0  0.56087  0.52933  0.45852  1.0000
  C   C690      1.0  0.63843  0.82938  0.90210  1.0000
  H   H1202     1.0  0.51118  0.63181  0.51274  1.0000
  Fe  Fe77      1.0  0.52836  0.79906  0.58534  1.0000
  S   S152      1.0  0.56044  0.82729  0.57153  1.0000
  S   S153      1.0  0.53112  0.76735  0.61480  1.0000
  Fe  Fe78      1.0  0.52254  0.78542  0.87886  1.0000
  S   S154      1.0  0.55702  0.78819  0.90731  1.0000
  S   S155      1.0  0.52256  0.75338  0.84977  1.0000
  C   C691      1.0  0.59570  0.82560  0.57201  1.0000
  C   C692      1.0  0.60956  0.80703  0.58632  1.0000
  C   C693      1.0  0.63760  0.80767  0.58726  1.0000
  H   H1203     1.0  0.42752  0.72371  0.47524  1.0000
  C   C694      1.0  0.63822  0.84417  0.55821  1.0000
  C   C695      1.0  0.61020  0.84415  0.55803  1.0000
  H   H1204     1.0  0.59871  0.79252  0.59703  1.0000
  H   H1205     1.0  0.58066  0.77302  0.82316  1.0000
  H   H1206     1.0  0.61926  0.48799  0.91126  1.0000
  H   H1207     1.0  0.59969  0.85875  0.54710  1.0000
  C   C696      1.0  0.51458  0.77675  0.70568  1.0000
  C   C697      1.0  0.52379  0.77524  0.73109  1.0000
  H   H1208     1.0  0.52721  0.77061  0.69014  1.0000
  H   H1209     1.0  0.54356  0.76790  0.73487  1.0000
  H   H1210     1.0  0.58326  0.69480  0.93156  1.0000
  C   C698      1.0  0.63206  0.81361  0.92295  1.0000
  C   C699      1.0  0.60694  0.80146  0.92432  1.0000
  C   C700      1.0  0.58788  0.80490  0.90495  1.0000
  C   C701      1.0  0.59415  0.82089  0.88423  1.0000
  C   C702      1.0  0.61929  0.83305  0.88285  1.0000
  H   H1211     1.0  0.62635  0.90438  0.65169  1.0000
  H   H1212     1.0  0.45054  0.76304  0.46151  1.0000
  H   H1213     1.0  0.57967  0.82379  0.86924  1.0000
  H   H1214     1.0  0.62983  0.78924  0.53555  1.0000
  C   C703      1.0  0.50649  0.69940  0.90947  1.0000
  H   H1215     1.0  0.60444  0.84533  0.47063  1.0000
  H   H1216     1.0  0.50949  0.72002  0.90619  1.0000
  H   H1217     1.0  0.34709  0.88806  0.85347  1.0000
  C   C704      1.0  0.50557  0.65151  0.51780  1.0000
  C   C705      1.0  0.51575  0.66315  0.54012  1.0000
  H   H1218     1.0  0.37418  0.72027  0.59758  1.0000
  H   H1219     1.0  0.58443  0.46371  0.48294  1.0000
  C   C706      1.0  0.49867  0.85922  0.71885  1.0000
  H   H1220     1.0  0.60241  0.59051  0.94807  1.0000
  H   H1221     1.0  0.62462  0.87365  0.50406  1.0000
  H   H1222     1.0  0.54108  0.86205  0.71487  1.0000
  H   H1223     1.0  0.63462  0.60602  0.94899  1.0000
  H   H1224     1.0  0.39350  0.69381  0.90285  1.0000
  H   H1225     1.0  0.58934  0.50570  0.90369  1.0000
  H   H1226     1.0  0.51530  0.87462  0.67393  1.0000
  S   S156      1.0  0.47166  0.65058  0.47603  1.0000
  C   C707      1.0  0.58163  0.52431  0.46402  1.0000
  H   H1227     1.0  0.59126  0.72266  0.48238  1.0000
  H   H1228     1.0  0.40381  0.74940  0.92262  1.0000
  H   H1229     1.0  0.40633  0.65499  0.91247  1.0000
  C   C708      1.0  0.58516  0.65629  0.48503  1.0000
  H   H1230     1.0  0.59587  0.72419  0.54098  1.0000
  H   H1231     1.0  0.37714  0.65206  0.47794  1.0000
  H   H1232     1.0  0.52744  0.82984  0.71090  1.0000
  H   H1233     1.0  0.56799  0.65400  0.49821  1.0000
  C   C709      1.0  0.55906  0.82403  0.66797  1.0000
  C   C710      1.0  0.58514  0.81575  0.65471  1.0000
  C   C711      1.0  0.59143  0.78707  0.65986  1.0000
  H   H1234     1.0  0.56291  0.82129  0.68864  1.0000
  H   H1235     1.0  0.54332  0.80958  0.66272  1.0000
  H   H1236     1.0  0.39364  0.74856  0.60593  1.0000
  H   H1237     1.0  0.56859  0.68741  0.52520  1.0000
  H   H1238     1.0  0.58390  0.81826  0.63381  1.0000
  H   H1239     1.0  0.60207  0.82724  0.66233  1.0000
  H   H1240     1.0  0.59390  0.78359  0.68062  1.0000
  H   H1241     1.0  0.57533  0.77430  0.65248  1.0000
  H   H1242     1.0  0.35727  0.83429  0.83903  1.0000
  C   C712      1.0  0.49154  0.46874  0.49412  1.0000
  C   C713      1.0  0.33157  0.74095  0.48323  1.0000
  C   C714      1.0  0.55296  0.80106  0.50372  1.0000
  C   C715      1.0  0.59704  0.79363  0.48170  1.0000
  H   H1243     1.0  0.51849  0.90172  0.59309  1.0000
  H   H1244     1.0  0.49656  0.62530  0.92164  1.0000
  H   H1245     1.0  0.59281  0.54293  0.46234  1.0000
  C   C716      1.0  0.58317  0.80351  0.50617  1.0000
  H   H1246     1.0  0.62088  0.79474  0.83880  1.0000
  H   H1247     1.0  0.62467  0.67507  0.94861  1.0000
  H   H1248     1.0  0.57278  0.60551  0.49808  1.0000
  C   C717      1.0  0.39411  0.70796  0.91880  1.0000
  C   C718      1.0  0.63416  0.68129  0.45979  1.0000
  H   H1249     1.0  0.35154  0.83559  0.80520  1.0000
  C   C719      1.0  0.58850  0.60711  0.48331  1.0000
  H   H1250     1.0  0.57989  0.47178  0.93527  1.0000
  H   H1251     1.0  0.64076  0.69783  0.47194  1.0000
  H   H1252     1.0  0.37803  0.77428  0.95210  1.0000
  C   C720      1.0  0.65211  0.82604  0.57297  1.0000
  H   H1253     1.0  0.54695  0.78037  0.50116  1.0000
  C   C721      1.0  0.41879  0.65295  0.92982  1.0000
  C   C722      1.0  0.59157  0.76437  0.83952  1.0000
  H   H1254     1.0  0.57723  0.74660  0.52120  1.0000
  H   H1255     1.0  0.65593  0.87330  0.48713  1.0000
  H   H1256     1.0  0.50640  0.87634  0.63135  1.0000
  H   H1257     1.0  0.58115  0.89348  0.63787  1.0000
  H   H1258     1.0  0.62254  0.88547  0.68034  1.0000
  C   C723      1.0  0.63604  0.76296  0.86271  1.0000
  H   H1259     1.0  0.54552  0.81278  0.48742  1.0000
  C   C724      1.0  0.62062  0.77305  0.83898  1.0000
  H   H1260     1.0  0.55845  0.88953  0.67837  1.0000
  C   C725      1.0  0.56913  0.70552  0.51367  1.0000
  H   H1261     1.0  0.58611  0.55536  0.50845  1.0000
  H   H1262     1.0  0.36881  0.66634  0.93884  1.0000
  H   H1263     1.0  0.62110  0.48653  0.47244  1.0000
  H   H1264     1.0  0.34366  0.76306  0.92530  1.0000
  H   H1265     1.0  0.49220  0.47658  0.51325  1.0000
  C   C726      1.0  0.42171  0.53139  0.48666  1.0000
  H   H1266     1.0  0.55168  0.70869  0.46187  1.0000
  C   C727      1.0  0.38495  0.64634  0.49692  1.0000
  C   C728      1.0  0.34197  0.81171  0.89145  1.0000
  N   N39       1.0  0.47108  0.71005  0.76164  1.0000
  C   C729      1.0  0.45731  0.73146  0.77633  1.0000
  C   C730      1.0  0.49965  0.70831  0.77039  1.0000
  C   C731      1.0  0.47134  0.71794  0.73387  1.0000
  C   C732      1.0  0.45729  0.68393  0.76406  1.0000
  C   C733      1.0  0.44270  0.67823  0.78956  1.0000
  C   C734      1.0  0.42973  0.73978  0.76580  1.0000
  C   C735      1.0  0.48818  0.70073  0.71571  1.0000
  C   C736      1.0  0.50449  0.70212  0.79887  1.0000
  C   C737      1.0  0.53412  0.70353  0.80530  1.0000
  C   C738      1.0  0.43454  0.64957  0.79141  1.0000
  C   C739      1.0  0.41453  0.75660  0.78487  1.0000
  C   C740      1.0  0.48274  0.70753  0.68782  1.0000
  H   H1267     1.0  0.46995  0.74926  0.77683  1.0000
  H   H1268     1.0  0.45490  0.72623  0.79666  1.0000
  H   H1269     1.0  0.51036  0.69274  0.75983  1.0000
  H   H1270     1.0  0.51022  0.72686  0.76591  1.0000
  H   H1271     1.0  0.47876  0.73827  0.73186  1.0000
  H   H1272     1.0  0.45079  0.71804  0.72596  1.0000
  H   H1273     1.0  0.44192  0.68152  0.74891  1.0000
  H   H1274     1.0  0.47172  0.66785  0.76059  1.0000
  H   H1275     1.0  0.42432  0.69010  0.79091  1.0000
  H   H1276     1.0  0.45495  0.68287  0.80649  1.0000
  H   H1277     1.0  0.43231  0.75163  0.74825  1.0000
  H   H1278     1.0  0.41737  0.72253  0.76094  1.0000
  H   H1279     1.0  0.48376  0.67972  0.71852  1.0000
  H   H1280     1.0  0.50971  0.70415  0.71911  1.0000
  H   H1281     1.0  0.49409  0.71604  0.81155  1.0000
  H   H1282     1.0  0.49795  0.68196  0.80320  1.0000
  H   H1283     1.0  0.54553  0.68927  0.79373  1.0000
  H   H1284     1.0  0.54194  0.72348  0.80172  1.0000
  H   H1285     1.0  0.53711  0.69885  0.82577  1.0000
  H   H1286     1.0  0.63155  0.82656  0.50880  1.0000
  H   H1287     1.0  0.54337  0.80855  0.52129  1.0000
  H   H1288     1.0  0.37309  0.62957  0.50399  1.0000
  H   H1289     1.0  0.41109  0.74575  0.80288  1.0000
  H   H1290     1.0  0.42579  0.77478  0.78904  1.0000
  H   H1291     1.0  0.39495  0.76211  0.77671  1.0000
  H   H1292     1.0  0.49563  0.69556  0.67524  1.0000
  H   H1293     1.0  0.46166  0.70354  0.68279  1.0000
  H   H1294     1.0  0.48714  0.72844  0.68414  1.0000
  H   H1295     1.0  0.41007  0.71786  0.60044  1.0000
  C   C741      1.0  0.59940  0.48648  0.90207  1.0000
  H   H1296     1.0  0.62791  0.77476  0.87869  1.0000
  H   H1297     1.0  0.49939  0.85449  0.73950  1.0000
  C   C742      1.0  0.49544  0.48554  0.47326  1.0000
  C   C743      1.0  0.59037  0.88104  0.65274  1.0000
  C   C744      1.0  0.36811  0.72932  0.51472  1.0000
  H   H1298     1.0  0.39799  0.69448  0.48621  1.0000
  H   H1299     1.0  0.49572  0.88057  0.71671  1.0000
  H   H1300     1.0  0.42139  0.64410  0.77523  1.0000
  H   H1301     1.0  0.55165  0.54732  0.50193  1.0000
  H   H1302     1.0  0.37947  0.75063  0.56091  1.0000
  C   C745      1.0  0.35620  0.72411  0.48786  1.0000
  H   H1303     1.0  0.53148  0.83675  0.62799  1.0000
  H   H1304     1.0  0.41514  0.53622  0.93810  1.0000
  H   H1305     1.0  0.58702  0.58989  0.47058  1.0000
  H   H1306     1.0  0.40539  0.75168  0.47635  1.0000
  H   H1307     1.0  0.61217  0.71378  0.92360  1.0000
  N   N40       1.0  0.54927  0.85133  0.66264  1.0000
  H   H1308     1.0  0.56166  0.85277  0.62295  1.0000
  H   H1309     1.0  0.63683  0.66288  0.47055  1.0000
  H   H1310     1.0  0.36831  0.75085  0.51785  1.0000
  H   H1311     1.0  0.54878  0.70929  0.50635  1.0000
  H   H1312     1.0  0.41510  0.74878  0.56437  1.0000
  H   H1313     1.0  0.60041  0.86478  0.64282  1.0000
  C   C746      1.0  0.40240  0.73425  0.90759  1.0000
  S   S157      1.0  0.50261  0.51907  0.47899  1.0000
  C   C747      1.0  0.57641  0.72788  0.53166  1.0000
  H   H1314     1.0  0.60190  0.48182  0.88154  1.0000
  H   H1315     1.0  0.55060  0.88616  0.59200  1.0000
  H   H1316     1.0  0.41982  0.61174  0.89682  1.0000
  H   H1317     1.0  0.58185  0.77098  0.85736  1.0000
  H   H1318     1.0  0.62398  0.84524  0.86667  1.0000
  C   C748      1.0  0.64723  0.78197  0.52497  1.0000
  H   H1319     1.0  0.58757  0.82437  0.50982  1.0000
  H   H1320     1.0  0.56110  0.72968  0.54677  1.0000
  H   H1321     1.0  0.42200  0.73259  0.89794  1.0000
  H   H1322     1.0  0.59072  0.77303  0.47903  1.0000
  H   H1323     1.0  0.43926  0.65776  0.92352  1.0000
  N   N41       1.0  0.39522  0.71791  0.52057  1.0000
  C   C749      1.0  0.40037  0.69241  0.50709  1.0000
  C   C750      1.0  0.41703  0.73700  0.51397  1.0000
  C   C751      1.0  0.39706  0.71299  0.54893  1.0000
  C   C752      1.0  0.61174  0.89738  0.66600  1.0000
  H   H1324     1.0  0.60275  0.91461  0.67550  1.0000
  Fe  Fe79      1.0  0.48607  0.61346  0.45677  1.0000
  C   C753      1.0  0.39626  0.73766  0.56615  1.0000
  C   C754      1.0  0.42262  0.74200  0.48542  1.0000
  C   C755      1.0  0.44638  0.76030  0.48209  1.0000
  C   C756      1.0  0.52780  0.87869  0.62661  1.0000
  H   H1325     1.0  0.56277  0.46555  0.90586  1.0000
  C   C757      1.0  0.39333  0.73048  0.59423  1.0000
  H   H1326     1.0  0.42149  0.68641  0.50988  1.0000
  C   C758      1.0  0.58485  0.63194  0.46763  1.0000
  H   H1327     1.0  0.41243  0.75639  0.52210  1.0000
  H   H1328     1.0  0.43611  0.73083  0.52297  1.0000
  H   H1329     1.0  0.41580  0.70234  0.55360  1.0000
  H   H1330     1.0  0.38049  0.70018  0.55530  1.0000
  H   H1331     1.0  0.45239  0.63683  0.79143  1.0000
  C   C759      1.0  0.52459  0.85070  0.70619  1.0000
  C   C760      1.0  0.56896  0.87155  0.67199  1.0000
  H   H1332     1.0  0.60922  0.69970  0.50112  1.0000
  H   H1333     1.0  0.57941  0.86425  0.68930  1.0000
  H   H1334     1.0  0.48147  0.84878  0.71025  1.0000
  H   H1335     1.0  0.50799  0.84097  0.66920  1.0000
  H   H1336     1.0  0.42630  0.58612  0.91922  1.0000
  H   H1337     1.0  0.60226  0.78922  0.94047  1.0000
  H   H1338     1.0  0.36960  0.86156  0.82070  1.0000
  C   C761      1.0  0.51683  0.66012  0.93367  1.0000
  H   H1339     1.0  0.34383  0.89476  0.89724  1.0000
  H   H1340     1.0  0.41713  0.81362  0.93876  1.0000
  H   H1341     1.0  0.63967  0.74833  0.45416  1.0000
  C   C762      1.0  0.58971  0.70320  0.49170  1.0000
  H   H1342     1.0  0.37367  0.71006  0.92640  1.0000
  H   H1343     1.0  0.54099  0.67791  0.47321  1.0000
  N   N42       1.0  0.58403  0.68245  0.47192  1.0000
  N   N43       1.0  0.62697  0.79575  0.48082  1.0000
  C   C763      1.0  0.54331  0.85379  0.63455  1.0000
  H   H1344     1.0  0.40598  0.63999  0.49487  1.0000
  H   H1345     1.0  0.58799  0.80435  0.46541  1.0000
  H   H1346     1.0  0.58929  0.79194  0.52292  1.0000
  H   H1347     1.0  0.46443  0.75212  0.49134  1.0000
  H   H1348     1.0  0.64652  0.81069  0.93795  1.0000
  C   C764      1.0  0.34817  0.81748  0.55254  1.0000
  H   H1349     1.0  0.34206  0.84778  0.91235  1.0000
  H   H1350     1.0  0.62761  0.75688  0.49751  1.0000
  H   H1351     1.0  0.64911  0.85874  0.54758  1.0000
  C   C765      1.0  0.55646  0.68747  0.46118  1.0000
  C   C766      1.0  0.52336  0.85465  0.67687  1.0000
  H   H1352     1.0  0.45002  0.54427  0.93647  1.0000
  C   C767      1.0  0.38297  0.66906  0.51572  1.0000
  H   H1353     1.0  0.60835  0.60695  0.49261  1.0000
  H   H1354     1.0  0.34880  0.77637  0.87014  1.0000
  C   C768      1.0  0.52061  0.68680  0.92900  1.0000
  H   H1355     1.0  0.37049  0.72809  0.47242  1.0000
  C   C769      1.0  0.58257  0.46562  0.91515  1.0000
  C   C770      1.0  0.41795  0.62357  0.93685  1.0000
  H   H1356     1.0  0.34242  0.91931  0.47707  1.0000
  H   H1357     1.0  0.34999  0.70342  0.48609  1.0000
  H   H1358     1.0  0.59942  0.50999  0.49997  1.0000
  N   N44       1.0  0.40990  0.67181  0.95014  1.0000
  H   H1359     1.0  0.42356  0.64630  0.80947  1.0000
  H   H1360     1.0  0.50533  0.47097  0.92498  1.0000
  H   H1361     1.0  0.45126  0.61051  0.91363  1.0000
  C   C771      1.0  0.52957  0.88369  0.59798  1.0000
  H   H1362     1.0  0.61022  0.78169  0.65009  1.0000
  H   H1363     1.0  0.33677  0.76202  0.48398  1.0000
  H   H1364     1.0  0.34725  0.81533  0.51165  1.0000
  H   H1365     1.0  0.59005  0.74280  0.83821  1.0000
  C   C772      1.0  0.57998  0.51655  0.49243  1.0000
  H   H1366     1.0  0.62924  0.76637  0.82078  1.0000
  H   H1367     1.0  0.38750  0.74060  0.89325  1.0000
  C   C773      1.0  0.35292  0.84752  0.82283  1.0000
  H   H1368     1.0  0.44207  0.77971  0.49058  1.0000
  H   H1369     1.0  0.65035  0.72892  0.82111  1.0000
  H   H1370     1.0  0.56843  0.53309  0.52883  1.0000
  H   H1371     1.0  0.56550  0.63036  0.45775  1.0000
  C   C774      1.0  0.63663  0.82244  0.48867  1.0000
  H   H1372     1.0  0.44366  0.53011  0.48870  1.0000
  C   C775      1.0  0.63998  0.77487  0.49710  1.0000
  H   H1373     1.0  0.53433  0.69786  0.94067  1.0000
  C   C776      1.0  0.50284  0.46377  0.94419  1.0000
  H   H1374     1.0  0.64818  0.79374  0.59895  1.0000
  H   H1375     1.0  0.63544  0.53461  0.46627  1.0000
  H   H1376     1.0  0.36622  0.80568  0.94378  1.0000
  H   H1377     1.0  0.33923  0.91282  0.94046  1.0000
  H   H1378     1.0  0.41531  0.49121  0.47795  1.0000
  H   H1379     1.0  0.43403  0.70157  0.93219  1.0000
  C   C777      1.0  0.41142  0.51024  0.46865  1.0000
  C   C778      1.0  0.41363  0.69921  0.94011  1.0000
  C   C779      1.0  0.63400  0.87173  0.48500  1.0000
  H   H1380     1.0  0.36180  0.67473  0.51765  1.0000
  S   S158      1.0  0.52382  0.59055  0.46163  1.0000
  C   C780      1.0  0.33130  0.75635  0.94155  1.0000
  H   H1381     1.0  0.64319  0.74271  0.54058  1.0000
  H   H1382     1.0  0.38999  0.66186  0.53453  1.0000
  H   H1383     1.0  0.65932  0.76881  0.48865  1.0000
  C   C781      1.0  0.62638  0.84575  0.47263  1.0000
  H   H1384     1.0  0.41270  0.52885  0.50579  1.0000
  H   H1385     1.0  0.41619  0.55101  0.47945  1.0000
  H   H1386     1.0  0.35294  0.72200  0.52843  1.0000
  C   C782      1.0  0.65833  0.75840  0.53926  1.0000
  H   H1387     1.0  0.34263  0.74123  0.95200  1.0000
  H   H1388     1.0  0.64252  0.75222  0.91249  1.0000
  H   H1389     1.0  0.39717  0.61697  0.93970  1.0000
  H   H1390     1.0  0.65870  0.82293  0.48785  1.0000
  H   H1391     1.0  0.59038  0.72477  0.94859  1.0000
  H   H1392     1.0  0.38964  0.51255  0.46714  1.0000
  Fe  Fe80      1.0  0.49848  0.55490  0.45326  1.0000
  C   C783      1.0  0.43281  0.54197  0.94952  1.0000
  C   C784      1.0  0.63563  0.79141  0.45361  1.0000
  H   H1393     1.0  0.63542  0.84549  0.45335  1.0000
  C   C785      1.0  0.64194  0.51798  0.45431  1.0000
  H   H1394     1.0  0.33090  0.91599  0.81077  1.0000
  H   H1395     1.0  0.60104  0.63234  0.45334  1.0000
  C   C786      1.0  0.62066  0.49598  0.45348  1.0000
  H   H1396     1.0  0.33197  0.92786  0.89673  1.0000
  H   H1397     1.0  0.66298  0.79721  0.52534  1.0000
  H   H1398     1.0  0.33134  0.93012  0.85476  1.0000
  H   H1399     1.0  0.94924  0.18934  0.05442  1.0000
  H   H1400     1.0  0.78204  0.97888  0.37096  1.0000
  S   S159      1.0  0.73551  0.04748  0.41302  1.0000
  H   H1401     1.0  0.98246  0.01893  0.18944  1.0000
  C   C787      1.0  0.94641  0.04312  0.07634  1.0000
  H   H1402     1.0  0.96764  0.18004  0.99746  1.0000
  Fe  Fe81      1.0  0.71362  0.08598  0.41284  1.0000
  S   S160      1.0  0.68143  0.10008  0.38510  1.0000
  Fe  Fe82      1.0  0.77364  0.07104  0.41416  1.0000
  S   S161      1.0  0.80790  0.05804  0.38864  1.0000
  Fe  Fe83      1.0  0.96941  0.12259  0.08749  1.0000
  S   S162      1.0  0.93588  0.10942  0.06059  1.0000
  S   S163      1.0  0.96826  0.15282  0.11848  1.0000
  H   H1403     1.0  0.94521  0.14913  0.24936  1.0000
  H   H1404     1.0  0.91193  0.15910  0.24180  1.0000
  C   C788      1.0  0.80528  0.99944  0.43067  1.0000
  H   H1405     1.0  0.69523  0.15212  0.08530  1.0000
  H   H1406     1.0  0.95678  0.06909  0.30391  1.0000
  H   H1407     1.0  0.99142  0.04697  0.17060  1.0000
  Fe  Fe84      1.0  0.96318  0.11297  0.36438  1.0000
  S   S164      1.0  0.92826  0.08490  0.35991  1.0000
  S   S165      1.0  0.96224  0.15616  0.35689  1.0000
  Fe  Fe85      1.0  0.71355  0.08381  0.03905  1.0000
  S   S166      1.0  0.71096  0.08236  0.99650  1.0000
  S   S167      1.0  0.67802  0.08198  0.06635  1.0000
  Fe  Fe86      1.0  0.77546  0.09128  0.03815  1.0000
  S   S168      1.0  0.77654  0.09026  0.99522  1.0000
  S   S169      1.0  0.80892  0.10180  0.06642  1.0000
  Fe  Fe87      1.0  0.74009  0.11575  0.99662  1.0000
  S   S170      1.0  0.73203  0.15581  0.97978  1.0000
  Fe  Fe88      1.0  0.74738  0.05652  0.99880  1.0000
  S   S171      1.0  0.74783  0.02092  0.97223  1.0000
  S   S172      1.0  0.74053  0.11862  0.03928  1.0000
  S   S173      1.0  0.74847  0.05611  0.04167  1.0000
  C   C789      1.0  0.90052  0.10831  0.06217  1.0000
  C   C790      1.0  0.88634  0.11947  0.08226  1.0000
  C   C791      1.0  0.85839  0.11730  0.08317  1.0000
  C   C792      1.0  0.84412  0.10457  0.06365  1.0000
  C   C793      1.0  0.85826  0.09408  0.04312  1.0000
  C   C794      1.0  0.88629  0.09581  0.04251  1.0000
  H   H1408     1.0  0.89685  0.13006  0.09688  1.0000
  H   H1409     1.0  0.84764  0.12577  0.09897  1.0000
  H   H1410     1.0  0.84762  0.08424  0.02797  1.0000
  H   H1411     1.0  0.89700  0.08725  0.02673  1.0000
  H   H1412     1.0  0.94590  0.19207  0.23016  1.0000
  H   H1413     1.0  0.95640  0.19447  0.26287  1.0000
  H   H1414     1.0  0.95581  0.02483  0.06952  1.0000
  H   H1415     1.0  0.89847  0.17427  0.32920  1.0000
  C   C795      1.0  0.88535  0.15687  0.32759  1.0000
  H   H1416     1.0  0.91979  0.16583  0.99201  1.0000
  C   C796      1.0  0.84121  0.06772  0.38226  1.0000
  C   C797      1.0  0.85502  0.05297  0.36419  1.0000
  C   C798      1.0  0.88142  0.05877  0.35799  1.0000
  C   C799      1.0  0.89485  0.07948  0.36971  1.0000
  C   C800      1.0  0.88133  0.09442  0.38809  1.0000
  C   C801      1.0  0.85444  0.08858  0.39433  1.0000
  H   H1417     1.0  0.84517  0.03679  0.35482  1.0000
  H   H1418     1.0  0.89156  0.04696  0.34395  1.0000
  S   S174      1.0  0.75178  0.10868  0.41012  1.0000
  H   H1419     1.0  0.82053  0.99952  0.39119  1.0000
  H   H1420     1.0  0.89415  0.43658  0.02041  1.0000
  H   H1421     1.0  0.87388  0.14874  0.26934  1.0000
  C   C802      1.0  0.74631  0.98696  0.97909  1.0000
  H   H1422     1.0  0.93560  0.04429  0.29057  1.0000
  H   H1423     1.0  0.95314  0.06630  0.26964  1.0000
  H   H1424     1.0  0.75982  0.98985  0.01789  1.0000
  C   C803      1.0  0.86034  0.11238  0.28459  1.0000
  H   H1425     1.0  0.92327  0.20471  0.25375  1.0000
  C   C804      1.0  0.67356  0.96668  0.01504  1.0000
  C   C805      1.0  0.80726  0.98771  0.40345  1.0000
  H   H1426     1.0  0.90478  0.07725  0.27405  1.0000
  C   C806      1.0  0.67168  0.15670  0.05100  1.0000
  C   C807      1.0  0.91350  0.43568  0.01039  1.0000
  H   H1427     1.0  0.68586  0.18538  0.07860  1.0000
  H   H1428     1.0  0.83798  0.17418  0.00964  1.0000
  H   H1429     1.0  0.93541  0.21083  0.99203  1.0000
  C   C808      1.0  0.91896  0.08330  0.28920  1.0000
  H   H1430     1.0  0.83031  0.12588  0.25761  1.0000
  H   H1431     1.0  0.84708  0.09607  0.24830  1.0000
  C   C809      1.0  0.97580  0.03851  0.18307  1.0000
  H   H1432     1.0  0.86743  0.09330  0.29159  1.0000
  H   H1433     1.0  0.84407  0.10005  0.40847  1.0000
  H   H1434     1.0  0.95163  0.21841  0.02111  1.0000
  H   H1435     1.0  0.85993  0.13500  0.35358  1.0000
  H   H1436     1.0  0.91687  0.22092  0.11081  1.0000
  H   H1437     1.0  0.89156  0.11024  0.39760  1.0000
  H   H1438     1.0  0.90187  0.45972  0.97884  1.0000
  H   H1439     1.0  0.74148  0.98688  0.44183  1.0000
  H   H1440     1.0  0.93192  0.16029  0.44321  1.0000
  C   C810      1.0  0.92792  0.11178  0.28461  1.0000
  H   H1441     1.0  0.77691  0.27647  0.97409  1.0000
  H   H1442     1.0  0.90720  0.17516  0.28740  1.0000
  C   C811      1.0  0.91353  0.41086  0.99420  1.0000
  C   C812      1.0  0.69974  0.16258  0.41559  1.0000
  H   H1443     1.0  0.77199  0.00724  0.38870  1.0000
  H   H1444     1.0  0.92715  0.22965  0.06567  1.0000
  H   H1445     1.0  0.82253  0.09555  0.27325  1.0000
  H   H1446     1.0  0.86271  0.16931  0.36061  1.0000
  C   C813      1.0  0.87383  0.15186  0.35403  1.0000
  C   C814      1.0  0.90165  0.13317  0.31790  1.0000
  H   H1447     1.0  0.83652  0.19031  0.04037  1.0000
  C   C815      1.0  0.91787  0.46018  0.99349  1.0000
  C   C816      1.0  0.89452  0.04052  0.43250  1.0000
  C   C817      1.0  0.92847  0.16685  0.01155  1.0000
  H   H1448     1.0  0.76588  0.97489  0.40132  1.0000
  C   C818      1.0  0.72484  0.17242  0.40236  1.0000
  H   H1449     1.0  0.86880  0.16166  0.31442  1.0000
  H   H1450     1.0  0.90753  0.24530  0.03184  1.0000
  C   C819      1.0  0.88312  0.12945  0.27350  1.0000
  C   C820      1.0  0.69309  0.17960  0.43918  1.0000
  H   H1451     1.0  0.70324  0.14208  0.42137  1.0000
  C   C821      1.0  0.92079  0.15866  0.28315  1.0000
  C   C822      1.0  0.70609  0.99795  0.05010  1.0000
  C   C823      1.0  0.92896  0.16248  0.25484  1.0000
  N   N45       1.0  0.90772  0.13292  0.28975  1.0000
  C   C824      1.0  0.91581  0.24066  0.01289  1.0000
  H   H1452     1.0  0.92091  0.28151  0.00291  1.0000
  C   C825      1.0  0.67498  0.01305  0.00088  1.0000
  H   H1453     1.0  0.87724  0.16677  0.05410  1.0000
  C   C826      1.0  0.93919  0.19016  0.25022  1.0000
  H   H1454     1.0  0.71015  0.02791  0.07948  1.0000
  H   H1455     1.0  0.71156  0.97708  0.04827  1.0000
  H   H1456     1.0  0.93885  0.16178  0.29520  1.0000
  H   H1457     1.0  0.94616  0.11545  0.29623  1.0000
  N   N46       1.0  0.66452  0.99431  0.02062  1.0000
  C   C827      1.0  0.67581  0.00238  0.04619  1.0000
  C   C828      1.0  0.87323  0.16875  0.03342  1.0000
  S   S175      1.0  0.96244  0.32144  0.96204  1.0000
  C   C829      1.0  0.75342  0.97680  0.00287  1.0000
  H   H1458     1.0  0.93441  0.11207  0.26444  1.0000
  H   H1459     1.0  0.93697  0.45721  0.98306  1.0000
  H   H1460     1.0  0.89695  0.41115  0.98019  1.0000
  C   C830      1.0  0.92719  0.18908  0.05271  1.0000
  C   C831      1.0  0.66504  0.00888  0.97327  1.0000
  H   H1461     1.0  0.93890  0.29266  0.42125  1.0000
  C   C832      1.0  0.83882  0.10722  0.26462  1.0000
  H   H1462     1.0  0.88870  0.12128  0.25457  1.0000
  H   H1463     1.0  0.84866  0.25812  0.95565  1.0000
  H   H1464     1.0  0.89120  0.11514  0.32386  1.0000
  H   H1465     1.0  0.92041  0.13282  0.32910  1.0000
  C   C833      1.0  0.92451  0.20514  0.09832  1.0000
  H   H1466     1.0  0.96045  0.05943  0.07274  1.0000
  H   H1467     1.0  0.89009  0.14790  0.36784  1.0000
  H   H1468     1.0  0.99040  0.11141  0.27450  1.0000
  H   H1469     1.0  0.90942  0.08067  0.30796  1.0000
  H   H1470     1.0  0.89544  0.21327  0.06971  1.0000
  H   H1471     1.0  0.66539  0.99186  0.06185  1.0000
  H   H1472     1.0  0.68353  0.16287  0.40126  1.0000
  H   H1473     1.0  0.98797  0.13693  0.99318  1.0000
  N   N47       1.0  0.91595  0.06433  0.14188  1.0000
  C   C834      1.0  0.89734  0.04163  0.14622  1.0000
  C   C835      1.0  0.93918  0.06336  0.16030  1.0000
  C   C836      1.0  0.90046  0.08902  0.14719  1.0000
  C   C837      1.0  0.92563  0.06539  0.11470  1.0000
  C   C838      1.0  0.94042  0.04096  0.10479  1.0000
  C   C839      1.0  0.87233  0.04052  0.12881  1.0000
  C   C840      1.0  0.91683  0.11472  0.14784  1.0000
  C   C841      1.0  0.94950  0.03612  0.16857  1.0000
  H   H1474     1.0  0.93265  0.40885  0.98382  1.0000
  H   H1475     1.0  0.94299  0.25973  0.98626  1.0000
  C   C842      1.0  0.85577  0.01615  0.13424  1.0000
  C   C843      1.0  0.89924  0.13807  0.15440  1.0000
  H   H1476     1.0  0.89039  0.04173  0.16638  1.0000
  H   H1477     1.0  0.90767  0.02272  0.14379  1.0000
  H   H1478     1.0  0.95630  0.07465  0.15254  1.0000
  H   H1479     1.0  0.93401  0.07320  0.17860  1.0000
  H   H1480     1.0  0.88995  0.08742  0.16580  1.0000
  H   H1481     1.0  0.88478  0.09201  0.13250  1.0000
  H   H1482     1.0  0.90892  0.06972  0.10147  1.0000
  H   H1483     1.0  0.93959  0.08195  0.11209  1.0000
  H   H1484     1.0  0.92856  0.02298  0.10749  1.0000
  H   H1485     1.0  0.95985  0.03905  0.11462  1.0000
  H   H1486     1.0  0.85923  0.05760  0.13200  1.0000
  H   H1487     1.0  0.87795  0.03990  0.10839  1.0000
  H   H1488     1.0  0.92585  0.11839  0.12902  1.0000
  H   H1489     1.0  0.93302  0.11414  0.16219  1.0000
  H   H1490     1.0  0.71187  0.16970  0.06027  1.0000
  H   H1491     1.0  0.84171  0.03603  0.42922  1.0000
  C   C844      1.0  0.96607  0.13840  0.99527  1.0000
  H   H1492     1.0  0.68589  0.20231  0.98480  1.0000
  H   H1493     1.0  0.92161  0.14899  0.02162  1.0000
  H   H1494     1.0  0.70466  0.99529  0.09156  1.0000
  H   H1495     1.0  0.99278  0.27371  0.39700  1.0000
  C   C845      1.0  0.69245  0.16672  0.06990  1.0000
  H   H1496     1.0  0.83795  0.01598  0.12169  1.0000
  H   H1497     1.0  0.86749  0.99823  0.13037  1.0000
  H   H1498     1.0  0.84899  0.01602  0.15437  1.0000
  H   H1499     1.0  0.88261  0.13993  0.14057  1.0000
  H   H1500     1.0  0.89099  0.13597  0.17390  1.0000
  H   H1501     1.0  0.91129  0.15624  0.15373  1.0000
  H   H1502     1.0  0.71771  0.00909  0.03595  1.0000
  H   H1503     1.0  0.85069  0.12243  0.30086  1.0000
  H   H1504     1.0  0.95694  0.13770  0.97600  1.0000
  H   H1505     1.0  0.67869  0.13749  0.04401  1.0000
  C   C846      1.0  0.94265  0.06468  0.28817  1.0000
  C   C847      1.0  0.95904  0.16389  0.00878  1.0000
  H   H1506     1.0  0.96887  0.16353  0.02764  1.0000
  H   H1507     1.0  0.89747  0.03487  0.41225  1.0000
  C   C848      1.0  0.99245  0.42460  0.98069  1.0000
  S   S176      1.0  0.99007  0.39053  0.98718  1.0000
  H   H1508     1.0  0.87838  0.15020  0.02375  1.0000
  C   C849      1.0  0.87757  0.02029  0.44640  1.0000
  H   H1509     1.0  0.68787  0.17771  0.01931  1.0000
  H   H1510     1.0  0.95268  0.02285  0.15227  1.0000
  H   H1511     1.0  0.85531  0.00830  0.41366  1.0000
  C   C850      1.0  0.84328  0.17255  0.03012  1.0000
  C   C851      1.0  0.99319  0.26044  0.41301  1.0000
  H   H1512     1.0  0.81469  0.96737  0.40402  1.0000
  H   H1513     1.0  0.92114  0.16991  0.06081  1.0000
  H   H1514     1.0  0.93252  0.20800  0.44126  1.0000
  N   N48       1.0  0.91887  0.19110  0.02512  1.0000
  H   H1515     1.0  0.88050  0.20983  0.03081  1.0000
  H   H1516     1.0  0.67096  0.03358  0.00664  1.0000
  H   H1517     1.0  0.72216  0.19281  0.39574  1.0000
  H   H1518     1.0  0.89906  0.17253  0.43672  1.0000
  H   H1519     1.0  0.80624  0.23825  0.96369  1.0000
  H   H1520     1.0  0.82488  0.15633  0.96338  1.0000
  S   S177      1.0  0.99427  0.30459  0.44283  1.0000
  H   H1521     1.0  0.89895  0.23936  0.99923  1.0000
  C   C852      1.0  0.71482  0.00691  0.07662  1.0000
  N   N49       1.0  0.83047  0.99935  0.44639  1.0000
  H   H1522     1.0  0.98549  0.09172  0.23138  1.0000
  H   H1523     1.0  0.83253  0.15549  0.03815  1.0000
  C   C853      1.0  0.93165  0.21464  0.01263  1.0000
  C   C854      1.0  0.91502  0.17147  0.45134  1.0000
  H   H1524     1.0  0.95909  0.12140  0.00657  1.0000
  C   C855      1.0  0.85044  0.01636  0.43274  1.0000
  H   H1525     1.0  0.93486  0.02678  0.18152  1.0000
  H   H1526     1.0  0.72737  0.20603  0.95715  1.0000
  H   H1527     1.0  0.92787  0.04641  0.06524  1.0000
  H   H1528     1.0  0.67241  0.02355  0.04969  1.0000
  C   C856      1.0  0.91731  0.21096  0.07062  1.0000
  H   H1529     1.0  0.74216  0.17148  0.41550  1.0000
  H   H1530     1.0  0.94874  0.26743  0.01943  1.0000
  H   H1531     1.0  0.91561  0.18634  0.10451  1.0000
  C   C857      1.0  0.88899  0.19203  0.02207  1.0000
  H   H1532     1.0  0.72911  0.15993  0.38555  1.0000
  H   H1533     1.0  0.94645  0.20431  0.10062  1.0000
  H   H1534     1.0  0.79762  0.01976  0.42891  1.0000
  H   H1535     1.0  0.88381  0.19332  0.00145  1.0000
  H   H1536     1.0  0.69699  0.01191  0.99979  1.0000
  H   H1537     1.0  0.73662  0.00426  0.07873  1.0000
  C   C858      1.0  0.93322  0.26365  0.00483  1.0000
  H   H1538     1.0  0.69381  0.96685  0.00640  1.0000
  C   C859      1.0  0.78007  0.98716  0.39042  1.0000
  H   H1539     1.0  0.91109  0.39353  0.00665  1.0000
  H   H1540     1.0  0.97344  0.05121  0.20009  1.0000
  C   C860      1.0  0.99403  0.27048  0.43792  1.0000
  H   H1541     1.0  0.71077  0.17839  0.45193  1.0000
  H   H1542     1.0  0.92950  0.43354  0.02481  1.0000
  H   H1543     1.0  0.69237  0.20036  0.43310  1.0000
  H   H1544     1.0  0.67719  0.14632  0.98898  1.0000
  C   C861      1.0  0.99092  0.11205  0.23320  1.0000
  H   H1545     1.0  0.90401  0.30128  0.42253  1.0000
  Fe  Fe89      1.0  0.99192  0.35508  0.96027  1.0000
  H   H1546     1.0  0.66395  0.19575  0.03651  1.0000
  C   C862      1.0  0.66801  0.17604  0.02852  1.0000
  H   H1547     1.0  0.89729  0.27119  0.95732  1.0000
  H   H1548     1.0  0.78925  0.98857  0.44031  1.0000
  H   H1549     1.0  0.80842  0.99458  0.96514  1.0000
  H   H1550     1.0  0.88483  0.05995  0.43326  1.0000
  H   H1551     1.0  0.67410  0.13055  0.45141  1.0000
  C   C863      1.0  0.66830  0.19679  0.97322  1.0000
  H   H1552     1.0  0.91432  0.04211  0.44177  1.0000
  H   H1553     1.0  0.93320  0.25031  0.44526  1.0000
  S   S178      1.0  0.99077  0.11200  0.18056  1.0000
  H   H1554     1.0  0.89904  0.25593  0.43983  1.0000
  C   C864      1.0  0.99251  0.23330  0.40868  1.0000
  C   C865      1.0  0.98762  0.43492  0.95648  1.0000
  H   H1555     1.0  0.99157  0.22573  0.38945  1.0000
  H   H1556     1.0  0.84963  0.96541  0.43019  1.0000
  C   C866      1.0  0.99514  0.12699  0.21103  1.0000
  C   C867      1.0  0.73848  0.96958  0.95969  1.0000
  H   H1557     1.0  0.83777  0.20438  0.95992  1.0000
  H   H1558     1.0  0.92873  0.32245  0.43652  1.0000
  C   C868      1.0  0.84204  0.97233  0.44891  1.0000
  H   H1559     1.0  0.88894  0.00176  0.44667  1.0000
  H   H1560     1.0  0.67453  0.99119  0.96513  1.0000
  C   C869      1.0  0.99373  0.12316  0.25773  1.0000
  H   H1561     1.0  0.93070  0.44929  0.43571  1.0000
  S   S179      1.0  0.99669  0.09597  0.10951  1.0000
  H   H1562     1.0  0.67367  0.17969  0.96134  1.0000
  C   C870      1.0  0.92315  0.30177  0.43310  1.0000
  S   S180      1.0  0.99164  0.11556  0.39723  1.0000
  S   S181      1.0  0.99641  0.10552  0.33657  1.0000
  H   H1563     1.0  0.69451  0.03469  0.95606  1.0000
  H   H1564     1.0  0.88154  0.22423  0.95505  1.0000
  C   C871      1.0  0.67264  0.03183  0.95622  1.0000
  C   C872      1.0  0.77247  0.27768  0.95340  1.0000
  H   H1565     1.0  0.84179  0.98800  0.95436  1.0000
  Fe  Fe90      1.0  0.99255  0.15866  0.38861  1.0000
  C   C873      1.0  0.99277  0.21609  0.42932  1.0000
  S   S182      1.0  0.99111  0.18193  0.42548  1.0000
  H   H1566     1.0  0.67144  0.11563  0.95282  1.0000
  H   H1567     1.0  0.69255  0.14576  0.47597  1.0000
  Fe  Fe91      1.0  0.96491  0.32157  0.91920  1.0000
  S   S183      1.0  0.93165  0.31020  0.89108  1.0000
  Fe  Fe92      1.0  0.72706  0.24010  0.58070  1.0000
  S   S184      1.0  0.73263  0.27007  0.54993  1.0000
  S   S185      1.0  0.72486  0.19644  0.57445  1.0000
  Fe  Fe93      1.0  0.71796  0.28036  0.62261  1.0000
  S   S186      1.0  0.72263  0.31314  0.59452  1.0000
  S   S187      1.0  0.70390  0.28987  0.66314  1.0000
  Fe  Fe94      1.0  0.69712  0.28981  0.56760  1.0000
  C   C874      1.0  0.70260  0.22142  0.77426  1.0000
  Fe  Fe95      1.0  0.75789  0.29095  0.57911  1.0000
  S   S188      1.0  0.79408  0.31671  0.57009  1.0000
  S   S189      1.0  0.69003  0.25853  0.59652  1.0000
  S   S190      1.0  0.75464  0.25949  0.60908  1.0000
  Fe  Fe96      1.0  0.77280  0.29543  0.86571  1.0000
  S   S191      1.0  0.78111  0.26271  0.83869  1.0000
  S   S192      1.0  0.80433  0.31744  0.88916  1.0000
  Fe  Fe97      1.0  0.71154  0.28720  0.86116  1.0000
  S   S193      1.0  0.71666  0.25370  0.83362  1.0000
  C   C875      1.0  0.67240  0.22509  0.76947  1.0000
  Fe  Fe98      1.0  0.74956  0.24041  0.85946  1.0000
  S   S194      1.0  0.75713  0.19771  0.86838  1.0000
  Fe  Fe99      1.0  0.74773  0.27868  0.81445  1.0000
  S   S195      1.0  0.75949  0.27639  0.77207  1.0000
  S   S196      1.0  0.74301  0.27205  0.88798  1.0000
  S   S197      1.0  0.74099  0.31342  0.84060  1.0000
  Fe  Fe100     1.0  0.95070  0.32030  0.52891  1.0000
  S   S198      1.0  0.95047  0.34368  0.49259  1.0000
  S   S199      1.0  0.91670  0.29507  0.54470  1.0000
  H   H1568     1.0  0.89217  0.28756  0.85822  1.0000
  C   C876      1.0  0.81864  0.28243  0.65680  1.0000
  H   H1569     1.0  0.84276  0.28957  0.85689  1.0000
  H   H1570     1.0  0.67370  0.23701  0.50378  1.0000
  H   H1571     1.0  0.73483  0.20018  0.66746  1.0000
  H   H1572     1.0  0.79389  0.18826  0.94413  1.0000
  C   C877      1.0  0.91496  0.25814  0.45444  1.0000
  C   C878      1.0  0.73082  0.20092  0.70870  1.0000
  C   C879      1.0  0.99411  0.22616  0.45415  1.0000
  H   H1573     1.0  0.83044  0.35235  0.62282  1.0000
  C   C880      1.0  0.73265  0.98594  0.48179  1.0000
  C   C881      1.0  0.75534  0.20668  0.79028  1.0000
  C   C882      1.0  0.82393  0.31319  0.73537  1.0000
  H   H1574     1.0  0.84358  0.33797  0.92363  1.0000
  H   H1575     1.0  0.82778  0.03299  0.47156  1.0000
  C   C883      1.0  0.98135  0.42349  0.58270  1.0000
  H   H1576     1.0  0.83904  0.14989  0.93223  1.0000
  H   H1577     1.0  0.85833  0.31362  0.65912  1.0000
  C   C884      1.0  0.74937  0.18584  0.89912  1.0000
  C   C885      1.0  0.73969  0.20248  0.91805  1.0000
  C   C886      1.0  0.99476  0.25319  0.45844  1.0000
  C   C887      1.0  0.74827  0.14971  0.92955  1.0000
  C   C888      1.0  0.75359  0.15940  0.90495  1.0000
  H   H1578     1.0  0.73616  0.22278  0.91383  1.0000
  C   C889      1.0  0.80435  0.24091  0.94269  1.0000
  H   H1579     1.0  0.76109  0.14639  0.89041  1.0000
  C   C890      1.0  0.73462  0.18354  0.54470  1.0000
  C   C891      1.0  0.74797  0.19896  0.52690  1.0000
  C   C892      1.0  0.75570  0.18828  0.50341  1.0000
  C   C893      1.0  0.75002  0.16218  0.49743  1.0000
  C   C894      1.0  0.73647  0.14673  0.51510  1.0000
  C   C895      1.0  0.72891  0.15738  0.53874  1.0000
  H   H1580     1.0  0.75268  0.21901  0.53135  1.0000
  H   H1581     1.0  0.76622  0.20030  0.48983  1.0000
  H   H1582     1.0  0.73211  0.12655  0.51068  1.0000
  H   H1583     1.0  0.71865  0.14533  0.55248  1.0000
  C   C896      1.0  0.82761  0.30977  0.56138  1.0000
  C   C897      1.0  0.83840  0.28466  0.56274  1.0000
  C   C898      1.0  0.86563  0.28058  0.55751  1.0000
  C   C899      1.0  0.88236  0.30141  0.55046  1.0000
  C   C900      1.0  0.87145  0.32641  0.54857  1.0000
  C   C901      1.0  0.84432  0.33054  0.55418  1.0000
  H   H1584     1.0  0.82586  0.26845  0.56815  1.0000
  H   H1585     1.0  0.87380  0.26114  0.55903  1.0000
  H   H1586     1.0  0.88399  0.34265  0.54320  1.0000
  H   H1587     1.0  0.83627  0.35007  0.55313  1.0000
  C   C902      1.0  0.71946  0.28543  0.69331  1.0000
  C   C903      1.0  0.74492  0.27483  0.69570  1.0000
  C   C904      1.0  0.75673  0.27222  0.71997  1.0000
  C   C905      1.0  0.74319  0.27996  0.74218  1.0000
  C   C906      1.0  0.71747  0.29004  0.73986  1.0000
  C   C907      1.0  0.70574  0.29281  0.71554  1.0000
  H   H1588     1.0  0.75544  0.26861  0.67884  1.0000
  H   H1589     1.0  0.77650  0.26410  0.72158  1.0000
  H   H1590     1.0  0.70677  0.29600  0.75675  1.0000
  H   H1591     1.0  0.68595  0.30086  0.71396  1.0000
  C   C908      1.0  0.89617  0.31159  0.89174  1.0000
  C   C909      1.0  0.88217  0.32539  0.91042  1.0000
  C   C910      1.0  0.85412  0.32667  0.90947  1.0000
  C   C911      1.0  0.83961  0.31393  0.89011  1.0000
  C   C912      1.0  0.85355  0.29938  0.87196  1.0000
  C   C913      1.0  0.88161  0.29837  0.87272  1.0000
  H   H1592     1.0  0.89300  0.33559  0.92521  1.0000
  H   H1593     1.0  0.79638  0.21707  0.78174  1.0000
  N   N50       1.0  0.71692  0.20299  0.75654  1.0000
  H   H1594     1.0  0.77407  0.30793  0.64982  1.0000
  C   C914      1.0  0.74649  0.20364  0.76200  1.0000
  H   H1595     1.0  0.84076  0.00455  0.48630  1.0000
  H   H1596     1.0  0.69983  0.12288  0.76934  1.0000
  H   H1597     1.0  0.83205  0.25737  0.50789  1.0000
  H   H1598     1.0  0.73252  0.17945  0.71014  1.0000
  H   H1599     1.0  0.81526  0.99365  0.93154  1.0000
  H   H1600     1.0  0.89062  0.27280  0.50154  1.0000
  H   H1601     1.0  0.81312  0.28344  0.94243  1.0000
  H   H1602     1.0  0.74424  0.34772  0.63317  1.0000
  H   H1603     1.0  0.70483  0.21532  0.79437  1.0000
  H   H1604     1.0  0.75626  0.18598  0.75394  1.0000
  H   H1605     1.0  0.85336  0.21087  0.84433  1.0000
  H   H1606     1.0  0.90276  0.26991  0.92335  1.0000
  C   C915      1.0  0.90159  0.25811  0.94097  1.0000
  H   H1607     1.0  0.71650  0.16257  0.74459  1.0000
  C   C916      1.0  0.79693  0.01702  0.51195  1.0000
  C   C917      1.0  0.82554  0.01134  0.47239  1.0000
  H   H1608     1.0  0.69150  0.20850  0.72352  1.0000
  H   H1609     1.0  0.79180  0.98630  0.48468  1.0000
  H   H1610     1.0  0.71465  0.23406  0.72859  1.0000
  C   C918      1.0  0.79155  0.32083  0.64619  1.0000
  H   H1611     1.0  0.74511  0.19316  0.80335  1.0000
  H   H1612     1.0  0.71805  0.22863  0.67948  1.0000
  H   H1613     1.0  0.75097  0.22671  0.79699  1.0000
  H   H1614     1.0  0.80156  0.03820  0.51264  1.0000
  C   C919      1.0  0.81235  0.18343  0.93365  1.0000
  H   H1615     1.0  0.69210  0.36213  0.58933  1.0000
  H   H1616     1.0  0.78932  0.30796  0.69374  1.0000
  H   H1617     1.0  0.77239  0.34982  0.67095  1.0000
  C   C920      1.0  0.88493  0.25424  0.49202  1.0000
  C   C921      1.0  0.84372  0.33550  0.62650  1.0000
  C   C922      1.0  0.82479  0.27342  0.62928  1.0000
  C   C923      1.0  0.82456  0.24366  0.62729  1.0000
  C   C924      1.0  0.87217  0.34428  0.62098  1.0000
  H   H1618     1.0  0.83852  0.32034  0.61245  1.0000
  H   H1619     1.0  0.81010  0.28097  0.61542  1.0000
  H   H1620     1.0  0.84501  0.27989  0.62369  1.0000
  H   H1621     1.0  0.83999  0.23505  0.63989  1.0000
  H   H1622     1.0  0.80479  0.23570  0.63261  1.0000
  H   H1623     1.0  0.82885  0.23773  0.60736  1.0000
  H   H1624     1.0  0.87839  0.35990  0.63441  1.0000
  H   H1625     1.0  0.87336  0.35205  0.60127  1.0000
  C   C925      1.0  0.92381  0.45912  0.45338  1.0000
  H   H1626     1.0  0.80870  0.33685  0.69345  1.0000
  H   H1627     1.0  0.95389  0.21478  0.55247  1.0000
  Fe  Fe101     1.0  0.97883  0.37101  0.51267  1.0000
  C   C926      1.0  0.93206  0.24319  0.49558  1.0000
  C   C927      1.0  0.92997  0.22611  0.51987  1.0000
  H   H1628     1.0  0.70015  0.17400  0.80004  1.0000
  H   H1629     1.0  0.70107  0.19758  0.67851  1.0000
  C   C928      1.0  0.82095  0.15633  0.94255  1.0000
  C   C929      1.0  0.83757  0.27107  0.49237  1.0000
  C   C930      1.0  0.95570  0.22737  0.53536  1.0000
  H   H1630     1.0  0.73280  0.97721  0.94126  1.0000
  H   H1631     1.0  0.75111  0.20933  0.71038  1.0000
  S   S200      1.0  0.98605  0.29621  0.51701  1.0000
  C   C931      1.0  0.76288  0.35928  0.63239  1.0000
  H   H1632     1.0  0.87867  0.24117  0.50782  1.0000
  H   H1633     1.0  0.97278  0.22045  0.52382  1.0000
  C   C932      1.0  0.99261  0.43303  0.46869  1.0000
  N   N51       1.0  0.82912  0.23128  0.92943  1.0000
  H   H1634     1.0  0.95031  0.23753  0.48517  1.0000
  H   H1635     1.0  0.93592  0.26341  0.50231  1.0000
  H   H1636     1.0  0.92627  0.20536  0.51509  1.0000
  H   H1637     1.0  0.91368  0.23312  0.53234  1.0000
  H   H1638     1.0  0.85287  0.19586  0.93067  1.0000
  H   H1639     1.0  0.67428  0.34474  0.62986  1.0000
  H   H1640     1.0  0.72910  0.15675  0.78837  1.0000
  H   H1641     1.0  0.78261  0.01800  0.47359  1.0000
  H   H1642     1.0  0.85280  0.26623  0.92313  1.0000
  H   H1643     1.0  0.80483  0.14206  0.93862  1.0000
  H   H1644     1.0  0.85979  0.97269  0.46157  1.0000
  H   H1645     1.0  0.92785  0.42288  0.47428  1.0000
  H   H1646     1.0  0.81964  0.27473  0.48053  1.0000
  H   H1647     1.0  0.72437  0.97817  0.52133  1.0000
  S   S201      1.0  0.97689  0.34885  0.54996  1.0000
  H   H1648     1.0  0.90452  0.29737  0.46944  1.0000
  H   H1649     1.0  0.82695  0.28190  0.70873  1.0000
  H   H1650     1.0  0.80324  0.30849  0.74123  1.0000
  H   H1651     1.0  0.84305  0.34365  0.66651  1.0000
  C   C933      1.0  0.71234  0.21249  0.72958  1.0000
  H   H1652     1.0  0.93952  0.29025  0.46906  1.0000
  C   C934      1.0  0.73053  0.96980  0.50337  1.0000
  H   H1653     1.0  0.95954  0.24768  0.54185  1.0000
  H   H1654     1.0  0.77144  0.35812  0.61290  1.0000
  H   H1655     1.0  0.81123  0.00615  0.52407  1.0000
  H   H1656     1.0  0.78669  0.22933  0.93669  1.0000
  H   H1657     1.0  0.79488  0.31931  0.62540  1.0000
  N   N52       1.0  0.66824  0.17216  0.45352  1.0000
  N   N53       1.0  0.81541  0.31141  0.66106  1.0000
  H   H1658     1.0  0.70288  0.20290  0.48598  1.0000
  C   C935      1.0  0.70605  0.17558  0.75820  1.0000
  C   C936      1.0  0.82405  0.23196  0.90108  1.0000
  C   C937      1.0  0.84613  0.22044  0.88400  1.0000
  H   H1659     1.0  0.66970  0.37202  0.56447  1.0000
  H   H1660     1.0  0.67027  0.26286  0.78866  1.0000
  H   H1661     1.0  0.79978  0.36269  0.65301  1.0000
  C   C938      1.0  0.98427  0.43938  0.49331  1.0000
  C   C939      1.0  0.83757  0.22000  0.85608  1.0000
  C   C940      1.0  0.88020  0.23715  0.93812  1.0000
  H   H1662     1.0  0.80779  0.18213  0.91300  1.0000
  H   H1663     1.0  0.79085  0.20524  0.81360  1.0000
  C   C941      1.0  0.70807  0.16183  0.78435  1.0000
  H   H1664     1.0  0.99292  0.41284  0.46268  1.0000
  C   C942      1.0  0.79779  0.00703  0.48454  1.0000
  C   C943      1.0  0.68357  0.19673  0.49416  1.0000
  C   C944      1.0  0.67236  0.37091  0.58547  1.0000
  H   H1665     1.0  0.80491  0.22211  0.89634  1.0000
  H   H1666     1.0  0.82133  0.25242  0.89449  1.0000
  H   H1667     1.0  0.85098  0.20011  0.88938  1.0000
  H   H1668     1.0  0.86423  0.23275  0.88518  1.0000
  S   S202      1.0  0.67214  0.29292  0.88269  1.0000
  H   H1669     1.0  0.97199  0.42720  0.60149  1.0000
  H   H1670     1.0  0.79142  0.27240  0.91746  1.0000
  H   H1671     1.0  0.75156  0.12935  0.93388  1.0000
  H   H1672     1.0  0.90730  0.44676  0.48979  1.0000
  H   H1673     1.0  0.88513  0.22542  0.92108  1.0000
  S   S203      1.0  0.97333  0.41524  0.51519  1.0000
  C   C945      1.0  0.67518  0.21771  0.51324  1.0000
  H   H1674     1.0  0.66870  0.23383  0.75047  1.0000
  H   H1675     1.0  0.81895  0.20856  0.85367  1.0000
  H   H1676     1.0  0.83439  0.24018  0.84906  1.0000
  S   S204      1.0  0.76014  0.15001  0.46757  1.0000
  H   H1677     1.0  0.77663  0.01409  0.51977  1.0000
  H   H1678     1.0  0.75798  0.37996  0.63653  1.0000
  H   H1679     1.0  0.88608  0.32753  0.62248  1.0000
  C   C946      1.0  0.91259  0.43818  0.47103  1.0000
  C   C947      1.0  0.78259  0.34916  0.65219  1.0000
  S   S205      1.0  0.72600  0.01991  0.48469  1.0000
  H   H1680     1.0  0.82703  0.33461  0.73667  1.0000
  C   C948      1.0  0.72050  0.20727  0.68198  1.0000
  C   C949      1.0  0.80943  0.31562  0.68901  1.0000
  H   H1681     1.0  0.83542  0.27469  0.66830  1.0000
  C   C950      1.0  0.83438  0.20394  0.93893  1.0000
  H   H1682     1.0  0.75579  0.22067  0.75225  1.0000
  H   H1683     1.0  0.79088  0.18253  0.78739  1.0000
  C   C951      1.0  0.90137  0.21520  0.47011  1.0000
  C   C952      1.0  0.79672  0.26976  0.93772  1.0000
  H   H1684     1.0  0.71197  0.24111  0.77322  1.0000
  C   C953      1.0  0.82924  0.30344  0.70830  1.0000
  H   H1685     1.0  0.83776  0.30353  0.74891  1.0000
  H   H1686     1.0  0.68002  0.22314  0.94286  1.0000
  H   H1687     1.0  0.85008  0.30832  0.70327  1.0000
  H   H1688     1.0  0.80049  0.27196  0.66337  1.0000
  C   C954      1.0  0.92447  0.19881  0.45872  1.0000
  C   C955      1.0  0.84072  0.32589  0.65445  1.0000
  C   C956      1.0  0.78524  0.20257  0.79328  1.0000
  H   H1689     1.0  0.85201  0.24126  0.46725  1.0000
  S   S206      1.0  0.77550  0.07304  0.45688  1.0000
  S   S207      1.0  0.71170  0.08870  0.45546  1.0000
  C   C957      1.0  0.85967  0.25955  0.47587  1.0000
  H   H1690     1.0  0.69477  0.12649  0.80314  1.0000
  N   N54       1.0  0.90832  0.24269  0.47803  1.0000
  S   S208      1.0  0.99233  0.35666  0.91742  1.0000
  H   H1691     1.0  0.98170  0.42207  0.94112  1.0000
  Fe  Fe102     1.0  0.98750  0.32128  0.48234  1.0000
  H   H1692     1.0  0.67186  0.39100  0.59340  1.0000
  H   H1693     1.0  0.89476  0.42887  0.46241  1.0000
  H   H1694     1.0  0.88538  0.21545  0.45545  1.0000
  C   C958      1.0  0.92053  0.28761  0.45857  1.0000
  C   C959      1.0  0.69240  0.13626  0.78439  1.0000
  H   H1695     1.0  0.86377  0.27372  0.46042  1.0000
  C   C960      1.0  0.85194  0.24931  0.93648  1.0000
  C   C961      1.0  0.73456  0.19288  0.94260  1.0000
  H   H1696     1.0  0.68492  0.17507  0.75196  1.0000
  C   C962      1.0  0.73880  0.16651  0.94849  1.0000
  H   H1697     1.0  0.68674  0.17844  0.50495  1.0000
  S   S209      1.0  0.66608  0.30973  0.54217  1.0000
  C   C963      1.0  0.74045  0.97481  0.45867  1.0000
  H   H1698     1.0  0.67089  0.14004  0.78125  1.0000
  H   H1699     1.0  0.84403  0.28989  0.50096  1.0000
  H   H1700     1.0  0.89277  0.20414  0.48638  1.0000
  H   H1701     1.0  0.97334  0.40488  0.57497  1.0000
  H   H1702     1.0  0.76696  0.29811  0.94873  1.0000
  Fe  Fe103     1.0  0.73616  0.05164  0.45568  1.0000
  H   H1703     1.0  0.87504  0.02716  0.46628  1.0000
  H   H1704     1.0  0.67800  0.11099  0.50603  1.0000
  H   H1705     1.0  0.99582  0.26056  0.47762  1.0000
  C   C964      1.0  0.67289  0.14613  0.46613  1.0000
  C   C965      1.0  0.82039  0.98471  0.95018  1.0000
  H   H1706     1.0  0.97584  0.43963  0.56961  1.0000
  H   H1707     1.0  0.94099  0.19646  0.47255  1.0000
  H   H1708     1.0  0.75522  0.26491  0.94884  1.0000
  H   H1709     1.0  0.66598  0.02795  0.93639  1.0000
  H   H1710     1.0  0.92129  0.24885  0.94397  1.0000
  H   H1711     1.0  0.69035  0.21929  0.52859  1.0000
  H   H1712     1.0  0.90751  0.16086  0.46830  1.0000
  C   C966      1.0  0.99022  0.46197  0.95211  1.0000
  H   H1713     1.0  0.99452  0.21293  0.47020  1.0000
  Fe  Fe104     1.0  0.75084  0.10947  0.45285  1.0000
  H   H1714     1.0  0.88869  0.52846  0.31093  1.0000
  H   H1715     1.0  0.79311  0.69997  0.29790  1.0000
  H   H1716     1.0  0.69612  0.52448  0.10622  1.0000
  N   N55       1.0  0.91382  0.50534  0.43623  1.0000
  H   H1717     1.0  0.90118  0.64924  0.02178  1.0000
  Fe  Fe105     1.0  0.97229  0.59562  0.42549  1.0000
  S   S210      1.0  0.93057  0.61296  0.41964  1.0000
  Fe  Fe106     1.0  0.75043  0.62535  0.12986  1.0000
  S   S211      1.0  0.75283  0.59536  0.09808  1.0000
  S   S212      1.0  0.74834  0.60815  0.17038  1.0000
  Fe  Fe107     1.0  0.74990  0.67008  0.09148  1.0000
  S   S213      1.0  0.75170  0.64310  0.05819  1.0000
  S   S214      1.0  0.75082  0.71401  0.08555  1.0000
  Fe  Fe108     1.0  0.72099  0.61925  0.07876  1.0000
  H   H1718     1.0  0.84531  0.52422  0.01818  1.0000
  Fe  Fe109     1.0  0.78344  0.62167  0.08004  1.0000
  S   S215      1.0  0.81852  0.61174  0.05362  1.0000
  S   S216      1.0  0.71704  0.64778  0.11111  1.0000
  S   S217      1.0  0.78312  0.65006  0.11285  1.0000
  Fe  Fe110     1.0  0.78445  0.61150  0.36084  1.0000
  S   S218      1.0  0.78568  0.65154  0.34410  1.0000
  S   S219      1.0  0.82243  0.58662  0.35992  1.0000
  Fe  Fe111     1.0  0.72400  0.61648  0.37173  1.0000
  S   S220      1.0  0.72211  0.65706  0.35534  1.0000
  C   C967      1.0  0.92737  0.50641  0.98809  1.0000
  Fe  Fe112     1.0  0.74794  0.64140  0.32345  1.0000
  S   S221      1.0  0.74451  0.65789  0.28276  1.0000
  Fe  Fe113     1.0  0.76017  0.66366  0.37698  1.0000
  S   S222      1.0  0.77546  0.69980  0.39714  1.0000
  S   S223      1.0  0.74756  0.60022  0.33845  1.0000
  S   S224      1.0  0.76109  0.62412  0.39514  1.0000
  H   H1719     1.0  0.85159  0.56018  0.31154  1.0000
  H   H1720     1.0  0.67817  0.55036  0.22951  1.0000
  H   H1721     1.0  0.79897  0.58512  0.23307  1.0000
  H   H1722     1.0  0.80203  0.70938  0.32993  1.0000
  H   H1723     1.0  0.80139  0.73352  0.30475  1.0000
  H   H1724     1.0  0.72473  0.54490  0.11285  1.0000
  Fe  Fe114     1.0  0.97218  0.57946  0.03266  1.0000
  S   S225      1.0  0.94082  0.57774  0.06426  1.0000
  S   S226      1.0  0.96102  0.57132  0.99221  1.0000
  S   S227      1.0  0.73702  0.76185  0.97450  1.0000
  C   C968      1.0  0.80126  0.55870  0.28196  1.0000
  H   H1725     1.0  0.87899  0.63659  0.41979  1.0000
  C   C969      1.0  0.74542  0.93219  0.98751  1.0000
  H   H1726     1.0  0.68316  0.69458  0.38280  1.0000
  H   H1727     1.0  0.68580  0.65659  0.17038  1.0000
  C   C970      1.0  0.75702  0.71963  0.41809  1.0000
  C   C971      1.0  0.72975  0.71600  0.42185  1.0000
  H   H1728     1.0  0.80384  0.90849  0.99937  1.0000
  H   H1729     1.0  0.87584  0.49009  0.00101  1.0000
  C   C972      1.0  0.76995  0.74056  0.43015  1.0000
  H   H1730     1.0  0.71977  0.69968  0.41295  1.0000
  C   C973      1.0  0.68659  0.56519  0.11407  1.0000
  H   H1731     1.0  0.79106  0.74342  0.42734  1.0000
  C   C974      1.0  0.74584  0.72751  0.05486  1.0000
  C   C975      1.0  0.74992  0.75434  0.05095  1.0000
  C   C976      1.0  0.74666  0.76544  0.02657  1.0000
  C   C977      1.0  0.73942  0.74968  0.00591  1.0000
  C   C978      1.0  0.73516  0.72292  0.00989  1.0000
  C   C979      1.0  0.73821  0.71194  0.03423  1.0000
  H   H1732     1.0  0.75568  0.76659  0.06684  1.0000
  H   H1733     1.0  0.74999  0.78608  0.02374  1.0000
  H   H1734     1.0  0.72956  0.71058  0.99403  1.0000
  H   H1735     1.0  0.73467  0.69139  0.03698  1.0000
  C   C980      1.0  0.85252  0.60252  0.05740  1.0000
  C   C981      1.0  0.86392  0.59724  0.08117  1.0000
  C   C982      1.0  0.89090  0.58968  0.08294  1.0000
  C   C983      1.0  0.90697  0.58768  0.06106  1.0000
  C   C984      1.0  0.89557  0.59308  0.03730  1.0000
  C   C985      1.0  0.86853  0.60024  0.03551  1.0000
  H   H1736     1.0  0.85193  0.59876  0.09818  1.0000
  H   H1737     1.0  0.89943  0.58547  0.10141  1.0000
  H   H1738     1.0  0.90754  0.59157  0.02028  1.0000
  H   H1739     1.0  0.85996  0.60409  0.01698  1.0000
  C   C986      1.0  0.74780  0.62265  0.20136  1.0000
  C   C987      1.0  0.74696  0.64966  0.20516  1.0000
  C   C988      1.0  0.74611  0.66002  0.23014  1.0000
  C   C989      1.0  0.74615  0.64363  0.25169  1.0000
  C   C990      1.0  0.74707  0.61665  0.24784  1.0000
  C   C991      1.0  0.74791  0.60628  0.22289  1.0000
  H   H1740     1.0  0.74686  0.66258  0.18889  1.0000
  H   H1741     1.0  0.74534  0.68094  0.23278  1.0000
  H   H1742     1.0  0.74668  0.60379  0.26409  1.0000
  H   H1743     1.0  0.74855  0.58537  0.22024  1.0000
  C   C992      1.0  0.90108  0.60547  0.40212  1.0000
  C   C993      1.0  0.89972  0.58509  0.38439  1.0000
  C   C994      1.0  0.87560  0.57960  0.37155  1.0000
  C   C995      1.0  0.85265  0.59470  0.37593  1.0000
  C   C996      1.0  0.85419  0.61542  0.39323  1.0000
  C   C997      1.0  0.87819  0.62067  0.40627  1.0000
  H   H1744     1.0  0.91733  0.57378  0.38049  1.0000
  H   H1745     1.0  0.87473  0.56359  0.35815  1.0000
  H   H1746     1.0  0.83679  0.62724  0.39685  1.0000
  C   C998      1.0  0.81372  0.77045  0.98765  1.0000
  H   H1747     1.0  0.75904  0.56669  0.28768  1.0000
  C   C999      1.0  0.84972  0.61583  0.29167  1.0000
  C   C1000     1.0  0.83537  0.64242  0.29405  1.0000
  C   C1001     1.0  0.84765  0.65881  0.31544  1.0000
  H   H1748     1.0  0.81713  0.62465  0.25110  1.0000
  H   H1749     1.0  0.87030  0.62000  0.28490  1.0000
  H   H1750     1.0  0.85192  0.60818  0.31145  1.0000
  H   H1751     1.0  0.81391  0.63963  0.29794  1.0000
  H   H1752     1.0  0.83744  0.65378  0.27616  1.0000
  H   H1753     1.0  0.86908  0.66238  0.31173  1.0000
  H   H1754     1.0  0.83741  0.67791  0.31663  1.0000
  H   H1755     1.0  0.84555  0.64876  0.33409  1.0000
  C   C1002     1.0  0.97503  0.69014  0.01993  1.0000
  Fe  Fe115     1.0  0.73799  0.80431  0.96191  1.0000
  H   H1756     1.0  0.97679  0.52480  0.06800  1.0000
  H   H1757     1.0  0.76819  0.53287  0.29022  1.0000
  H   H1758     1.0  0.95426  0.47074  0.02423  1.0000
  H   H1759     1.0  0.77647  0.55500  0.31567  1.0000
  C   C1003     1.0  0.68761  0.57822  0.19940  1.0000
  C   C1004     1.0  0.85600  0.57356  0.27158  1.0000
  C   C1005     1.0  0.81061  0.58720  0.28698  1.0000
  H   H1760     1.0  0.84100  0.87606  0.96522  1.0000
  C   C1006     1.0  0.96196  0.51224  0.37789  1.0000
  C   C1007     1.0  0.67030  0.68281  0.04724  1.0000
  N   N56       1.0  0.82354  0.70212  0.02018  1.0000
  C   C1008     1.0  0.80459  0.67930  0.01850  1.0000
  C   C1009     1.0  0.82439  0.71262  0.04716  1.0000
  C   C1010     1.0  0.81276  0.72347  0.00318  1.0000
  C   C1011     1.0  0.85103  0.69518  0.01092  1.0000
  C   C1012     1.0  0.86508  0.67225  0.02454  1.0000
  C   C1013     1.0  0.80093  0.66677  0.99181  1.0000
  C   C1014     1.0  0.82764  0.75007  0.00420  1.0000
  C   C1015     1.0  0.82159  0.69270  0.06927  1.0000
  C   C1016     1.0  0.82758  0.70555  0.09495  1.0000
  C   C1017     1.0  0.89082  0.66479  0.01088  1.0000
  H   H1761     1.0  0.75375  0.78208  0.30549  1.0000
  H   H1762     1.0  0.68497  0.68877  0.03259  1.0000
  H   H1763     1.0  0.78463  0.68532  0.02544  1.0000
  H   H1764     1.0  0.81064  0.66328  0.03142  1.0000
  H   H1765     1.0  0.84298  0.72399  0.05033  1.0000
  H   H1766     1.0  0.80773  0.72665  0.05034  1.0000
  H   H1767     1.0  0.79153  0.72728  0.00788  1.0000
  H   H1768     1.0  0.81305  0.71740  0.98286  1.0000
  H   H1769     1.0  0.85067  0.69100  0.99012  1.0000
  H   H1770     1.0  0.86466  0.71210  0.01315  1.0000
  H   H1771     1.0  0.85242  0.65460  0.02523  1.0000
  H   H1772     1.0  0.87067  0.67808  0.04419  1.0000
  C   C1018     1.0  0.88643  0.51842  0.03023  1.0000
  H   H1773     1.0  0.83194  0.55081  0.44609  1.0000
  H   H1774     1.0  0.84822  0.74805  0.99693  1.0000
  H   H1775     1.0  0.82850  0.75798  0.02386  1.0000
  H   H1776     1.0  0.80085  0.68529  0.06993  1.0000
  H   H1777     1.0  0.83483  0.67565  0.06716  1.0000
  H   H1778     1.0  0.82556  0.69097  0.11043  1.0000
  H   H1779     1.0  0.84821  0.71328  0.09538  1.0000
  H   H1780     1.0  0.81333  0.72167  0.09864  1.0000
  H   H1781     1.0  0.88644  0.65714  0.99153  1.0000
  H   H1782     1.0  0.90442  0.68180  0.00941  1.0000
  C   C1019     1.0  0.95227  0.50986  0.03720  1.0000
  C   C1020     1.0  0.89061  0.49183  0.01672  1.0000
  S   S228      1.0  0.74549  0.89804  0.99373  1.0000
  H   H1783     1.0  0.69824  0.77047  0.32750  1.0000
  H   H1784     1.0  0.82017  0.65952  0.98434  1.0000
  H   H1785     1.0  0.98263  0.67815  0.03599  1.0000
  H   H1786     1.0  0.69196  0.61108  0.15756  1.0000
  H   H1787     1.0  0.74409  0.79857  0.41034  1.0000
  H   H1788     1.0  0.80023  0.87404  0.99264  1.0000
  C   C1021     1.0  0.83148  0.60822  0.24921  1.0000
  H   H1789     1.0  0.66742  0.58350  0.23583  1.0000
  C   C1022     1.0  0.86729  0.56217  0.29683  1.0000
  H   H1790     1.0  0.68751  0.74274  0.38059  1.0000
  S   S229      1.0  0.68781  0.60105  0.05431  1.0000
  C   C1023     1.0  0.86969  0.53024  0.44534  1.0000
  H   H1791     1.0  0.71487  0.74857  0.30712  1.0000
  C   C1024     1.0  0.89125  0.52179  0.42607  1.0000
  H   H1792     1.0  0.79926  0.55443  0.26141  1.0000
  H   H1793     1.0  0.70777  0.54733  0.08265  1.0000
  H   H1794     1.0  0.70411  0.56746  0.15115  1.0000
  H   H1795     1.0  0.81168  0.58921  0.30803  1.0000
  C   C1025     1.0  0.93781  0.48441  0.02901  1.0000
  H   H1796     1.0  0.87338  0.58013  0.26009  1.0000
  H   H1797     1.0  0.67367  0.67808  0.44343  1.0000
  H   H1798     1.0  0.89325  0.53505  0.01847  1.0000
  H   H1799     1.0  0.84367  0.91036  0.97157  1.0000
  H   H1800     1.0  0.75874  0.94194  0.02541  1.0000
  H   H1801     1.0  0.81203  0.76364  0.96764  1.0000
  H   H1802     1.0  0.69422  0.73128  0.43937  1.0000
  C   C1026     1.0  0.78186  0.64357  0.99298  1.0000
  H   H1803     1.0  0.78961  0.62833  0.00605  1.0000
  H   H1804     1.0  0.68621  0.92803  0.97800  1.0000
  H   H1805     1.0  0.84903  0.50730  0.04831  1.0000
  H   H1806     1.0  0.81553  0.54448  0.29004  1.0000
  H   H1807     1.0  0.71926  0.78017  0.27169  1.0000
  H   H1808     1.0  0.75331  0.93978  0.43944  1.0000
  H   H1809     1.0  0.71304  0.78119  0.36787  1.0000
  H   H1810     1.0  0.96795  0.52898  0.36578  1.0000
  Fe  Fe116     1.0  0.74107  0.86391  0.96572  1.0000
  H   H1811     1.0  0.82902  0.88582  0.00952  1.0000
  H   H1812     1.0  0.94814  0.50214  0.98225  1.0000
  C   C1027     1.0  0.68685  0.73155  0.36251  1.0000
  H   H1813     1.0  0.77963  0.63482  0.97373  1.0000
  H   H1814     1.0  0.92796  0.47587  0.04607  1.0000
  S   S230      1.0  0.69022  0.59510  0.39270  1.0000
  C   C1028     1.0  0.82936  0.89409  0.96899  1.0000
  Fe  Fe117     1.0  0.98401  0.60745  0.98269  1.0000
  H   H1815     1.0  0.83844  0.61019  0.19586  1.0000
  H   H1816     1.0  0.79227  0.68082  0.97809  1.0000
  C   C1029     1.0  0.93150  0.49823  0.41398  1.0000
  C   C1030     1.0  0.71538  0.73386  0.43685  1.0000
  H   H1817     1.0  0.94973  0.53696  0.40911  1.0000
  H   H1818     1.0  0.91779  0.55032  0.95680  1.0000
  C   C1031     1.0  0.71908  0.79590  0.28628  1.0000
  C   C1032     1.0  0.67250  0.70584  0.36791  1.0000
  H   H1819     1.0  0.72966  0.81311  0.27839  1.0000
  C   C1033     1.0  0.75582  0.78676  0.37195  1.0000
  C   C1034     1.0  0.77457  0.55311  0.29465  1.0000
  C   C1035     1.0  0.84741  0.54528  0.43202  1.0000
  H   H1820     1.0  0.92819  0.52604  0.99676  1.0000
  H   H1821     1.0  0.88451  0.47683  0.03080  1.0000
  C   C1036     1.0  0.81959  0.59063  0.22808  1.0000
  H   H1822     1.0  0.82522  0.78896  0.98788  1.0000
  C   C1037     1.0  0.73297  0.78685  0.31065  1.0000
  H   H1823     1.0  0.92430  0.52906  0.38593  1.0000
  S   S231      1.0  0.96317  0.64110  0.96308  1.0000
  C   C1038     1.0  0.81462  0.89038  0.99411  1.0000
  C   C1039     1.0  0.96673  0.50630  0.06259  1.0000
  C   C1040     1.0  0.72835  0.75496  0.44869  1.0000
  H   H1824     1.0  0.80636  0.62338  0.20465  1.0000
  H   H1825     1.0  0.73459  0.82117  0.38554  1.0000
  H   H1826     1.0  0.66679  0.66136  0.14139  1.0000
  H   H1827     1.0  0.83154  0.57281  0.22490  1.0000
  H   H1828     1.0  0.69517  0.58442  0.10901  1.0000
  H   H1829     1.0  0.98919  0.71554  0.99063  1.0000
  H   H1830     1.0  0.84723  0.55734  0.26038  1.0000
  H   H1831     1.0  0.89632  0.53689  0.27840  1.0000
  C   C1041     1.0  0.94113  0.52117  0.39718  1.0000
  H   H1832     1.0  0.93858  0.52654  0.03919  1.0000
  H   H1833     1.0  0.97995  0.50478  0.38772  1.0000
  H   H1834     1.0  0.88123  0.51149  0.40997  1.0000
  H   H1835     1.0  0.67455  0.74245  0.34862  1.0000
  H   H1836     1.0  0.88948  0.51263  0.96761  1.0000
  H   H1837     1.0  0.80836  0.59270  0.18814  1.0000
  C   C1042     1.0  0.88011  0.53551  0.29268  1.0000
  H   H1838     1.0  0.92997  0.54171  0.45060  1.0000
  N   N57       1.0  0.73135  0.75062  0.34523  1.0000
  C   C1043     1.0  0.75932  0.74176  0.33945  1.0000
  C   C1044     1.0  0.73123  0.76882  0.36802  1.0000
  C   C1045     1.0  0.71530  0.72665  0.35202  1.0000
  H   H1839     1.0  0.76876  0.81910  0.39575  1.0000
  H   H1840     1.0  0.96131  0.70508  0.02771  1.0000
  C   C1046     1.0  0.76230  0.72109  0.31802  1.0000
  H   H1841     1.0  0.67606  0.91328  0.00770  1.0000
  H   H1842     1.0  0.96733  0.51518  0.02265  1.0000
  C   C1047     1.0  0.68342  0.57130  0.22745  1.0000
  H   H1843     1.0  0.69819  0.80159  0.29028  1.0000
  C   C1048     1.0  0.79156  0.71576  0.31235  1.0000
  H   H1844     1.0  0.85484  0.54192  0.04640  1.0000
  H   H1845     1.0  0.76846  0.73340  0.35691  1.0000
  H   H1846     1.0  0.77238  0.75837  0.33445  1.0000
  H   H1847     1.0  0.95181  0.72869  0.43409  1.0000
  H   H1848     1.0  0.73016  0.75745  0.38605  1.0000
  H   H1849     1.0  0.72620  0.71488  0.36650  1.0000
  H   H1850     1.0  0.71282  0.71375  0.33510  1.0000
  C   C1049     1.0  0.85707  0.52310  0.03608  1.0000
  H   H1851     1.0  0.95378  0.49666  0.36540  1.0000
  S   S232      1.0  0.99334  0.61667  0.02342  1.0000
  C   C1050     1.0  0.91070  0.50888  0.96332  1.0000
  H   H1852     1.0  0.75334  0.70224  0.32387  1.0000
  H   H1853     1.0  0.75278  0.72758  0.30006  1.0000
  C   C1051     1.0  0.71835  0.76323  0.32244  1.0000
  H   H1854     1.0  0.70458  0.56641  0.19248  1.0000
  C   C1052     1.0  0.73785  0.94241  0.96391  1.0000
  H   H1855     1.0  0.83795  0.53323  0.41691  1.0000
  N   N58       1.0  0.83649  0.59567  0.27479  1.0000
  H   H1856     1.0  0.66724  0.56321  0.10412  1.0000
  H   H1857     1.0  0.67107  0.69381  0.35032  1.0000
  C   C1053     1.0  0.70496  0.54413  0.10342  1.0000
  H   H1858     1.0  0.76193  0.79677  0.35427  1.0000
  H   H1859     1.0  0.86505  0.52113  0.28609  1.0000
  H   H1860     1.0  0.76195  0.64992  0.99967  1.0000
  H   H1861     1.0  0.79418  0.60058  0.28136  1.0000
  C   C1054     1.0  0.81819  0.60519  0.20270  1.0000
  H   H1862     1.0  0.89896  0.54046  0.41818  1.0000
  H   H1863     1.0  0.73274  0.80352  0.32412  1.0000
  H   H1864     1.0  0.85029  0.61687  0.24180  1.0000
  H   H1865     1.0  0.88284  0.57541  0.30465  1.0000
  H   H1866     1.0  0.77295  0.77490  0.37870  1.0000
  H   H1867     1.0  0.92560  0.74648  0.96972  1.0000
  H   H1868     1.0  0.81799  0.94801  0.96942  1.0000
  H   H1869     1.0  0.68024  0.54193  0.14813  1.0000
  H   H1870     1.0  0.70199  0.57502  0.23833  1.0000
  C   C1055     1.0  0.75039  0.80763  0.39212  1.0000
  N   N59       1.0  0.91828  0.48622  0.00709  1.0000
  H   H1871     1.0  0.83920  0.91870  0.43772  1.0000
  H   H1872     1.0  0.95239  0.50135  0.07790  1.0000
  H   H1873     1.0  0.92115  0.48418  0.40109  1.0000
  C   C1056     1.0  0.66900  0.92399  0.99058  1.0000
  C   C1057     1.0  0.67095  0.60788  0.15163  1.0000
  H   H1874     1.0  0.98196  0.49070  0.06105  1.0000
  H   H1875     1.0  0.80414  0.95020  0.45000  1.0000
  H   H1876     1.0  0.79351  0.77457  0.99507  1.0000
  H   H1877     1.0  0.94974  0.48804  0.42081  1.0000
  H   H1878     1.0  0.89711  0.51864  0.04874  1.0000
  C   C1058     1.0  0.75296  0.94959  0.00702  1.0000
  H   H1879     1.0  0.85531  0.56347  0.42338  1.0000
  H   H1880     1.0  0.68095  0.67169  0.06227  1.0000
  H   H1881     1.0  0.69314  0.59915  0.19857  1.0000
  S   S233      1.0  0.70670  0.83534  0.96751  1.0000
  H   H1882     1.0  0.96364  0.67738  0.00671  1.0000
  S   S234      1.0  0.77258  0.83223  0.96370  1.0000
  C   C1059     1.0  0.66557  0.65589  0.16183  1.0000
  C   C1060     1.0  0.75575  0.75799  0.44565  1.0000
  C   C1061     1.0  0.90274  0.48018  0.44674  1.0000
  H   H1883     1.0  0.67554  0.95539  0.03309  1.0000
  C   C1062     1.0  0.68399  0.56283  0.14348  1.0000
  H   H1884     1.0  0.67069  0.61267  0.13100  1.0000
  H   H1885     1.0  0.88878  0.47117  0.43273  1.0000
  H   H1886     1.0  0.79247  0.90977  0.95350  1.0000
  H   H1887     1.0  0.90739  0.73655  0.45256  1.0000
  H   H1888     1.0  0.88569  0.87102  0.88890  1.0000
  C   C1063     1.0  0.89695  0.73637  0.53370  1.0000
  H   H1889     1.0  0.89734  0.89822  0.87033  1.0000
  S   S235      1.0  0.73528  0.80584  0.91914  1.0000
  C   C1064     1.0  0.66378  0.74768  0.90903  1.0000
  S   S236      1.0  0.73876  0.86886  0.92338  1.0000
  H   H1890     1.0  0.91358  0.70846  0.49131  1.0000
  Fe  Fe118     1.0  0.70630  0.83849  0.92481  1.0000
  C   C1065     1.0  0.80536  0.75277  0.90983  1.0000
  Fe  Fe119     1.0  0.76793  0.83557  0.92130  1.0000
  S   S237      1.0  0.80021  0.83500  0.89068  1.0000
  C   C1066     1.0  0.84525  0.74809  0.50686  1.0000
  H   H1891     1.0  0.82051  0.74867  0.47260  1.0000
  H   H1892     1.0  0.88281  0.74841  0.54472  1.0000
  C   C1067     1.0  0.71042  0.82105  0.83439  1.0000
  C   C1068     1.0  0.92506  0.73852  0.46509  1.0000
  H   H1893     1.0  0.71567  0.77969  0.83797  1.0000
  Fe  Fe120     1.0  0.96455  0.80175  0.58724  1.0000
  S   S238      1.0  0.93033  0.82989  0.57889  1.0000
  S   S239      1.0  0.95990  0.76272  0.60584  1.0000
  H   H1894     1.0  0.93288  0.81522  0.48739  1.0000
  H   H1895     1.0  0.86415  0.92732  0.89092  1.0000
  H   H1896     1.0  0.87013  0.74539  0.47372  1.0000
  H   H1897     1.0  0.88142  0.76434  0.83498  1.0000
  H   H1898     1.0  0.91232  0.49090  0.95163  1.0000
  H   H1899     1.0  0.88551  0.78375  0.51589  1.0000
  Fe  Fe121     1.0  0.95602  0.79151  0.87156  1.0000
  S   S240      1.0  0.92269  0.80322  0.89923  1.0000
  S   S241      1.0  0.95484  0.76244  0.83920  1.0000
  Fe  Fe122     1.0  0.71706  0.83286  0.54309  1.0000
  S   S242      1.0  0.70791  0.84307  0.50243  1.0000
  S   S243      1.0  0.68730  0.82703  0.57561  1.0000
  Fe  Fe123     1.0  0.77563  0.81896  0.53084  1.0000
  S   S244      1.0  0.76988  0.82723  0.48899  1.0000
  S   S245      1.0  0.81148  0.79762  0.54836  1.0000
  Fe  Fe124     1.0  0.74771  0.86333  0.50205  1.0000
  S   S246      1.0  0.75528  0.89880  0.47638  1.0000
  Fe  Fe125     1.0  0.73054  0.80675  0.49226  1.0000
  H   H1900     1.0  0.68245  0.70823  0.79240  1.0000
  S   S247      1.0  0.75561  0.85600  0.54403  1.0000
  S   S248      1.0  0.73768  0.79558  0.53282  1.0000
  C   C1069     1.0  0.74524  0.93199  0.47901  1.0000
  C   C1070     1.0  0.73671  0.94295  0.50200  1.0000
  C   C1071     1.0  0.88803  0.89257  0.88868  1.0000
  H   H1901     1.0  0.73532  0.93088  0.51883  1.0000
  C   C1072     1.0  0.84862  0.72703  0.90989  1.0000
  C   C1073     1.0  0.89739  0.82065  0.57023  1.0000
  C   C1074     1.0  0.88750  0.79567  0.57519  1.0000
  C   C1075     1.0  0.86097  0.78936  0.56889  1.0000
  C   C1076     1.0  0.84421  0.80757  0.55692  1.0000
  C   C1077     1.0  0.85408  0.83258  0.55199  1.0000
  C   C1078     1.0  0.88043  0.83913  0.55889  1.0000
  H   H1902     1.0  0.90014  0.78132  0.58417  1.0000
  H   H1903     1.0  0.85331  0.77016  0.57327  1.0000
  H   H1904     1.0  0.84139  0.84688  0.54296  1.0000
  H   H1905     1.0  0.88778  0.85860  0.55517  1.0000
  C   C1079     1.0  0.98985  0.68460  0.89154  1.0000
  H   H1906     1.0  0.79239  0.95356  0.94663  1.0000
  H   H1907     1.0  0.93735  0.73027  0.50381  1.0000
  H   H1908     1.0  0.93844  0.81721  0.63076  1.0000
  C   C1080     1.0  0.97689  0.67683  0.51294  1.0000
  H   H1909     1.0  0.69921  0.74380  0.93276  1.0000
  H   H1910     1.0  0.85518  0.92332  0.46843  1.0000
  C   C1081     1.0  0.89094  0.70727  0.53928  1.0000
  C   C1082     1.0  0.83404  0.82551  0.89346  1.0000
  C   C1083     1.0  0.84633  0.82205  0.91714  1.0000
  C   C1084     1.0  0.87357  0.81573  0.91844  1.0000
  C   C1085     1.0  0.88874  0.81227  0.89617  1.0000
  C   C1086     1.0  0.87638  0.81548  0.87250  1.0000
  C   C1087     1.0  0.84924  0.82228  0.87120  1.0000
  H   H1911     1.0  0.83495  0.82463  0.93442  1.0000
  H   H1912     1.0  0.88297  0.81337  0.93684  1.0000
  H   H1913     1.0  0.88779  0.81297  0.85522  1.0000
  H   H1914     1.0  0.83995  0.82507  0.85280  1.0000
  H   H1915     1.0  0.92872  0.78177  0.53582  1.0000
  C   C1088     1.0  0.74697  0.94809  0.45736  1.0000
  H   H1916     1.0  0.84328  0.74018  0.52642  1.0000
  H   H1917     1.0  0.91106  0.70675  0.57611  1.0000
  H   H1918     1.0  0.90765  0.73555  0.87728  1.0000
  C   C1089     1.0  0.97741  0.69776  0.91154  1.0000
  H   H1919     1.0  0.95503  0.75389  0.95152  1.0000
  H   H1920     1.0  0.88516  0.64434  0.91317  1.0000
  C   C1090     1.0  0.87053  0.73006  0.85733  1.0000
  H   H1921     1.0  0.92853  0.71953  0.93069  1.0000
  H   H1922     1.0  0.98290  0.64546  0.48602  1.0000
  H   H1923     1.0  0.86838  0.71608  0.49124  1.0000
  H   H1924     1.0  0.97957  0.85585  0.64948  1.0000
  H   H1925     1.0  0.76805  0.93155  0.86450  1.0000
  H   H1926     1.0  0.91670  0.74050  0.54238  1.0000
  H   H1927     1.0  0.94143  0.46792  0.46268  1.0000
  H   H1928     1.0  0.95970  0.68437  0.50302  1.0000
  C   C1091     1.0  0.88741  0.69838  0.90555  1.0000
  H   H1929     1.0  0.95128  0.81821  0.66217  1.0000
  H   H1930     1.0  0.84187  0.76580  0.92658  1.0000
  H   H1931     1.0  0.93468  0.86341  0.66882  1.0000
  H   H1932     1.0  0.84553  0.76967  0.50803  1.0000
  H   H1933     1.0  0.69795  0.76424  0.89030  1.0000
  C   C1092     1.0  0.98706  0.80748  0.72653  1.0000
  H   H1934     1.0  0.79682  0.77275  0.91052  1.0000
  C   C1093     1.0  0.81396  0.95559  0.95000  1.0000
  N   N60       1.0  0.87834  0.72645  0.90614  1.0000
  H   H1935     1.0  0.85169  0.94123  0.93724  1.0000
  N   N61       1.0  0.82256  0.91295  0.92382  1.0000
  H   H1936     1.0  0.84904  0.90008  0.87442  1.0000
  H   H1937     1.0  0.92873  0.53594  0.52084  1.0000
  H   H1938     1.0  0.99122  0.77536  0.49207  1.0000
  H   H1939     1.0  0.84140  0.76577  0.89235  1.0000
  H   H1940     1.0  0.67512  0.75207  0.81022  1.0000
  H   H1941     1.0  0.95699  0.53664  0.49996  1.0000
  H   H1942     1.0  0.80240  0.74836  0.50212  1.0000
  C   C1094     1.0  0.67148  0.73501  0.82266  1.0000
  H   H1943     1.0  0.94134  0.70109  0.45278  1.0000
  H   H1944     1.0  0.89800  0.78036  0.48468  1.0000
  H   H1945     1.0  0.87112  0.70151  0.53188  1.0000
  Fe  Fe126     1.0  0.98475  0.74729  0.57363  1.0000
  C   C1095     1.0  0.89119  0.70209  0.56795  1.0000
  C   C1096     1.0  0.90088  0.77335  0.50456  1.0000
  N   N62       1.0  0.66608  0.76498  0.86230  1.0000
  H   H1946     1.0  0.97307  0.71829  0.90971  1.0000
  C   C1097     1.0  0.84679  0.89736  0.91616  1.0000
  H   H1947     1.0  0.88633  0.76244  0.92627  1.0000
  H   H1948     1.0  0.70347  0.82019  0.81431  1.0000
  H   H1949     1.0  0.81256  0.92112  0.88440  1.0000
  H   H1950     1.0  0.84329  0.71842  0.92862  1.0000
  H   H1951     1.0  0.95040  0.81971  0.51710  1.0000
  C   C1098     1.0  0.75877  0.92330  0.88191  1.0000
  H   H1952     1.0  0.95135  0.51496  0.45481  1.0000
  C   C1099     1.0  0.91861  0.72957  0.49258  1.0000
  H   H1953     1.0  0.73112  0.92939  0.94902  1.0000
  H   H1954     1.0  0.79865  0.89170  0.89652  1.0000
  C   C1100     1.0  0.86099  0.90591  0.89132  1.0000
  H   H1955     1.0  0.93181  0.75912  0.46472  1.0000
  C   C1101     1.0  0.77697  0.92717  0.90499  1.0000
  H   H1956     1.0  0.87599  0.68722  0.89101  1.0000
  H   H1957     1.0  0.96446  0.85756  0.61815  1.0000
  N   N63       1.0  0.89676  0.74423  0.50606  1.0000
  C   C1102     1.0  0.88159  0.74272  0.83324  1.0000
  H   H1958     1.0  0.82006  0.95481  0.48060  1.0000
  C   C1103     1.0  0.67839  0.74089  0.85079  1.0000
  H   H1959     1.0  0.87171  0.70862  0.85480  1.0000
  H   H1960     1.0  0.66773  0.78950  0.82845  1.0000
  C   C1104     1.0  0.88621  0.73905  0.88128  1.0000
  H   H1961     1.0  0.90624  0.69448  0.53060  1.0000
  C   C1105     1.0  0.87060  0.73758  0.49347  1.0000
  C   C1106     1.0  0.80342  0.91232  0.90161  1.0000
  C   C1107     1.0  0.89614  0.65546  0.92801  1.0000
  H   H1962     1.0  0.66444  0.80664  0.85732  1.0000
  H   H1963     1.0  0.90950  0.53191  0.92865  1.0000
  H   H1964     1.0  0.90009  0.51958  0.48683  1.0000
  H   H1965     1.0  0.66410  0.76436  0.55886  1.0000
  S   S249      1.0  0.67048  0.84357  0.89844  1.0000
  H   H1966     1.0  0.90851  0.69704  0.89917  1.0000
  Fe  Fe127     1.0  0.98546  0.78805  0.81978  1.0000
  S   S250      1.0  0.98421  0.81843  0.85117  1.0000
  H   H1967     1.0  0.89042  0.48363  0.46388  1.0000
  C   C1108     1.0  0.99598  0.65803  0.89432  1.0000
  H   H1968     1.0  0.81815  0.71889  0.49104  1.0000
  C   C1109     1.0  0.92195  0.73990  0.92879  1.0000
  H   H1969     1.0  0.67234  0.72328  0.86164  1.0000
  H   H1970     1.0  0.76618  0.92023  0.92195  1.0000
  H   H1971     1.0  0.92785  0.49849  0.49148  1.0000
  H   H1972     1.0  0.88449  0.76060  0.88248  1.0000
  H   H1973     1.0  0.88692  0.68117  0.57155  1.0000
  N   N64       1.0  0.90844  0.81358  0.66003  1.0000
  C   C1110     1.0  0.90964  0.78435  0.65663  1.0000
  C   C1111     1.0  0.88606  0.82497  0.64418  1.0000
  C   C1112     1.0  0.93431  0.82474  0.65026  1.0000
  C   C1113     1.0  0.90584  0.82134  0.68766  1.0000
  C   C1114     1.0  0.88276  0.80881  0.70275  1.0000
  C   C1115     1.0  0.93240  0.77019  0.67100  1.0000
  C   C1116     1.0  0.83569  0.75452  0.90950  1.0000
  C   C1117     1.0  0.86070  0.80808  0.64034  1.0000
  C   C1118     1.0  0.83862  0.82371  0.62740  1.0000
  C   C1119     1.0  0.88465  0.81582  0.73103  1.0000
  C   C1120     1.0  0.92968  0.74058  0.66890  1.0000
  H   H1974     1.0  0.90225  0.73602  0.82974  1.0000
  H   H1975     1.0  0.91168  0.77958  0.63599  1.0000
  H   H1976     1.0  0.89083  0.77488  0.66254  1.0000
  H   H1977     1.0  0.87987  0.84426  0.65193  1.0000
  H   H1978     1.0  0.89305  0.82906  0.62443  1.0000
  C   C1121     1.0  0.98979  0.79122  0.74801  1.0000
  H   H1979     1.0  0.73958  0.93342  0.88524  1.0000
  H   H1980     1.0  0.92471  0.81737  0.69813  1.0000
  H   H1981     1.0  0.90296  0.84277  0.68937  1.0000
  H   H1982     1.0  0.88298  0.78724  0.70146  1.0000
  H   H1983     1.0  0.86346  0.81633  0.69569  1.0000
  H   H1984     1.0  0.95184  0.77550  0.66265  1.0000
  H   H1985     1.0  0.93264  0.77520  0.69155  1.0000
  H   H1986     1.0  0.96392  0.88554  0.63881  1.0000
  H   H1987     1.0  0.92921  0.55841  0.49448  1.0000
  H   H1988     1.0  0.86527  0.79119  0.62780  1.0000
  H   H1989     1.0  0.85284  0.80042  0.65849  1.0000
  H   H1990     1.0  0.83178  0.83980  0.63996  1.0000
  H   H1991     1.0  0.84571  0.83207  0.60911  1.0000
  H   H1992     1.0  0.82144  0.81075  0.62319  1.0000
  H   H1993     1.0  0.86767  0.80703  0.74145  1.0000
  H   H1994     1.0  0.90340  0.80815  0.73939  1.0000
  H   H1995     1.0  0.88398  0.83731  0.73373  1.0000
  H   H1996     1.0  0.92944  0.73435  0.64863  1.0000
  H   H1997     1.0  0.94695  0.73117  0.67840  1.0000
  H   H1998     1.0  0.91120  0.73382  0.67837  1.0000
  H   H1999     1.0  0.66847  0.73637  0.94869  1.0000
  H   H2000     1.0  0.66550  0.50152  0.48535  1.0000
  Fe  Fe128     1.0  0.99019  0.74408  0.85871  1.0000
  C   C1122     1.0  0.97563  0.65752  0.93620  1.0000
  H   H2001     1.0  0.87584  0.71404  0.57767  1.0000
  H   H2002     1.0  0.73215  0.82492  0.83451  1.0000
  C   C1123     1.0  0.93504  0.53852  0.50074  1.0000
  C   C1124     1.0  0.96270  0.86392  0.63831  1.0000
  C   C1125     1.0  0.82013  0.74045  0.49217  1.0000
  H   H2003     1.0  0.86923  0.73709  0.81657  1.0000
  C   C1126     1.0  0.66816  0.50799  0.46533  1.0000
  S   S251      1.0  0.98014  0.57289  0.46150  1.0000
  S   S252      1.0  0.96842  0.71652  0.54675  1.0000
  H   H2004     1.0  0.84930  0.73569  0.85871  1.0000
  H   H2005     1.0  0.80211  0.87984  0.94025  1.0000
  H   H2006     1.0  0.93100  0.74811  0.91131  1.0000
  C   C1127     1.0  0.93615  0.85501  0.64940  1.0000
  H   H2007     1.0  0.83848  0.71445  0.89554  1.0000
  H   H2008     1.0  0.75461  0.90226  0.87872  1.0000
  H   H2009     1.0  0.92021  0.86353  0.63738  1.0000
  H   H2010     1.0  0.98153  0.82768  0.72919  1.0000
  C   C1128     1.0  0.88474  0.68294  0.93087  1.0000
  H   H2011     1.0  0.71283  0.79737  0.86759  1.0000
  C   C1129     1.0  0.97021  0.68419  0.93372  1.0000
  H   H2012     1.0  0.67254  0.78694  0.89713  1.0000
  C   C1130     1.0  0.93167  0.81246  0.50833  1.0000
  H   H2013     1.0  0.86208  0.89793  0.93149  1.0000
  C   C1131     1.0  0.70472  0.79536  0.84807  1.0000
  H   H2014     1.0  0.94498  0.77288  0.50669  1.0000
  C   C1132     1.0  0.92791  0.78364  0.51477  1.0000
  H   H2015     1.0  0.90155  0.89849  0.90443  1.0000
  H   H2016     1.0  0.91497  0.82423  0.51597  1.0000
  H   H2017     1.0  0.79834  0.74187  0.92682  1.0000
  C   C1133     1.0  0.89125  0.74136  0.92765  1.0000
  C   C1134     1.0  0.98398  0.46578  0.50074  1.0000
  C   C1135     1.0  0.98583  0.68906  0.53532  1.0000
  H   H2018     1.0  0.84140  0.87642  0.91378  1.0000
  C   C1136     1.0  0.82348  0.95110  0.46006  1.0000
  H   H2019     1.0  0.70037  0.83749  0.84431  1.0000
  C   C1137     1.0  0.98997  0.65473  0.50329  1.0000
  H   H2020     1.0  0.91751  0.65632  0.92276  1.0000
  C   C1138     1.0  0.67602  0.76701  0.88949  1.0000
  H   H2021     1.0  0.92715  0.77584  0.95053  1.0000
  S   S253      1.0  0.70953  0.77802  0.46585  1.0000
  H   H2022     1.0  0.70042  0.74159  0.85269  1.0000
  H   H2023     1.0  0.94220  0.52892  0.94247  1.0000
  C   C1139     1.0  0.68825  0.71248  0.81242  1.0000
  H   H2024     1.0  0.70970  0.71766  0.81276  1.0000
  C   C1140     1.0  0.99182  0.79799  0.70165  1.0000
  C   C1141     1.0  0.81014  0.89918  0.94628  1.0000
  H   H2025     1.0  0.99315  0.62387  0.91839  1.0000
  S   S254      1.0  0.98726  0.78595  0.55422  1.0000
  H   H2026     1.0  0.66519  0.72721  0.90241  1.0000
  H   H2027     1.0  0.79796  0.74298  0.89231  1.0000
  C   C1142     1.0  0.67804  0.74958  0.93471  1.0000
  H   H2028     1.0  0.87837  0.54369  0.45969  1.0000
  H   H2029     1.0  0.86052  0.51327  0.45499  1.0000
  C   C1143     1.0  0.83596  0.92403  0.45799  1.0000
  H   H2030     1.0  0.99147  0.50584  0.48963  1.0000
  C   C1144     1.0  0.83089  0.94065  0.92992  1.0000
  C   C1145     1.0  0.67447  0.78950  0.84855  1.0000
  C   C1146     1.0  0.92999  0.52058  0.45558  1.0000
  C   C1147     1.0  0.92177  0.51784  0.48403  1.0000
  S   S255      1.0  0.98964  0.77126  0.89203  1.0000
  H   H2031     1.0  0.82230  0.90937  0.46651  1.0000
  H   H2032     1.0  0.78070  0.94843  0.90665  1.0000
  H   H2033     1.0  0.97761  0.47093  0.51976  1.0000
  H   H2034     1.0  0.89561  0.69251  0.94672  1.0000
  S   S256      1.0  0.98440  0.80471  0.77899  1.0000
  C   C1148     1.0  0.93297  0.75497  0.95161  1.0000
  C   C1149     1.0  0.98901  0.64450  0.91667  1.0000
  H   H2035     1.0  0.96574  0.72369  0.46539  1.0000
  H   H2036     1.0  0.83137  0.95252  0.91216  1.0000
  H   H2037     1.0  0.68503  0.69457  0.82393  1.0000
  H   H2038     1.0  0.68318  0.52391  0.46507  1.0000
  H   H2039     1.0  0.67588  0.49148  0.45377  1.0000
  H   H2040     1.0  0.67637  0.75084  0.52955  1.0000
  H   H2041     1.0  0.98676  0.46962  0.93320  1.0000
  C   C1150     1.0  0.99168  0.48565  0.48367  1.0000
  H   H2042     1.0  0.67712  0.76981  0.94230  1.0000
  H   H2043     1.0  0.86357  0.68095  0.93642  1.0000
  C   C1151     1.0  0.94736  0.72195  0.45372  1.0000
  H   H2044     1.0  0.89452  0.64477  0.94633  1.0000
  H   H2045     1.0  0.99036  0.81094  0.68550  1.0000
  H   H2046     1.0  0.96045  0.69431  0.94915  1.0000
  H   H2047     1.0  0.76590  0.77416  0.45472  1.0000
  H   H2048     1.0  0.88316  0.73503  0.94637  1.0000
  C   C1152     1.0  0.92073  0.53140  0.94687  1.0000
