data_image0
_chemical_formula_structural       NHC2HCH6CHCHC2HC2HSH2CNH2C2HC2H2CHC3HCH9SH9CHC3H2SHCH2C2FeS2FeS2FeSFeS3FeS2FeS2FeSFeS3C6H2CHC2H2CHCH3C6H2CHC6H5CH4C3HCH2CHCHCHC2H4CH6CH5CH7CH3CHC2NC9HC2H19C2H7C5H2C2H3CH2CH3CHCH2C2H10CNH3CH5C4HC3H3CH3NH3C2H2C2HCNCH3CH2CHNH3C2H5CH5CH2CHCH2C2H12CH2CH8C2HC2H2FeSCFeS2FeSFeS3FeS2FeS2FeSFeS3FeS2FeSCFeSFeS3FeS2FeS2FeSFeS3FeS2H2FeCNS2FeS2FeHFeHFeCS2HCH2SH4C2H2C2H3C6H4C2H3C3H2C6H4C6H4C6H4C2H3C6H4CH4C6H4NC3HCHC2H5FeCHSCH8NC8HCH16C2H4CHCHCHCH14CHC2HCHNHC2HCH3CH8CHCH9CHC2H5CH8CH2CHCHC2SHCSCH2C2H3CH2C2H2C2HCH4CHCNCH4C2H4CH2CHNC2H3CSCHC2H2CH2CH3C2HCH2CH2NH2CH3CHCHC3SCH3CHCH5C2HCHCH3C2H2C2H2CSC2H8CHCH8CH3CH2CH3CH2CHCH6C2H3FeHCH3CH2CH3C2H3CNCH4CH3C2H9CH7C2H3NHCH6NHCH2CH3SFeSHFeSFeSHCFeS2FeS2FeSFeS3FeSFeSHFeSFeS2CFeS2FeS2FeCFeS3FeS2FeS2FeSFeS3FeS2FeS2FeSFeS3HCH4CH3CH2C6H4CH2C6HCH2CH4C2H3C6H4C6H4C6H9SH2CHC6H5CH3C2H2C3HC2HC3H4CHCH8FeNC11H8C2H5CH9NC9SHCH22CH5NC12H31C3HCHSH2C2H6CH3C2H5N2CHC2HC2HC2HCHC2H4CHCHC3H2C2HC2NCH4CH2CH3CHCHC2HCH4CH7CH2CH2C4H5CHCH3SHCHCH4C2H7NC3H3CH3CHC4HCH2CH3CH3CHCH7CH4NH2NCH2CHC2H2CH2CH3CHSH3CH5CSH6CHCSH5FeS2FeS2FeSFeS3FeS2FeS2FeSFeS3H2C6H4C4H2CH3C6H4C6H5CH2C3H2C2HC3HCHN2CH7CH2CH3C3HCH6CH5CNH2CHC2H2NC10HCH10C2H11CH6CH2C2HCH3C2H3CHC2H6CH2C3H4NC12H19C2H10NC2HCH2C3H10CH2CH3CH4CH3CSH6CH7CH3CHC3H8CH7CH9CH4C2HCH3CH2NCH4CHCH2C2H2CH2CHC2H3C2HC2H2CH3C2H3SC3HSCHCH3CH4NHCH9CH3CH6FeS2FeS2FeSFeS3FeS2FeS2FeSFeS3C2HC3H4C3H2C4HC3HC2H2CHC6H5NC2HCHC3H2C2H4CH10C2H2C3HNC8HC3H18CH9CH7CH6C2H5C3H4CH6C6H4CHCH15CHCH3CNCH2C4H4CH5CH5CH9C2H3NH3NFeS2FeS2FeSFeS3FeS2FeS2FeSFeS3FeS2FeS2FeSFeS3FeS2FeS2FeSFeS3FeS2FeSHFeSFeS2FeSHNSHFeSFeS2HC2HC3H2CH4CHC7H4C6H4C3H3C2HC7H2CHC6H4C6H4C6H6CH2C3HNC6HC2H2CH10CH13CHC2NC12H25CH3NC10H13CH7NC12H27CH3CH11CHCHCH2CHC2HCH2CH4C3H2CHCH5C2HC2H2CHSHCH2CH3SC2HC2H3CH3C2H2C3H2CH5CHC2H2C2H3NH5FeH7CHC2H3CHCHCHCHNH2C2H4CH2CH6CH4CHCH5CH14CH2CH2CH3CHNHCH2C2H4CH2CH5C2HNH3CHCHCNHCH2CH4CHC2SH3C2H2CH2C2HC2H5CH2CHC3H2FeS2FeS2FeSFeS3CSFeSHFeSFeS2HFeS2FeS2FeSFeS3HSFeS2FeCFeS3FeS2FeS2FeCFeS3FeS2FeS2FeSFeS3C2HCHC3H2C6H5C3HNC6H4C6H4C3H2NCH3CHCH2C6H3C7H4CH2CHC6H4C6H4C2HCH6CHSC4HC2HC4H4CH4CHC3H6C2H4CHCH7C2H3C2H7CNC12H28CH3NHC9H17CHCH3CH2CNHCH3C3NH6CHCHCHCH2CH2CH6C3HCH5CH3CHCH2FeC2HCH3CH4CH2CH2CHCH2CH2C2HC2H2NCNH5CH5NH8SC2HC2HCHCH2C2H3CH3CHCH5SH5CH6CH2C3H8CH2C3H2FeH5CH3CH15CHCSHC2HCH4CH3C2H3CHCH3CH6C2H2CHFeS2FeS2FeSFeS3FeS2FeS2FeSFeS5C6H4C2H5CH2C6H4C6H9C2H4CH3CH6CHCH2C2H3C2H2C2NH5C3HCNC6HCHC3H4CH12CHCH5CH3CH4C3H6C2H7CH5CH10CNHCHCHCH2CNH4CH3CH2C2H3C4H5CH2C2H5CNC4HCH3C2H3CH3C2NC3H3CHC2H3CH3CH7CH8CHCH3
_chemical_formula_sum              "N64 H2048 C1152 S256 Fe128"
_cell_length_a       50.674
_cell_length_b       50.6734
_cell_length_c       73.6986
_cell_angle_alpha    90.3554
_cell_angle_beta     90.2931
_cell_angle_gamma    87.2757

_space_group_name_H-M_alt    "P 1"
_space_group_IT_number       1

loop_
  _space_group_symop_operation_xyz
  'x, y, z'

loop_
  _atom_site_type_symbol
  _atom_site_label
  _atom_site_symmetry_multiplicity
  _atom_site_fract_x
  _atom_site_fract_y
  _atom_site_fract_z
  _atom_site_occupancy
  N   N1        1.0  0.02782  0.00395  0.04041  1.0000
  H   H1        1.0  0.07454  0.14437  0.02898  1.0000
  C   C1        1.0  0.07195  0.06545  0.04203  1.0000
  C   C2        1.0  0.10024  0.46521  0.03154  1.0000
  H   H2        1.0  0.00277  0.44405  0.05931  1.0000
  C   C3        1.0  0.09836  0.43762  0.02944  1.0000
  H   H3        1.0  0.04702  0.16557  0.03636  1.0000
  H   H4        1.0  0.09940  0.42516  0.04132  1.0000
  H   H5        1.0  0.01935  0.44043  0.22681  1.0000
  H   H6        1.0  0.03932  0.42011  0.01233  1.0000
  H   H7        1.0  0.15913  0.46830  0.02714  1.0000
  H   H8        1.0  0.99700  0.03504  0.03900  1.0000
  C   C4        1.0  0.03554  0.45298  0.23135  1.0000
  H   H9        1.0  0.03940  0.45588  0.07920  1.0000
  C   C5        1.0  0.00337  0.49266  0.23428  1.0000
  H   H10       1.0  0.09114  0.05593  0.03772  1.0000
  C   C6        1.0  0.02969  0.48176  0.22595  1.0000
  C   C7        1.0  0.05398  0.16532  0.00715  1.0000
  H   H11       1.0  0.01598  0.01759  0.01357  1.0000
  C   C8        1.0  0.18692  0.45552  0.00595  1.0000
  C   C9        1.0  0.04908  0.04908  0.03560  1.0000
  H   H12       1.0  0.06707  0.18217  0.00815  1.0000
  S   S1        1.0  0.01254  0.09358  0.00114  1.0000
  H   H13       1.0  0.05052  0.04696  0.02063  1.0000
  H   H14       1.0  0.04131  0.13439  0.02514  1.0000
  C   C10       1.0  0.03771  0.46451  0.06540  1.0000
  N   N2        1.0  0.00372  0.44264  0.02020  1.0000
  H   H15       1.0  0.02749  0.48436  0.06651  1.0000
  H   H16       1.0  0.00299  0.48688  0.24881  1.0000
  C   C11       1.0  0.10625  0.00911  0.08825  1.0000
  C   C12       1.0  0.17802  0.36727  0.01396  1.0000
  H   H17       1.0  0.09516  0.01837  0.07672  1.0000
  C   C13       1.0  0.00596  0.39882  0.00189  1.0000
  C   C14       1.0  0.16546  0.39129  0.00422  1.0000
  H   H18       1.0  0.06953  0.01161  0.04157  1.0000
  H   H19       1.0  0.10288  0.47366  0.04491  1.0000
  C   C15       1.0  0.05410  0.15161  0.02556  1.0000
  H   H20       1.0  0.03054  0.06062  0.03883  1.0000
  C   C16       1.0  0.09570  0.42598  0.01218  1.0000
  C   C17       1.0  0.09959  0.48168  0.01635  1.0000
  C   C18       1.0  0.05010  0.02169  0.04501  1.0000
  H   H21       1.0  0.06994  0.08547  0.03599  1.0000
  C   C19       1.0  0.01956  0.45812  0.03363  1.0000
  H   H22       1.0  0.02052  0.40462  0.02882  1.0000
  H   H23       1.0  0.16104  0.40666  0.01468  1.0000
  H   H24       1.0  0.19437  0.43844  0.01413  1.0000
  H   H25       1.0  0.01769  0.18666  0.01344  1.0000
  H   H26       1.0  0.05065  0.02585  0.05982  1.0000
  H   H27       1.0  0.05797  0.46669  0.06011  1.0000
  H   H28       1.0  0.04007  0.46000  0.02862  1.0000
  H   H29       1.0  0.02828  0.48212  0.21092  1.0000
  H   H30       1.0  0.12233  0.02221  0.09219  1.0000
  S   S2        1.0  0.10948  0.01324  0.00690  1.0000
  H   H31       1.0  0.19096  0.48251  0.02874  1.0000
  H   H32       1.0  0.04753  0.00104  0.01432  1.0000
  H   H33       1.0  0.11262  0.21050  0.00956  1.0000
  H   H34       1.0  0.16393  0.36011  0.02413  1.0000
  H   H35       1.0  0.03130  0.36428  0.00886  1.0000
  H   H36       1.0  0.19636  0.37259  0.02114  1.0000
  H   H37       1.0  0.03321  0.42692  0.05269  1.0000
  H   H38       1.0  0.01129  0.47878  0.03491  1.0000
  H   H39       1.0  0.07180  0.06775  0.05703  1.0000
  C   C20       1.0  0.01860  0.41675  0.01633  1.0000
  H   H40       1.0  0.03802  0.45133  0.24630  1.0000
  C   C21       1.0  0.00240  0.01724  0.04722  1.0000
  C   C22       1.0  0.02567  0.17518  0.00161  1.0000
  C   C23       1.0  0.02231  0.44642  0.05299  1.0000
  H   H41       1.0  0.18271  0.35094  0.00420  1.0000
  H   H42       1.0  0.09253  0.00735  0.09984  1.0000
  S   S3        1.0  0.09429  0.39087  0.01047  1.0000
  H   H43       1.0  0.05418  0.44549  0.22483  1.0000
  C   C24       1.0  0.17540  0.47639  0.01914  1.0000
  H   H44       1.0  0.03740  0.22294  0.00173  1.0000
  H   H45       1.0  0.00511  0.02498  0.06124  1.0000
  C   C25       1.0  0.99992  0.45888  0.00321  1.0000
  C   C26       1.0  0.02717  0.00059  0.01999  1.0000
  Fe  Fe1       1.0  0.39415  0.07354  0.56642  1.0000
  S   S4        1.0  0.39543  0.08493  0.53725  1.0000
  S   S5        1.0  0.43020  0.05307  0.57864  1.0000
  Fe  Fe2       1.0  0.33711  0.09194  0.57015  1.0000
  S   S6        1.0  0.33366  0.10342  0.54057  1.0000
  S   S7        1.0  0.30596  0.10432  0.59084  1.0000
  Fe  Fe3       1.0  0.35700  0.06454  0.53499  1.0000
  S   S8        1.0  0.35449  0.03624  0.51029  1.0000
  Fe  Fe4       1.0  0.37246  0.12239  0.54542  1.0000
  S   S9        1.0  0.38788  0.16273  0.53749  1.0000
  S   S10       1.0  0.35671  0.05192  0.56424  1.0000
  S   S11       1.0  0.37477  0.11220  0.57499  1.0000
  Fe  Fe5       1.0  0.35853  0.32103  0.54533  1.0000
  S   S12       1.0  0.39492  0.32575  0.56239  1.0000
  S   S13       1.0  0.33829  0.28135  0.54517  1.0000
  Fe  Fe6       1.0  0.35609  0.38079  0.53362  1.0000
  S   S14       1.0  0.39183  0.38849  0.55019  1.0000
  S   S15       1.0  0.33638  0.41469  0.51686  1.0000
  Fe  Fe7       1.0  0.40795  0.35011  0.53897  1.0000
  S   S16       1.0  0.44840  0.35202  0.52754  1.0000
  Fe  Fe8       1.0  0.37488  0.36376  0.57201  1.0000
  S   S17       1.0  0.37440  0.38119  0.60050  1.0000
  S   S18       1.0  0.37323  0.34301  0.52103  1.0000
  S   S19       1.0  0.33735  0.35825  0.55631  1.0000
  C   C27       1.0  0.38666  0.36323  0.61944  1.0000
  C   C28       1.0  0.39685  0.33721  0.61777  1.0000
  C   C29       1.0  0.40639  0.32352  0.63320  1.0000
  C   C30       1.0  0.40555  0.33564  0.65039  1.0000
  C   C31       1.0  0.39554  0.36170  0.65206  1.0000
  C   C32       1.0  0.38619  0.37546  0.63660  1.0000
  H   H46       1.0  0.39740  0.32766  0.60461  1.0000
  H   H47       1.0  0.41432  0.30341  0.63181  1.0000
  C   C33       1.0  0.49120  0.33962  0.63576  1.0000
  H   H48       1.0  0.37851  0.39565  0.63796  1.0000
  C   C34       1.0  0.46877  0.36272  0.54497  1.0000
  C   C35       1.0  0.46306  0.35720  0.56308  1.0000
  H   H49       1.0  0.42654  0.41114  0.61244  1.0000
  H   H50       1.0  0.44554  0.34704  0.56642  1.0000
  C   C36       1.0  0.32135  0.48044  0.43969  1.0000
  H   H51       1.0  0.45542  0.49075  0.49162  1.0000
  C   C37       1.0  0.34670  0.44719  0.51189  1.0000
  H   H52       1.0  0.38484  0.48749  0.55091  1.0000
  H   H53       1.0  0.36315  0.44719  0.64026  1.0000
  H   H54       1.0  0.38486  0.44289  0.52460  1.0000
  C   C38       1.0  0.31308  0.09780  0.61387  1.0000
  C   C39       1.0  0.32679  0.07443  0.61905  1.0000
  C   C40       1.0  0.33003  0.06838  0.63753  1.0000
  C   C41       1.0  0.32063  0.08614  0.65095  1.0000
  C   C42       1.0  0.30777  0.10998  0.64582  1.0000
  C   C43       1.0  0.30354  0.11553  0.62732  1.0000
  H   H55       1.0  0.33391  0.06052  0.60877  1.0000
  H   H56       1.0  0.33964  0.04974  0.64143  1.0000
  C   C44       1.0  0.41020  0.04345  0.64193  1.0000
  H   H57       1.0  0.29265  0.13348  0.62339  1.0000
  C   C45       1.0  0.37359  0.19558  0.53926  1.0000
  C   C46       1.0  0.39029  0.21705  0.53972  1.0000
  C   C47       1.0  0.37992  0.24336  0.54148  1.0000
  C   C48       1.0  0.35259  0.24864  0.54247  1.0000
  C   C49       1.0  0.33590  0.22721  0.54174  1.0000
  C   C50       1.0  0.34627  0.20086  0.54033  1.0000
  H   H58       1.0  0.41144  0.21330  0.53882  1.0000
  H   H59       1.0  0.39302  0.25957  0.54196  1.0000
  H   H60       1.0  0.31473  0.23100  0.54233  1.0000
  H   H61       1.0  0.33310  0.18468  0.53985  1.0000
  H   H62       1.0  0.48329  0.25514  0.52345  1.0000
  C   C51       1.0  0.48145  0.06627  0.58279  1.0000
  H   H63       1.0  0.39724  0.48881  0.51779  1.0000
  H   H64       1.0  0.47754  0.02835  0.52973  1.0000
  H   H65       1.0  0.45739  0.44105  0.57511  1.0000
  H   H66       1.0  0.44323  0.39402  0.64147  1.0000
  C   C52       1.0  0.44832  0.10200  0.58551  1.0000
  C   C53       1.0  0.45492  0.07525  0.58267  1.0000
  C   C54       1.0  0.44400  0.44425  0.41372  1.0000
  H   H67       1.0  0.42792  0.10892  0.58586  1.0000
  C   C55       1.0  0.44370  0.43400  0.56450  1.0000
  H   H68       1.0  0.48658  0.04543  0.58110  1.0000
  H   H69       1.0  0.27863  0.32007  0.66254  1.0000
  C   C56       1.0  0.40086  0.08035  0.66242  1.0000
  H   H70       1.0  0.39143  0.40622  0.50041  1.0000
  C   C57       1.0  0.49193  0.09834  0.50202  1.0000
  H   H71       1.0  0.34611  0.46709  0.60511  1.0000
  C   C58       1.0  0.32754  0.45401  0.57374  1.0000
  H   H72       1.0  0.37911  0.07934  0.66045  1.0000
  C   C59       1.0  0.45507  0.07284  0.51254  1.0000
  C   C60       1.0  0.45635  0.05244  0.49676  1.0000
  H   H73       1.0  0.40526  0.04194  0.61229  1.0000
  H   H74       1.0  0.23794  0.06142  0.65522  1.0000
  H   H75       1.0  0.42423  0.02937  0.50693  1.0000
  H   H76       1.0  0.38953  0.48782  0.61612  1.0000
  C   C61       1.0  0.25165  0.05407  0.66609  1.0000
  H   H77       1.0  0.43566  0.42702  0.40672  1.0000
  H   H78       1.0  0.44191  0.13719  0.55552  1.0000
  H   H79       1.0  0.42166  0.45862  0.48752  1.0000
  H   H80       1.0  0.36846  0.12369  0.64929  1.0000
  H   H81       1.0  0.37419  0.38543  0.48472  1.0000
  H   H82       1.0  0.40390  0.42290  0.43293  1.0000
  C   C62       1.0  0.38362  0.46741  0.61881  1.0000
  H   H83       1.0  0.33621  0.45577  0.46130  1.0000
  H   H84       1.0  0.44577  0.06359  0.52443  1.0000
  H   H85       1.0  0.44063  0.08878  0.50817  1.0000
  H   H86       1.0  0.47879  0.05135  0.54810  1.0000
  H   H87       1.0  0.31584  0.28561  0.63799  1.0000
  C   C63       1.0  0.37830  0.48215  0.51333  1.0000
  H   H88       1.0  0.28485  0.30066  0.61407  1.0000
  H   H89       1.0  0.44035  0.12573  0.52353  1.0000
  H   H90       1.0  0.47672  0.11237  0.49607  1.0000
  H   H91       1.0  0.41363  0.08373  0.61688  1.0000
  H   H92       1.0  0.46428  0.09318  0.54458  1.0000
  H   H93       1.0  0.47090  0.14119  0.51947  1.0000
  H   H94       1.0  0.44013  0.41286  0.56696  1.0000
  C   C64       1.0  0.46095  0.08331  0.63119  1.0000
  H   H95       1.0  0.40698  0.49167  0.45370  1.0000
  H   H96       1.0  0.37820  0.15342  0.63857  1.0000
  H   H97       1.0  0.26746  0.28454  0.63182  1.0000
  C   C65       1.0  0.27871  0.30216  0.62851  1.0000
  H   H98       1.0  0.42110  0.03078  0.65203  1.0000
  C   C66       1.0  0.41245  0.43998  0.44011  1.0000
  C   C67       1.0  0.45494  0.38928  0.62909  1.0000
  N   N3        1.0  0.34658  0.20728  0.59913  1.0000
  C   C68       1.0  0.32116  0.20359  0.58884  1.0000
  C   C69       1.0  0.35452  0.23569  0.59770  1.0000
  C   C70       1.0  0.36791  0.18987  0.59024  1.0000
  C   C71       1.0  0.34471  0.19885  0.61865  1.0000
  C   C72       1.0  0.32249  0.21256  0.63010  1.0000
  C   C73       1.0  0.31152  0.17503  0.58763  1.0000
  C   C74       1.0  0.39649  0.19284  0.59750  1.0000
  C   C75       1.0  0.33214  0.25766  0.59643  1.0000
  C   C76       1.0  0.34337  0.28514  0.59754  1.0000
  H   H99       1.0  0.33382  0.39760  0.65573  1.0000
  C   C77       1.0  0.28474  0.17463  0.57800  1.0000
  C   C78       1.0  0.41663  0.17805  0.58537  1.0000
  H   H100      1.0  0.32328  0.21056  0.57470  1.0000
  H   H101      1.0  0.30467  0.21613  0.59452  1.0000
  H   H102      1.0  0.36772  0.24073  0.60921  1.0000
  H   H103      1.0  0.36635  0.23836  0.58513  1.0000
  H   H104      1.0  0.36801  0.19358  0.57540  1.0000
  H   H105      1.0  0.36395  0.16860  0.59176  1.0000
  H   H106      1.0  0.34252  0.17713  0.61941  1.0000
  H   H107      1.0  0.36346  0.20246  0.62596  1.0000
  H   H108      1.0  0.30283  0.21081  0.62368  1.0000
  H   H109      1.0  0.32647  0.23369  0.63211  1.0000
  H   H110      1.0  0.32543  0.16204  0.57964  1.0000
  H   H111      1.0  0.30926  0.16647  0.60130  1.0000
  H   H112      1.0  0.39859  0.18448  0.61135  1.0000
  H   H113      1.0  0.40201  0.21373  0.59800  1.0000
  H   H114      1.0  0.32177  0.25630  0.58314  1.0000
  H   H115      1.0  0.31733  0.25612  0.60728  1.0000
  H   H116      1.0  0.35802  0.28763  0.58658  1.0000
  H   H117      1.0  0.32722  0.30050  0.59569  1.0000
  H   H118      1.0  0.35297  0.28834  0.61090  1.0000
  C   C79       1.0  0.32963  0.46458  0.50201  1.0000
  C   C80       1.0  0.42980  0.03963  0.49435  1.0000
  H   H119      1.0  0.31981  0.44393  0.58582  1.0000
  H   H120      1.0  0.27839  0.15399  0.57701  1.0000
  H   H121      1.0  0.26950  0.18651  0.58565  1.0000
  H   H122      1.0  0.28618  0.18252  0.56401  1.0000
  H   H123      1.0  0.41279  0.15668  0.58480  1.0000
  H   H124      1.0  0.41580  0.18609  0.57138  1.0000
  H   H125      1.0  0.43682  0.18048  0.59083  1.0000
  C   C81       1.0  0.41726  0.03181  0.62302  1.0000
  C   C82       1.0  0.33672  0.49052  0.49789  1.0000
  C   C83       1.0  0.41767  0.45065  0.56456  1.0000
  C   C84       1.0  0.31156  0.44528  0.55735  1.0000
  C   C85       1.0  0.35746  0.44656  0.57157  1.0000
  H   H126      1.0  0.41833  0.12502  0.64254  1.0000
  H   H127      1.0  0.40775  0.39558  0.46081  1.0000
  C   C86       1.0  0.24268  0.99558  0.45623  1.0000
  C   C87       1.0  0.34369  0.47156  0.45262  1.0000
  H   H128      1.0  0.44330  0.45851  0.46804  1.0000
  H   H129      1.0  0.45434  0.05847  0.65432  1.0000
  H   H130      1.0  0.44752  0.09254  0.65799  1.0000
  C   C88       1.0  0.36922  0.46741  0.63699  1.0000
  H   H131      1.0  0.32384  0.47560  0.57564  1.0000
  H   H132      1.0  0.37471  0.44133  0.47861  1.0000
  C   C89       1.0  0.36597  0.45711  0.60327  1.0000
  H   H133      1.0  0.36202  0.00172  0.47931  1.0000
  H   H134      1.0  0.31057  0.45802  0.49766  1.0000
  H   H135      1.0  0.43003  0.43150  0.44739  1.0000
  C   C90       1.0  0.47744  0.27603  0.52654  1.0000
  H   H136      1.0  0.34030  0.20146  0.65626  1.0000
  C   C91       1.0  0.40376  0.11909  0.63219  1.0000
  H   H137      1.0  0.43646  0.26930  0.51987  1.0000
  H   H138      1.0  0.46321  0.14059  0.59008  1.0000
  C   C92       1.0  0.37012  0.25966  0.65596  1.0000
  C   C93       1.0  0.46824  0.11989  0.58793  1.0000
  H   H139      1.0  0.47121  0.40842  0.66619  1.0000
  H   H140      1.0  0.40699  0.46584  0.41619  1.0000
  H   H141      1.0  0.47172  0.03652  0.49911  1.0000
  H   H142      1.0  0.40425  0.10128  0.66597  1.0000
  H   H143      1.0  0.35977  0.42484  0.57387  1.0000
  H   H144      1.0  0.40789  0.37697  0.49125  1.0000
  H   H145      1.0  0.22284  0.15113  0.66152  1.0000
  H   H146      1.0  0.42271  0.47146  0.56235  1.0000
  H   H147      1.0  0.45104  0.45793  0.40327  1.0000
  H   H148      1.0  0.45725  0.35984  0.65956  1.0000
  C   C94       1.0  0.40311  0.44821  0.58283  1.0000
  N   N4        1.0  0.39230  0.45215  0.45312  1.0000
  H   H149      1.0  0.38993  0.99984  0.62423  1.0000
  H   H150      1.0  0.45340  0.43545  0.55109  1.0000
  H   H151      1.0  0.40166  0.45433  0.62043  1.0000
  C   C95       1.0  0.44814  0.27662  0.53150  1.0000
  H   H152      1.0  0.41656  0.45691  0.59292  1.0000
  H   H153      1.0  0.36327  0.43577  0.60588  1.0000
  H   H154      1.0  0.34915  0.30718  0.65528  1.0000
  H   H155      1.0  0.38882  0.04003  0.64399  1.0000
  H   H156      1.0  0.36267  0.44620  0.43236  1.0000
  C   C96       1.0  0.48077  0.36375  0.57686  1.0000
  C   C97       1.0  0.45586  0.14648  0.54624  1.0000
  C   C98       1.0  0.40335  0.08855  0.62985  1.0000
  C   C99       1.0  0.32121  0.20008  0.64891  1.0000
  H   H157      1.0  0.40251  0.42679  0.58613  1.0000
  C   C100      1.0  0.44809  0.41076  0.61520  1.0000
  C   C101      1.0  0.40375  0.40956  0.47226  1.0000
  C   C102      1.0  0.46011  0.12933  0.52931  1.0000
  H   H158      1.0  0.35145  0.48111  0.63665  1.0000
  H   H159      1.0  0.42277  0.41750  0.47653  1.0000
  H   H160      1.0  0.43851  0.03322  0.62016  1.0000
  C   C103      1.0  0.41126  0.00256  0.62187  1.0000
  H   H161      1.0  0.31409  0.32083  0.63644  1.0000
  H   H162      1.0  0.41014  0.12776  0.61917  1.0000
  H   H163      1.0  0.34783  0.48871  0.46135  1.0000
  N   N5        1.0  0.37561  0.46100  0.58411  1.0000
  H   H164      1.0  0.31532  0.46368  0.43108  1.0000
  H   H165      1.0  0.45480  0.10319  0.62607  1.0000
  H   H166      1.0  0.24812  0.01655  0.45575  1.0000
  C   C104      1.0  0.49130  0.37615  0.54075  1.0000
  C   C105      1.0  0.48497  0.38767  0.63345  1.0000
  H   H167      1.0  0.44490  0.26377  0.54336  1.0000
  H   H168      1.0  0.29017  0.44950  0.55979  1.0000
  C   C106      1.0  0.36874  0.46197  0.44193  1.0000
  C   C107      1.0  0.40280  0.47546  0.46322  1.0000
  H   H169      1.0  0.45875  0.06899  0.62005  1.0000
  C   C108      1.0  0.38315  0.43156  0.46622  1.0000
  N   N6        1.0  0.41528  0.07230  0.64520  1.0000
  C   C109      1.0  0.42738  0.46979  0.47535  1.0000
  H   H170      1.0  0.36666  0.42058  0.46016  1.0000
  H   H171      1.0  0.47487  0.14946  0.55338  1.0000
  H   H172      1.0  0.44069  0.29703  0.53476  1.0000
  C   C110      1.0  0.30309  0.30359  0.64070  1.0000
  H   H173      1.0  0.25061  0.02357  0.63445  1.0000
  H   H174      1.0  0.30558  0.21058  0.65709  1.0000
  C   C111      1.0  0.37127  0.45612  0.51735  1.0000
  H   H175      1.0  0.31489  0.42371  0.55490  1.0000
  N   N7        1.0  0.48089  0.08425  0.51804  1.0000
  H   H176      1.0  0.36285  0.44901  0.55714  1.0000
  H   H177      1.0  0.34252  0.34944  0.65433  1.0000
  H   H178      1.0  0.45869  0.40653  0.60227  1.0000
  C   C112      1.0  0.47787  0.36506  0.66278  1.0000
  C   C113      1.0  0.39359  0.39363  0.48809  1.0000
  H   H179      1.0  0.40562  0.44394  0.55305  1.0000
  H   H180      1.0  0.47688  0.35847  0.59075  1.0000
  H   H181      1.0  0.31721  0.45621  0.54506  1.0000
  H   H182      1.0  0.28402  0.02252  0.64333  1.0000
  H   H183      1.0  0.41394  0.05480  0.49105  1.0000
  C   C114      1.0  0.47565  0.10295  0.53384  1.0000
  H   H184      1.0  0.26566  0.32026  0.63014  1.0000
  H   H185      1.0  0.27142  0.06125  0.66252  1.0000
  H   H186      1.0  0.44839  0.37039  0.62335  1.0000
  H   H187      1.0  0.43104  0.02495  0.48310  1.0000
  H   H188      1.0  0.23592  0.10448  0.65591  1.0000
  C   C115      1.0  0.29525  0.30501  0.66107  1.0000
  H   H189      1.0  0.30031  0.12368  0.65608  1.0000
  H   H190      1.0  0.43231  0.47587  0.43174  1.0000
  C   C116      1.0  0.37569  0.49030  0.58029  1.0000
  H   H191      1.0  0.37394  0.47900  0.43343  1.0000
  C   C117      1.0  0.44449  0.07629  0.64802  1.0000
  H   H192      1.0  0.46988  0.33544  0.63449  1.0000
  H   H193      1.0  0.31637  0.17895  0.64779  1.0000
  C   C118      1.0  0.42303  0.45863  0.42546  1.0000
  C   C119      1.0  0.37655  0.13183  0.63665  1.0000
  H   H194      1.0  0.30772  0.35825  0.65226  1.0000
  H   H195      1.0  0.38267  0.08292  0.62720  1.0000
  H   H196      1.0  0.38840  0.26928  0.66022  1.0000
  H   H197      1.0  0.46121  0.43738  0.42214  1.0000
  H   H198      1.0  0.48969  0.27504  0.55444  1.0000
  H   H199      1.0  0.46081  0.06232  0.48380  1.0000
  H   H200      1.0  0.47947  0.28755  0.51397  1.0000
  H   H201      1.0  0.47480  0.28708  0.63826  1.0000
  H   H202      1.0  0.44705  0.16613  0.54234  1.0000
  H   H203      1.0  0.38751  0.48430  0.47242  1.0000
  H   H204      1.0  0.45336  0.43042  0.62047  1.0000
  H   H205      1.0  0.48601  0.30731  0.54547  1.0000
  C   C120      1.0  0.26383  0.01536  0.64531  1.0000
  H   H206      1.0  0.36576  0.26475  0.64160  1.0000
  H   H207      1.0  0.36250  0.12848  0.62533  1.0000
  C   C121      1.0  0.49036  0.08379  0.63589  1.0000
  H   H208      1.0  0.26485  0.99348  0.64406  1.0000
  H   H209      1.0  0.37355  0.23793  0.65706  1.0000
  H   H210      1.0  0.38258  0.47401  0.64795  1.0000
  H   H211      1.0  0.49055  0.40710  0.63903  1.0000
  H   H212      1.0  0.32896  0.25972  0.66310  1.0000
  H   H213      1.0  0.39508  0.37127  0.66522  1.0000
  H   H214      1.0  0.22898  0.99332  0.46778  1.0000
  H   H215      1.0  0.28643  0.28575  0.66400  1.0000
  C   C122      1.0  0.35638  0.00088  0.50827  1.0000
  C   C123      1.0  0.49050  0.04193  0.53704  1.0000
  H   H216      1.0  0.30396  0.48792  0.44764  1.0000
  C   C124      1.0  0.32484  0.35711  0.66173  1.0000
  C   C125      1.0  0.25335  0.02351  0.66405  1.0000
  H   H217      1.0  0.23358  0.01529  0.66556  1.0000
  H   H218      1.0  0.41630  0.99490  0.60809  1.0000
  Fe  Fe9       1.0  0.40899  0.33013  0.69842  1.0000
  S   S20       1.0  0.39957  0.36880  0.71253  1.0000
  C   C126      1.0  0.21460  0.05864  0.68719  1.0000
  Fe  Fe10      1.0  0.40974  0.30028  0.73450  1.0000
  S   S21       1.0  0.40140  0.33659  0.75147  1.0000
  S   S22       1.0  0.41490  0.25807  0.74325  1.0000
  Fe  Fe11      1.0  0.37056  0.34705  0.72992  1.0000
  S   S23       1.0  0.32536  0.35631  0.73150  1.0000
  Fe  Fe12      1.0  0.43113  0.35479  0.73280  1.0000
  S   S24       1.0  0.46806  0.37812  0.73808  1.0000
  S   S25       1.0  0.37842  0.30969  0.71390  1.0000
  S   S26       1.0  0.44104  0.31746  0.71784  1.0000
  Fe  Fe13      1.0  0.18954  0.35110  0.79457  1.0000
  S   S27       1.0  0.18245  0.31079  0.80538  1.0000
  S   S28       1.0  0.23485  0.35534  0.79298  1.0000
  Fe  Fe14      1.0  0.12887  0.36558  0.79529  1.0000
  S   S29       1.0  0.11922  0.32609  0.80555  1.0000
  S   S30       1.0  0.09246  0.39410  0.79404  1.0000
  Fe  Fe15      1.0  0.15322  0.32980  0.82465  1.0000
  S   S31       1.0  0.14754  0.30964  0.85165  1.0000
  Fe  Fe16      1.0  0.14909  0.31027  0.78575  1.0000
  S   S32       1.0  0.14319  0.27153  0.77210  1.0000
  S   S33       1.0  0.16201  0.37070  0.81568  1.0000
  S   S34       1.0  0.15697  0.34949  0.77339  1.0000
  Fe  Fe17      1.0  0.32488  0.16557  0.70671  1.0000
  S   S35       1.0  0.33308  0.15610  0.73589  1.0000
  S   S36       1.0  0.32185  0.20846  0.70004  1.0000
  Fe  Fe18      1.0  0.32463  0.10885  0.69550  1.0000
  S   S37       1.0  0.33299  0.09506  0.72400  1.0000
  C   C127      1.0  0.02416  0.20713  0.78608  1.0000
  Fe  Fe19      1.0  0.30185  0.12613  0.73237  1.0000
  S   S38       1.0  0.27171  0.12045  0.75521  1.0000
  Fe  Fe20      1.0  0.36324  0.12634  0.72463  1.0000
  S   S39       1.0  0.40456  0.11677  0.73644  1.0000
  S   S40       1.0  0.29180  0.13802  0.70374  1.0000
  S   S41       1.0  0.35667  0.13787  0.69559  1.0000
  Fe  Fe21      1.0  0.09529  0.15425  0.81647  1.0000
  S   S42       1.0  0.08318  0.14746  0.78765  1.0000
  S   S43       1.0  0.10096  0.19351  0.82983  1.0000
  Fe  Fe22      1.0  0.10049  0.09645  0.82454  1.0000
  S   S44       1.0  0.08925  0.08478  0.79584  1.0000
  S   S45       1.0  0.11629  0.07149  0.84805  1.0000
  Fe  Fe23      1.0  0.11666  0.11644  0.78685  1.0000
  S   S46       1.0  0.14514  0.11652  0.76230  1.0000
  Fe  Fe24      1.0  0.05678  0.11708  0.79891  1.0000
  S   S47       1.0  0.01507  0.12281  0.78662  1.0000
  S   S48       1.0  0.12983  0.12532  0.81515  1.0000
  S   S49       1.0  0.06683  0.12650  0.82799  1.0000
  Fe  Fe25      1.0  0.07133  0.06234  0.94947  1.0000
  S   S50       1.0  0.11294  0.06196  0.96030  1.0000
  S   S51       1.0  0.05552  0.05285  0.92144  1.0000
  H   H219      1.0  0.13848  0.02507  0.93464  1.0000
  H   H220      1.0  0.20959  0.19362  0.81066  1.0000
  Fe  Fe26      1.0  0.10127  0.10285  0.97136  1.0000
  C   C128      1.0  0.40153  0.20963  0.80655  1.0000
  N   N8        1.0  0.99551  0.21107  0.79164  1.0000
  S   S52       1.0  0.06068  0.10316  0.95946  1.0000
  S   S53       1.0  0.05529  0.04243  0.97408  1.0000
  Fe  Fe27      1.0  0.12501  0.34321  0.95127  1.0000
  S   S54       1.0  0.13457  0.33503  0.98068  1.0000
  S   S55       1.0  0.15297  0.35935  0.93063  1.0000
  Fe  Fe28      1.0  0.06740  0.33441  0.95625  1.0000
  H   H221      1.0  0.15031  0.08718  0.91195  1.0000
  Fe  Fe29      1.0  0.09800  0.36093  0.98677  1.0000
  H   H222      1.0  0.32720  0.34839  0.77130  1.0000
  Fe  Fe30      1.0  0.10776  0.30066  0.97749  1.0000
  C   C129      1.0  0.27769  0.29109  0.71804  1.0000
  S   S56       1.0  0.09044  0.37096  0.95761  1.0000
  S   S57       1.0  0.10124  0.30716  0.94764  1.0000
  H   H223      1.0  0.20047  0.26650  0.77488  1.0000
  C   C130      1.0  0.46210  0.16092  0.71453  1.0000
  H   H224      1.0  0.05517  0.12354  0.86884  1.0000
  H   H225      1.0  0.26390  0.20766  0.76904  1.0000
  S   S58       1.0  0.11398  0.26027  0.99135  1.0000
  H   H226      1.0  0.22023  0.30972  0.91253  1.0000
  H   H227      1.0  0.06382  0.00351  0.89642  1.0000
  H   H228      1.0  0.16201  0.07768  0.69262  1.0000
  H   H229      1.0  0.24249  0.10357  0.69752  1.0000
  C   C131      1.0  0.11566  0.22120  0.96423  1.0000
  C   C132      1.0  0.11730  0.19456  0.95830  1.0000
  H   H230      1.0  0.11653  0.23707  0.95455  1.0000
  H   H231      1.0  0.11978  0.19017  0.94406  1.0000
  C   C133      1.0  0.03757  0.21680  0.98718  1.0000
  C   C134      1.0  0.17135  0.06656  0.70410  1.0000
  H   H232      1.0  0.00806  0.09591  0.96227  1.0000
  H   H233      1.0  0.33542  0.23674  0.76228  1.0000
  H   H234      1.0  0.40441  0.09630  0.69872  1.0000
  C   C135      1.0  0.09890  0.06975  0.86866  1.0000
  C   C136      1.0  0.11315  0.06593  0.88489  1.0000
  C   C137      1.0  0.09996  0.06244  0.90140  1.0000
  C   C138      1.0  0.07243  0.06158  0.90163  1.0000
  C   C139      1.0  0.05817  0.06544  0.88540  1.0000
  C   C140      1.0  0.07132  0.06997  0.86901  1.0000
  H   H235      1.0  0.13451  0.06529  0.88460  1.0000
  H   H236      1.0  0.11111  0.05931  0.91381  1.0000
  H   H237      1.0  0.03687  0.06461  0.88545  1.0000
  H   H238      1.0  0.06019  0.07248  0.85652  1.0000
  C   C141      1.0  0.18964  0.22077  0.74510  1.0000
  C   C142      1.0  0.45672  0.38908  0.68957  1.0000
  H   H239      1.0  0.22726  0.17965  0.74820  1.0000
  H   H240      1.0  0.42995  0.24675  0.67010  1.0000
  H   H241      1.0  0.15670  0.20197  0.71738  1.0000
  C   C143      1.0  0.43554  0.12890  0.72974  1.0000
  C   C144      1.0  0.45902  0.11734  0.73709  1.0000
  C   C145      1.0  0.43729  0.15051  0.71814  1.0000
  H   H242      1.0  0.45796  0.10066  0.74610  1.0000
  H   H243      1.0  0.41948  0.15973  0.71243  1.0000
  C   C146      1.0  0.23642  0.11965  0.75673  1.0000
  C   C147      1.0  0.22483  0.11603  0.77383  1.0000
  C   C148      1.0  0.19710  0.11524  0.77584  1.0000
  C   C149      1.0  0.18038  0.11790  0.76071  1.0000
  C   C150      1.0  0.19197  0.12153  0.74358  1.0000
  C   C151      1.0  0.21970  0.12258  0.74159  1.0000
  H   H244      1.0  0.23741  0.11372  0.78568  1.0000
  H   H245      1.0  0.18866  0.11231  0.78909  1.0000
  H   H246      1.0  0.17932  0.12367  0.73176  1.0000
  H   H247      1.0  0.22812  0.12559  0.72837  1.0000
  C   C152      1.0  0.14971  0.34636  0.90851  1.0000
  C   C153      1.0  0.15484  0.36196  0.89334  1.0000
  C   C154      1.0  0.15356  0.35129  0.87567  1.0000
  C   C155      1.0  0.14784  0.32477  0.87321  1.0000
  C   C156      1.0  0.14271  0.30927  0.88837  1.0000
  C   C157      1.0  0.14337  0.32007  0.90592  1.0000
  H   H248      1.0  0.15981  0.38232  0.89527  1.0000
  H   H249      1.0  0.15730  0.36343  0.86403  1.0000
  H   H250      1.0  0.13843  0.28870  0.88655  1.0000
  H   H251      1.0  0.13987  0.30776  0.91751  1.0000
  C   C158      1.0  0.13550  0.24866  0.78878  1.0000
  C   C159      1.0  0.13422  0.25600  0.80712  1.0000
  C   C160      1.0  0.12459  0.23866  0.81998  1.0000
  C   C161      1.0  0.11697  0.21367  0.81456  1.0000
  C   C162      1.0  0.12097  0.20544  0.79661  1.0000
  C   C163      1.0  0.12966  0.22306  0.78365  1.0000
  H   H252      1.0  0.13971  0.27530  0.81142  1.0000
  H   H253      1.0  0.12242  0.24492  0.83397  1.0000
  H   H254      1.0  0.11673  0.18577  0.79249  1.0000
  H   H255      1.0  0.13090  0.21710  0.76958  1.0000
  C   C164      1.0  0.05922  0.38365  0.79410  1.0000
  C   C165      1.0  0.05316  0.35756  0.79007  1.0000
  H   H256      1.0  0.02525  0.21716  0.75712  1.0000
  H   H257      1.0  0.06884  0.34322  0.78668  1.0000
  H   H258      1.0  0.04264  0.42231  0.80111  1.0000
  C   C166      1.0  0.38846  0.24257  0.73304  1.0000
  C   C167      1.0  0.36351  0.25557  0.73255  1.0000
  C   C168      1.0  0.34312  0.24523  0.72223  1.0000
  C   C169      1.0  0.34745  0.22149  0.71279  1.0000
  C   C170      1.0  0.37196  0.20764  0.71414  1.0000
  C   C171      1.0  0.39256  0.21827  0.72418  1.0000
  H   H259      1.0  0.35998  0.27384  0.74001  1.0000
  H   H260      1.0  0.32398  0.25543  0.72177  1.0000
  H   H261      1.0  0.37535  0.18913  0.70701  1.0000
  H   H262      1.0  0.41180  0.20812  0.72455  1.0000
  C   C172      1.0  0.14796  0.00498  0.93324  1.0000
  H   H263      1.0  0.26692  0.01411  0.67423  1.0000
  H   H264      1.0  0.28273  0.06179  0.74334  1.0000
  H   H265      1.0  0.40258  0.06408  0.70862  1.0000
  H   H266      1.0  0.27841  0.23256  0.74104  1.0000
  C   C173      1.0  0.30052  0.35434  0.74877  1.0000
  C   C174      1.0  0.27358  0.35742  0.74385  1.0000
  C   C175      1.0  0.25326  0.35701  0.75700  1.0000
  C   C176      1.0  0.25950  0.35399  0.77544  1.0000
  C   C177      1.0  0.28641  0.35069  0.78034  1.0000
  C   C178      1.0  0.30671  0.35060  0.76716  1.0000
  H   H267      1.0  0.26833  0.36065  0.72978  1.0000
  H   H268      1.0  0.23280  0.35985  0.75290  1.0000
  H   H269      1.0  0.29167  0.34852  0.79451  1.0000
  H   H270      1.0  0.19265  0.27498  0.75161  1.0000
  N   N9        1.0  0.06248  0.31997  0.85379  1.0000
  C   C179      1.0  0.07129  0.30647  0.83642  1.0000
  C   C180      1.0  0.07593  0.34586  0.85552  1.0000
  C   C181      1.0  0.07226  0.30271  0.86932  1.0000
  H   H271      1.0  0.38354  0.08505  0.78703  1.0000
  C   C182      1.0  0.06264  0.27767  0.83388  1.0000
  H   H272      1.0  0.10765  0.21575  0.88741  1.0000
  C   C183      1.0  0.06235  0.26960  0.81386  1.0000
  C   C184      1.0  0.06997  0.29318  0.90314  1.0000
  H   H273      1.0  0.09326  0.30549  0.83569  1.0000
  H   H274      1.0  0.06468  0.31813  0.82438  1.0000
  H   H275      1.0  0.09779  0.34217  0.85525  1.0000
  H   H276      1.0  0.09384  0.29773  0.86792  1.0000
  H   H277      1.0  0.06263  0.28344  0.86889  1.0000
  Fe  Fe31      1.0  0.09579  0.04500  0.98609  1.0000
  C   C185      1.0  0.22665  0.24672  0.75454  1.0000
  H   H278      1.0  0.07680  0.26394  0.84113  1.0000
  S   S59       1.0  0.41794  0.31777  0.66929  1.0000
  C   C186      1.0  0.06857  0.36725  0.84128  1.0000
  H   H279      1.0  0.07116  0.35962  0.82730  1.0000
  H   H280      1.0  0.34796  0.24636  0.78421  1.0000
  H   H281      1.0  0.08127  0.27398  0.80725  1.0000
  H   H282      1.0  0.05963  0.24805  0.81271  1.0000
  H   H283      1.0  0.04601  0.28043  0.80655  1.0000
  H   H284      1.0  0.14662  0.38535  0.99821  1.0000
  H   H285      1.0  0.09008  0.28345  0.90318  1.0000
  H   H286      1.0  0.06620  0.30234  0.91664  1.0000
  N   N10       1.0  0.23919  0.31149  0.85663  1.0000
  C   C187      1.0  0.24109  0.33923  0.84942  1.0000
  C   C188      1.0  0.26596  0.29680  0.85634  1.0000
  C   C189      1.0  0.22119  0.29711  0.84393  1.0000
  C   C190      1.0  0.22732  0.31132  0.87536  1.0000
  C   C191      1.0  0.24166  0.32704  0.89019  1.0000
  C   C192      1.0  0.21545  0.35719  0.85030  1.0000
  C   C193      1.0  0.29070  0.31308  0.85983  1.0000
  C   C194      1.0  0.31553  0.29505  0.86217  1.0000
  H   H287      1.0  0.43022  0.06167  0.68129  1.0000
  C   C195      1.0  0.22001  0.38467  0.84283  1.0000
  H   H288      1.0  0.24788  0.33850  0.83502  1.0000
  H   H289      1.0  0.25614  0.35025  0.85686  1.0000
  H   H290      1.0  0.26959  0.28734  0.84281  1.0000
  H   H291      1.0  0.22840  0.29844  0.82970  1.0000
  H   H292      1.0  0.20109  0.30662  0.84393  1.0000
  H   H293      1.0  0.20616  0.31838  0.87487  1.0000
  H   H294      1.0  0.22690  0.29081  0.88056  1.0000
  H   H295      1.0  0.24562  0.34733  0.88578  1.0000
  H   H296      1.0  0.26061  0.31646  0.89382  1.0000
  H   H297      1.0  0.19936  0.34884  0.84224  1.0000
  H   H298      1.0  0.20868  0.35987  0.86451  1.0000
  H   H299      1.0  0.29401  0.32605  0.84801  1.0000
  H   H300      1.0  0.28863  0.32572  0.87208  1.0000
  H   H301      1.0  0.31888  0.28246  0.84993  1.0000
  H   H302      1.0  0.31373  0.28227  0.87426  1.0000
  H   H303      1.0  0.07119  0.20291  0.76680  1.0000
  C   C196      1.0  0.22515  0.32950  0.90747  1.0000
  C   C197      1.0  0.06327  0.22358  0.76863  1.0000
  H   H304      1.0  0.22599  0.38338  0.82836  1.0000
  H   H305      1.0  0.20143  0.39715  0.84372  1.0000
  H   H306      1.0  0.23554  0.39441  0.85077  1.0000
  H   H307      1.0  0.16221  0.13818  0.86353  1.0000
  C   C198      1.0  0.33596  0.23182  0.77693  1.0000
  H   H308      1.0  0.00908  0.24610  0.80522  1.0000
  C   C199      1.0  0.39165  0.12650  0.78402  1.0000
  H   H309      1.0  0.00515  0.04127  0.94721  1.0000
  C   C200      1.0  0.15071  0.15589  0.85861  1.0000
  H   H310      1.0  0.08225  0.20948  0.92489  1.0000
  C   C201      1.0  0.21133  0.18480  0.78163  1.0000
  H   H311      1.0  0.31547  0.23348  0.78222  1.0000
  H   H312      1.0  0.40971  0.12077  0.77626  1.0000
  H   H313      1.0  0.07964  0.40644  0.83354  1.0000
  H   H314      1.0  0.24672  0.07585  0.72261  1.0000
  H   H315      1.0  0.11464  0.16376  0.99897  1.0000
  H   H316      1.0  0.18067  0.26448  0.83291  1.0000
  H   H317      1.0  0.23177  0.41298  0.92890  1.0000
  H   H318      1.0  0.01323  0.19266  0.94612  1.0000
  H   H319      1.0  0.21015  0.25586  0.81996  1.0000
  H   H320      1.0  0.09100  0.43409  0.98374  1.0000
  H   H321      1.0  0.33337  0.34314  0.68909  1.0000
  H   H322      1.0  0.20389  0.46405  0.99899  1.0000
  H   H323      1.0  0.21099  0.31227  0.76758  1.0000
  H   H324      1.0  0.04274  0.27485  0.83954  1.0000
  C   C202      1.0  0.08870  0.99415  0.87376  1.0000
  H   H325      1.0  0.26635  0.03347  0.73479  1.0000
  C   C203      1.0  0.00879  0.36160  0.94685  1.0000
  C   C204      1.0  0.28417  0.30785  0.70164  1.0000
  H   H326      1.0  0.16709  0.18976  0.75761  1.0000
  C   C205      1.0  0.47688  0.39075  0.67436  1.0000
  H   H327      1.0  0.37395  0.14944  0.76205  1.0000
  N   N11       1.0  0.39280  0.17750  0.77943  1.0000
  H   H328      1.0  0.04786  0.37481  0.84321  1.0000
  C   C206      1.0  0.02015  0.38621  0.94697  1.0000
  C   C207      1.0  0.06778  0.31450  0.88864  1.0000
  H   H329      1.0  0.10700  0.38478  0.84039  1.0000
  C   C208      1.0  0.08608  0.39084  0.84335  1.0000
  H   H330      1.0  0.05491  0.27829  0.90084  1.0000
  H   H331      1.0  0.29312  0.29280  0.72870  1.0000
  H   H332      1.0  0.28259  0.20128  0.72922  1.0000
  C   C209      1.0  0.40848  0.06367  0.67945  1.0000
  H   H333      1.0  0.26639  0.28022  0.86622  1.0000
  H   H334      1.0  0.15648  0.18302  0.88105  1.0000
  H   H335      1.0  0.37330  0.19737  0.75679  1.0000
  H   H336      1.0  0.33297  0.30726  0.86413  1.0000
  H   H337      1.0  0.17524  0.23572  0.75084  1.0000
  H   H338      1.0  0.04336  0.15470  0.87855  1.0000
  H   H339      1.0  0.19347  0.22725  0.73097  1.0000
  H   H340      1.0  0.23326  0.30077  0.75010  1.0000
  C   C210      1.0  0.21744  0.26747  0.84812  1.0000
  H   H341      1.0  0.20357  0.40395  0.99527  1.0000
  C   C211      1.0  0.00477  0.40915  0.95107  1.0000
  H   H342      1.0  0.43650  0.38806  0.68382  1.0000
  H   H343      1.0  0.41458  0.22588  0.68632  1.0000
  H   H344      1.0  0.20693  0.26538  0.86117  1.0000
  H   H345      1.0  0.08595  0.11729  0.89572  1.0000
  H   H346      1.0  0.41332  0.23034  0.83092  1.0000
  H   H347      1.0  0.23664  0.25607  0.84887  1.0000
  H   H348      1.0  0.13951  0.17961  0.73158  1.0000
  H   H349      1.0  0.23634  0.33967  0.91823  1.0000
  H   H350      1.0  0.07144  0.35549  0.86877  1.0000
  C   C212      1.0  0.15011  0.41861  0.96781  1.0000
  H   H351      1.0  0.04801  0.32467  0.88994  1.0000
  C   C213      1.0  0.20071  0.25462  0.83349  1.0000
  C   C214      1.0  0.47324  0.25912  0.69120  1.0000
  H   H352      1.0  0.00803  0.24934  0.98261  1.0000
  H   H353      1.0  0.04073  0.38762  0.94372  1.0000
  H   H354      1.0  0.08304  0.32895  0.89177  1.0000
  H   H355      1.0  0.07080  0.99989  0.93727  1.0000
  H   H356      1.0  0.07462  0.14924  0.90387  1.0000
  C   C215      1.0  0.03830  0.40204  0.79812  1.0000
  H   H357      1.0  0.06548  0.16112  0.93889  1.0000
  H   H358      1.0  0.33431  0.18997  0.77281  1.0000
  H   H359      1.0  0.23190  0.25084  0.74019  1.0000
  H   H360      1.0  0.13947  0.11886  0.88712  1.0000
  H   H361      1.0  0.24536  0.24726  0.76243  1.0000
  H   H362      1.0  0.46263  0.21774  0.68721  1.0000
  H   H363      1.0  0.46997  0.17397  0.75758  1.0000
  H   H364      1.0  0.19845  0.23347  0.83673  1.0000
  C   C216      1.0  0.02663  0.35019  0.78970  1.0000
  H   H365      1.0  0.06916  0.23531  0.75675  1.0000
  H   H366      1.0  0.30894  0.27603  0.69079  1.0000
  C   C217      1.0  0.19944  0.18144  0.80044  1.0000
  H   H367      1.0  0.47420  0.20898  0.75918  1.0000
  C   C218      1.0  0.39683  0.07630  0.69664  1.0000
  H   H368      1.0  0.17567  0.15853  0.83497  1.0000
  C   C219      1.0  0.48557  0.14967  0.72214  1.0000
  C   C220      1.0  0.00960  0.18835  0.82186  1.0000
  S   S60       1.0  0.32371  0.07707  0.67393  1.0000
  H   H369      1.0  0.08469  0.39929  0.85727  1.0000
  C   C221      1.0  0.23039  0.11048  0.66994  1.0000
  S   S61       1.0  0.08849  0.08606  0.99799  1.0000
  C   C222      1.0  0.27898  0.04985  0.73098  1.0000
  H   H370      1.0  0.28102  0.04769  0.69329  1.0000
  H   H371      1.0  0.04953  0.40176  0.91288  1.0000
  C   C223      1.0  0.41782  0.17456  0.76838  1.0000
  C   C224      1.0  0.16889  0.17128  0.84650  1.0000
  H   H372      1.0  0.15850  0.99993  0.94610  1.0000
  H   H373      1.0  0.13355  0.41350  0.97676  1.0000
  H   H374      1.0  0.07226  0.23217  0.78096  1.0000
  C   C225      1.0  0.09945  0.14946  0.87912  1.0000
  H   H375      1.0  0.10509  0.13371  0.86906  1.0000
  H   H376      1.0  0.13694  0.21460  0.73621  1.0000
  C   C226      1.0  0.03277  0.32396  0.85506  1.0000
  C   C227      1.0  0.16577  0.44752  0.99193  1.0000
  H   H377      1.0  0.11521  0.12334  0.91802  1.0000
  H   H378      1.0  0.18647  0.17735  0.85425  1.0000
  C   C228      1.0  0.11417  0.22719  0.98279  1.0000
  C   C229      1.0  0.18379  0.40103  0.98913  1.0000
  H   H379      1.0  0.18706  0.17820  0.73865  1.0000
  C   C230      1.0  0.14088  0.13672  0.89592  1.0000
  H   H380      1.0  0.13426  0.14923  0.85005  1.0000
  H   H381      1.0  0.99898  0.11521  0.86959  1.0000
  H   H382      1.0  0.03867  0.12427  0.89046  1.0000
  H   H383      1.0  0.12744  0.18956  0.86780  1.0000
  C   C231      1.0  0.05240  0.13485  0.88168  1.0000
  H   H384      1.0  0.20245  0.06501  0.67523  1.0000
  C   C232      1.0  0.07875  0.13733  0.89155  1.0000
  N   N12       1.0  0.12365  0.15947  0.88842  1.0000
  C   C233      1.0  0.13956  0.17341  0.87441  1.0000
  H   H385      1.0  0.10942  0.22992  0.91941  1.0000
  H   H386      1.0  0.08952  0.16540  0.87083  1.0000
  H   H387      1.0  0.23525  0.20339  0.73240  1.0000
  H   H388      1.0  0.17489  0.10899  0.92031  1.0000
  C   C234      1.0  0.26284  0.19869  0.75531  1.0000
  C   C235      1.0  0.28274  0.21107  0.74274  1.0000
  H   H389      1.0  0.48775  0.23466  0.72425  1.0000
  H   H390      1.0  0.13510  0.18724  0.90908  1.0000
  H   H391      1.0  0.09938  0.01169  0.91579  1.0000
  H   H392      1.0  0.46121  0.37135  0.69804  1.0000
  C   C236      1.0  0.22450  0.29553  0.76326  1.0000
  H   H393      1.0  0.02750  0.34092  0.86421  1.0000
  H   H394      1.0  0.39711  0.12835  0.79854  1.0000
  C   C237      1.0  0.11669  0.17940  0.90319  1.0000
  H   H395      1.0  0.01463  0.36219  0.98725  1.0000
  N   N13       1.0  0.21503  0.21985  0.75598  1.0000
  C   C238      1.0  0.31849  0.33974  0.67818  1.0000
  C   C239      1.0  0.43748  0.19682  0.77043  1.0000
  H   H396      1.0  0.27609  0.27003  0.71408  1.0000
  H   H397      1.0  0.01367  0.42811  0.95108  1.0000
  H   H398      1.0  0.40068  0.04361  0.67824  1.0000
  C   C240      1.0  0.34367  0.29946  0.66871  1.0000
  S   S62       1.0  0.07205  0.32594  0.98592  1.0000
  C   C241      1.0  0.11443  0.17960  0.98919  1.0000
  H   H399      1.0  0.04235  0.38290  0.98965  1.0000
  C   C242      1.0  0.15048  0.19809  0.73151  1.0000
  C   C243      1.0  0.26071  0.05180  0.69876  1.0000
  H   H400      1.0  0.00847  0.41933  0.86196  1.0000
  H   H401      1.0  0.43229  0.20002  0.82657  1.0000
  C   C244      1.0  0.09820  0.20329  0.89759  1.0000
  H   H402      1.0  0.16241  0.07432  0.71694  1.0000
  H   H403      1.0  0.42781  0.21658  0.76839  1.0000
  C   C245      1.0  0.09641  0.47011  0.99908  1.0000
  H   H404      1.0  0.20086  0.17192  0.77215  1.0000
  H   H405      1.0  0.23227  0.17731  0.78220  1.0000
  H   H406      1.0  0.10689  0.17009  0.91476  1.0000
  C   C246      1.0  0.34758  0.20374  0.77972  1.0000
  C   C247      1.0  0.02477  0.37565  0.99666  1.0000
  H   H407      1.0  0.17801  0.18726  0.80027  1.0000
  C   C248      1.0  0.45437  0.23617  0.69361  1.0000
  H   H408      1.0  0.35847  0.15423  0.78347  1.0000
  H   H409      1.0  0.45078  0.23234  0.70817  1.0000
  C   C249      1.0  0.26520  0.06736  0.71665  1.0000
  H   H410      1.0  0.35513  0.10730  0.79044  1.0000
  H   H411      1.0  0.14099  0.14434  0.92528  1.0000
  N   N14       1.0  0.31684  0.31046  0.67464  1.0000
  H   H412      1.0  0.48063  0.26905  0.72518  1.0000
  H   H413      1.0  0.24039  0.29296  0.77363  1.0000
  C   C250      1.0  0.02676  0.24141  0.97646  1.0000
  H   H414      1.0  0.30293  0.20815  0.74845  1.0000
  H   H415      1.0  0.00092  0.40977  0.98936  1.0000
  H   H416      1.0  0.02389  0.34565  0.82948  1.0000
  C   C251      1.0  0.41215  0.20966  0.82600  1.0000
  H   H417      1.0  0.18980  0.22281  0.77961  1.0000
  C   C252      1.0  0.01829  0.38836  0.89497  1.0000
  H   H418      1.0  0.09930  0.42672  0.95173  1.0000
  C   C253      1.0  0.03317  0.22451  0.77019  1.0000
  C   C254      1.0  0.03384  0.18699  0.95006  1.0000
  C   C255      1.0  0.37323  0.10355  0.78221  1.0000
  S   S63       1.0  0.12147  0.14038  0.96270  1.0000
  C   C256      1.0  0.20967  0.21420  0.77573  1.0000
  H   H419      1.0  0.19095  0.45441  0.96164  1.0000
  H   H420      1.0  0.20404  0.09145  0.70626  1.0000
  H   H421      1.0  0.26944  0.17763  0.75701  1.0000
  C   C257      1.0  0.20114  0.07007  0.70455  1.0000
  H   H422      1.0  0.26812  0.09780  0.68161  1.0000
  C   C258      1.0  0.01902  0.48056  0.97554  1.0000
  H   H423      1.0  0.22373  0.22438  0.78474  1.0000
  H   H424      1.0  0.20167  0.16037  0.80449  1.0000
  H   H425      1.0  0.07703  0.23696  0.90990  1.0000
  H   H426      1.0  0.02410  0.30658  0.86156  1.0000
  H   H427      1.0  0.38205  0.22057  0.80664  1.0000
  C   C259      1.0  0.04449  0.16709  0.93592  1.0000
  C   C260      1.0  0.11350  0.20618  0.99517  1.0000
  H   H428      1.0  0.42949  0.15626  0.77195  1.0000
  C   C261      1.0  0.19591  0.43440  0.96721  1.0000
  H   H429      1.0  0.02872  0.18604  0.78222  1.0000
  C   C262      1.0  0.37805  0.15251  0.77672  1.0000
  H   H430      1.0  0.07932  0.19659  0.89190  1.0000
  H   H431      1.0  0.41282  0.17245  0.75369  1.0000
  H   H432      1.0  0.10053  0.01149  0.87689  1.0000
  C   C263      1.0  0.17454  0.19491  0.74403  1.0000
  C   C264      1.0  0.20896  0.27053  0.76140  1.0000
  H   H433      1.0  0.27808  0.08396  0.71397  1.0000
  H   H434      1.0  0.38296  0.17258  0.80778  1.0000
  C   C265      1.0  0.23430  0.19997  0.74732  1.0000
  C   C266      1.0  0.09140  0.22092  0.91398  1.0000
  H   H435      1.0  0.05914  0.37423  0.89857  1.0000
  H   H436      1.0  0.36748  0.10066  0.76777  1.0000
  C   C267      1.0  0.01718  0.32846  0.83704  1.0000
  S   S64       1.0  0.02809  0.33281  0.94211  1.0000
  C   C268      1.0  0.32996  0.38533  0.66778  1.0000
  C   C269      1.0  0.37584  0.20009  0.77171  1.0000
  H   H437      1.0  0.02227  0.33014  0.78610  1.0000
  H   H438      1.0  0.20896  0.05929  0.71663  1.0000
  H   H439      1.0  0.01702  0.38141  0.88074  1.0000
  H   H440      1.0  0.44675  0.19596  0.78411  1.0000
  H   H441      1.0  0.34726  0.19933  0.79443  1.0000
  H   H442      1.0  0.20655  0.34134  0.90486  1.0000
  H   H443      1.0  0.15824  0.18911  0.84090  1.0000
  H   H444      1.0  0.02878  0.17891  0.81742  1.0000
  C   C270      1.0  0.39877  0.18092  0.79940  1.0000
  H   H445      1.0  0.05523  0.40688  0.88897  1.0000
  C   C271      1.0  0.24692  0.09429  0.68415  1.0000
  H   H446      1.0  0.21264  0.03691  0.68786  1.0000
  H   H447      1.0  0.02661  0.15537  0.96882  1.0000
  H   H448      1.0  0.41485  0.22111  0.79820  1.0000
  H   H449      1.0  0.38574  0.21908  0.77303  1.0000
  H   H450      1.0  0.41716  0.16913  0.80301  1.0000
  H   H451      1.0  0.39888  0.19913  0.83515  1.0000
  H   H452      1.0  0.37495  0.07776  0.69574  1.0000
  H   H453      1.0  0.09562  0.48261  0.98722  1.0000
  C   C272      1.0  0.04728  0.39320  0.89908  1.0000
  H   H454      1.0  0.14940  0.09843  0.93517  1.0000
  H   H455      1.0  0.03320  0.44342  0.98637  1.0000
  H   H456      1.0  0.04366  0.99558  0.92181  1.0000
  C   C273      1.0  0.11653  0.17357  0.97070  1.0000
  H   H457      1.0  0.29944  0.34842  0.68337  1.0000
  H   H458      1.0  0.00172  0.41738  0.91318  1.0000
  C   C274      1.0  0.20399  0.41566  0.95120  1.0000
  H   H459      1.0  0.06228  0.15059  0.99725  1.0000
  H   H460      1.0  0.04622  0.20443  0.94935  1.0000
  H   H461      1.0  0.16211  0.14163  0.89567  1.0000
  C   C275      1.0  0.22644  0.42672  0.94025  1.0000
  H   H462      1.0  0.35934  0.30657  0.67790  1.0000
  H   H463      1.0  0.28576  0.32832  0.70678  1.0000
  C   C276      1.0  0.48389  0.12746  0.73320  1.0000
  H   H464      1.0  0.05402  0.01716  0.86392  1.0000
  C   C277      1.0  0.15376  0.10420  0.92102  1.0000
  H   H465      1.0  0.03745  0.21121  0.79773  1.0000
  H   H466      1.0  0.31254  0.39428  0.67505  1.0000
  H   H467      1.0  0.34749  0.38550  0.67691  1.0000
  H   H468      1.0  0.25853  0.29845  0.72377  1.0000
  H   H469      1.0  0.18727  0.41298  0.94169  1.0000
  H   H470      1.0  0.26730  0.30742  0.69201  1.0000
  C   C278      1.0  0.31035  0.29776  0.69251  1.0000
  C   C279      1.0  0.23510  0.13997  0.67168  1.0000
  H   H471      1.0  0.05705  0.17115  0.97180  1.0000
  H   H472      1.0  0.03256  0.14924  0.93576  1.0000
  H   H473      1.0  0.02263  0.23690  0.96207  1.0000
  Fe  Fe32      1.0  0.04884  0.08336  0.98498  1.0000
  H   H474      1.0  0.10989  0.44707  0.93354  1.0000
  C   C280      1.0  0.13601  0.12820  0.91578  1.0000
  H   H475      1.0  0.20895  0.10801  0.67183  1.0000
  H   H476      1.0  0.99548  0.15104  0.83153  1.0000
  H   H477      1.0  0.12284  0.41344  0.93518  1.0000
  C   C281      1.0  0.13907  0.44071  0.95490  1.0000
  H   H478      1.0  0.46256  0.27705  0.69656  1.0000
  H   H479      1.0  0.01938  0.31107  0.82792  1.0000
  C   C282      1.0  0.09404  0.44253  0.99702  1.0000
  H   H480      1.0  0.18686  0.38411  0.97954  1.0000
  H   H481      1.0  0.15434  0.40033  0.95967  1.0000
  H   H482      1.0  0.48981  0.32682  0.75116  1.0000
  C   C283      1.0  0.03556  0.17507  0.96932  1.0000
  C   C284      1.0  0.04615  0.26352  0.97682  1.0000
  H   H483      1.0  0.32648  0.30042  0.70255  1.0000
  H   H484      1.0  0.04329  0.17621  0.92227  1.0000
  H   H485      1.0  0.22960  0.14741  0.68543  1.0000
  C   C285      1.0  0.99910  0.17112  0.83689  1.0000
  N   N15       1.0  0.02326  0.19152  0.98450  1.0000
  C   C286      1.0  0.01173  0.39458  0.79792  1.0000
  H   H486      1.0  0.29824  0.04157  0.72584  1.0000
  H   H487      1.0  0.46302  0.17825  0.70615  1.0000
  H   H488      1.0  0.07953  0.01094  0.84732  1.0000
  H   H489      1.0  0.35132  0.26132  0.68202  1.0000
  C   C287      1.0  0.02506  0.46260  0.99177  1.0000
  H   H490      1.0  0.13128  0.45809  0.96277  1.0000
  H   H491      1.0  0.16266  0.00510  0.92211  1.0000
  H   H492      1.0  0.01391  0.16916  0.84802  1.0000
  C   C288      1.0  0.06894  0.00220  0.85883  1.0000
  C   C289      1.0  0.45968  0.19376  0.75659  1.0000
  H   H493      1.0  0.01227  0.37229  0.90403  1.0000
  H   H494      1.0  0.04049  0.47186  0.00000  1.0000
  H   H495      1.0  0.03704  0.28138  0.97019  1.0000
  H   H496      1.0  0.25327  0.03218  0.70237  1.0000
  H   H497      1.0  0.02631  0.24547  0.77205  1.0000
  H   H498      1.0  0.99588  0.40914  0.80042  1.0000
  H   H499      1.0  0.05889  0.21344  0.98388  1.0000
  H   H500      1.0  0.48538  0.34921  0.67202  1.0000
  H   H501      1.0  0.47536  0.26307  0.67645  1.0000
  C   C290      1.0  0.11641  0.43126  0.94316  1.0000
  H   H502      1.0  0.06437  0.25743  0.96927  1.0000
  H   H503      1.0  0.41776  0.26038  0.69145  1.0000
  H   H504      1.0  0.12429  0.99788  0.90152  1.0000
  H   H505      1.0  0.22023  0.44623  0.93443  1.0000
  H   H506      1.0  0.15443  0.44729  0.94553  1.0000
  H   H507      1.0  0.01016  0.43088  0.89212  1.0000
  H   H508      1.0  0.16003  0.46582  0.98433  1.0000
  C   C291      1.0  0.00570  0.36861  0.79357  1.0000
  C   C292      1.0  0.00065  0.41377  0.89833  1.0000
  H   H509      1.0  0.45172  0.19673  0.74267  1.0000
  H   H510      1.0  0.16706  0.04533  0.70281  1.0000
  H   H511      1.0  0.01342  0.20814  0.82754  1.0000
  N   N16       1.0  0.17389  0.42540  0.97903  1.0000
  H   H512      1.0  0.21408  0.43683  0.97549  1.0000
  C   C293      1.0  0.42755  0.24279  0.68479  1.0000
  H   H513      1.0  0.48817  0.31228  0.69327  1.0000
  H   H514      1.0  0.24420  0.42888  0.94894  1.0000
  H   H515      1.0  0.00412  0.47185  0.96649  1.0000
  H   H516      1.0  0.05146  0.26868  0.99101  1.0000
  H   H517      1.0  0.45734  0.40684  0.69845  1.0000
  H   H518      1.0  0.21089  0.39591  0.95621  1.0000
  N   N17       1.0  0.24311  0.06493  0.68442  1.0000
  H   H519      1.0  0.03737  0.48292  0.96765  1.0000
  C   C294      1.0  0.34710  0.26886  0.66811  1.0000
  H   H520      1.0  0.25618  0.14372  0.66911  1.0000
  H   H521      1.0  0.14773  0.44267  0.99946  1.0000
  C   C295      1.0  0.99417  0.19639  0.98058  1.0000
  H   H522      1.0  0.99358  0.42942  0.83083  1.0000
  H   H523      1.0  0.01356  0.15745  0.00038  1.0000
  H   H524      1.0  0.27180  0.86246  0.31855  1.0000
  S   S65       1.0  0.36387  0.87196  0.29329  1.0000
  Fe  Fe33      1.0  0.37814  0.80382  0.31444  1.0000
  S   S66       1.0  0.38311  0.81118  0.28471  1.0000
  H   H525      1.0  0.17587  0.93118  0.15558  1.0000
  Fe  Fe34      1.0  0.40271  0.84808  0.29369  1.0000
  S   S67       1.0  0.44028  0.86409  0.28150  1.0000
  Fe  Fe35      1.0  0.34371  0.83402  0.28695  1.0000
  S   S68       1.0  0.31330  0.82981  0.26380  1.0000
  H   H526      1.0  0.21048  0.77524  0.24019  1.0000
  C   C296      1.0  0.32309  0.70953  0.32981  1.0000
  Fe  Fe36      1.0  0.13920  0.84825  0.19471  1.0000
  S   S69       1.0  0.12505  0.85598  0.22337  1.0000
  S   S70       1.0  0.14097  0.87979  0.17334  1.0000
  Fe  Fe37      1.0  0.14766  0.78999  0.20049  1.0000
  S   S71       1.0  0.13387  0.79311  0.22913  1.0000
  S   S72       1.0  0.16244  0.75019  0.19012  1.0000
  Fe  Fe38      1.0  0.10066  0.82026  0.21852  1.0000
  S   S73       1.0  0.05826  0.80982  0.22615  1.0000
  Fe  Fe39      1.0  0.15959  0.82802  0.23138  1.0000
  S   S74       1.0  0.18670  0.83021  0.25661  1.0000
  S   S75       1.0  0.11327  0.81438  0.18952  1.0000
  S   S76       1.0  0.17506  0.82328  0.20304  1.0000
  Fe  Fe40      1.0  0.31510  0.59230  0.31649  1.0000
  S   S77       1.0  0.32517  0.58947  0.28675  1.0000
  Fe  Fe41      1.0  0.30914  0.65102  0.31572  1.0000
  S   S78       1.0  0.31956  0.65322  0.28639  1.0000
  H   H527      1.0  0.22615  0.64079  0.16782  1.0000
  Fe  Fe42      1.0  0.29168  0.62017  0.28265  1.0000
  S   S79       1.0  0.26277  0.62253  0.25834  1.0000
  Fe  Fe43      1.0  0.35193  0.62271  0.29301  1.0000
  S   S80       1.0  0.39274  0.62595  0.28012  1.0000
  S   S81       1.0  0.27966  0.61994  0.31189  1.0000
  C   C297      1.0  0.34893  0.69922  0.32741  1.0000
  Fe  Fe44      1.0  0.07535  0.63861  0.19750  1.0000
  S   S82       1.0  0.07071  0.64688  0.22722  1.0000
  S   S83       1.0  0.07110  0.67175  0.17742  1.0000
  Fe  Fe45      1.0  0.08179  0.58042  0.20286  1.0000
  S   S84       1.0  0.07780  0.58385  0.23317  1.0000
  S   S85       1.0  0.08762  0.53980  0.19063  1.0000
  Fe  Fe46      1.0  0.04386  0.61275  0.22702  1.0000
  C   C298      1.0  0.28126  0.88174  0.31975  1.0000
  Fe  Fe47      1.0  0.10518  0.61754  0.23100  1.0000
  S   S86       1.0  0.13576  0.62577  0.25331  1.0000
  S   S87       1.0  0.04606  0.60680  0.19687  1.0000
  S   S88       1.0  0.11157  0.61177  0.20104  1.0000
  Fe  Fe48      1.0  0.06517  0.84243  0.07359  1.0000
  S   S89       1.0  0.06316  0.83048  0.04430  1.0000
  S   S90       1.0  0.02942  0.85530  0.08965  1.0000
  Fe  Fe49      1.0  0.12416  0.83850  0.07444  1.0000
  S   S91       1.0  0.12702  0.82698  0.04489  1.0000
  S   S92       1.0  0.16016  0.84319  0.09205  1.0000
  Fe  Fe50      1.0  0.09524  0.85941  0.04035  1.0000
  S   S93       1.0  0.09046  0.88952  0.01696  1.0000
  Fe  Fe51      1.0  0.09466  0.79934  0.05171  1.0000
  S   S94       1.0  0.09142  0.75725  0.04032  1.0000
  S   S95       1.0  0.09531  0.87253  0.06940  1.0000
  S   S96       1.0  0.09383  0.80942  0.08146  1.0000
  Fe  Fe52      1.0  0.10531  0.54585  0.08525  1.0000
  S   S97       1.0  0.12837  0.56170  0.06205  1.0000
  S   S98       1.0  0.12618  0.52669  0.10920  1.0000
  Fe  Fe53      1.0  0.05316  0.56124  0.06761  1.0000
  S   S99       1.0  0.07200  0.57904  0.04338  1.0000
  S   S100      1.0  0.00972  0.55921  0.07253  1.0000
  Fe  Fe54      1.0  0.09849  0.54169  0.04415  1.0000
  S   S101      1.0  0.10383  0.51642  0.01819  1.0000
  Fe  Fe55      1.0  0.09962  0.59745  0.06356  1.0000
  S   S102      1.0  0.11052  0.63974  0.07168  1.0000
  S   S103      1.0  0.07795  0.52362  0.06746  1.0000
  S   S104      1.0  0.07841  0.58170  0.08763  1.0000
  H   H528      1.0  0.10117  0.96927  0.07885  1.0000
  C   C299      1.0  0.01689  0.59271  0.12035  1.0000
  H   H529      1.0  0.43449  0.70990  0.26558  1.0000
  H   H530      1.0  0.47074  0.68745  0.25130  1.0000
  H   H531      1.0  0.32313  0.88153  0.23502  1.0000
  H   H532      1.0  0.15246  0.56950  0.12749  1.0000
  C   C300      1.0  0.44615  0.74682  0.29975  1.0000
  H   H533      1.0  0.24339  0.92032  0.24729  1.0000
  H   H534      1.0  0.00031  0.64451  0.04222  1.0000
  H   H535      1.0  0.41925  0.55355  0.32343  1.0000
  C   C301      1.0  0.02209  0.88640  0.05964  1.0000
  H   H536      1.0  0.12969  0.98471  0.07015  1.0000
  H   H537      1.0  0.04131  0.87911  0.05529  1.0000
  C   C302      1.0  0.09603  0.72479  0.04960  1.0000
  C   C303      1.0  0.10223  0.72030  0.06791  1.0000
  C   C304      1.0  0.10638  0.69420  0.07439  1.0000
  C   C305      1.0  0.10380  0.67216  0.06283  1.0000
  C   C306      1.0  0.09705  0.67665  0.04464  1.0000
  C   C307      1.0  0.09336  0.70276  0.03809  1.0000
  H   H538      1.0  0.10392  0.73692  0.07700  1.0000
  H   H539      1.0  0.11158  0.69101  0.08847  1.0000
  H   H540      1.0  0.05969  0.92015  0.12259  1.0000
  H   H541      1.0  0.17595  0.55076  0.15954  1.0000
  C   C308      1.0  0.10362  0.93982  0.02921  1.0000
  H   H542      1.0  0.38992  0.70806  0.32549  1.0000
  H   H543      1.0  0.10838  0.93057  0.04204  1.0000
  C   C309      1.0  0.09732  0.53700  0.16775  1.0000
  C   C310      1.0  0.11776  0.51867  0.16324  1.0000
  C   C311      1.0  0.12619  0.51578  0.14525  1.0000
  C   C312      1.0  0.11363  0.53043  0.13140  1.0000
  C   C313      1.0  0.09246  0.54818  0.13572  1.0000
  C   C314      1.0  0.08461  0.55183  0.15396  1.0000
  H   H544      1.0  0.15392  0.98009  0.09815  1.0000
  C   C315      1.0  0.01237  0.54074  0.18181  1.0000
  H   H545      1.0  0.08241  0.55931  0.12508  1.0000
  H   H546      1.0  0.06852  0.56577  0.15730  1.0000
  C   C316      1.0  0.47924  0.83878  0.30262  1.0000
  H   H547      1.0  0.13262  0.79162  0.27746  1.0000
  H   H548      1.0  0.20772  0.66769  0.15665  1.0000
  H   H549      1.0  0.06692  0.70534  0.14174  1.0000
  H   H550      1.0  0.01120  0.83198  0.14903  1.0000
  C   C317      1.0  0.42412  0.61889  0.29037  1.0000
  C   C318      1.0  0.44685  0.61735  0.27946  1.0000
  H   H551      1.0  0.29387  0.93494  0.24356  1.0000
  H   H552      1.0  0.44484  0.61981  0.26494  1.0000
  H   H553      1.0  0.00660  0.82341  0.05827  1.0000
  C   C319      1.0  0.22743  0.62222  0.25727  1.0000
  C   C320      1.0  0.21169  0.62341  0.27282  1.0000
  C   C321      1.0  0.18382  0.62438  0.27129  1.0000
  C   C322      1.0  0.17114  0.62344  0.25425  1.0000
  C   C323      1.0  0.18688  0.62177  0.23867  1.0000
  C   C324      1.0  0.21477  0.62145  0.24019  1.0000
  H   H554      1.0  0.22097  0.62363  0.28606  1.0000
  H   H555      1.0  0.17197  0.62558  0.28346  1.0000
  H   H556      1.0  0.17758  0.62111  0.22545  1.0000
  H   H557      1.0  0.22666  0.62044  0.22803  1.0000
  C   C325      1.0  0.14603  0.86722  0.15126  1.0000
  C   C326      1.0  0.17158  0.86524  0.14417  1.0000
  C   C327      1.0  0.17565  0.85830  0.12591  1.0000
  C   C328      1.0  0.15420  0.85283  0.11468  1.0000
  C   C329      1.0  0.12858  0.85470  0.12172  1.0000
  C   C330      1.0  0.12450  0.86196  0.14000  1.0000
  H   H558      1.0  0.18824  0.86953  0.15277  1.0000
  H   H559      1.0  0.19550  0.85686  0.12054  1.0000
  H   H560      1.0  0.11193  0.85066  0.11306  1.0000
  H   H561      1.0  0.10467  0.86386  0.14537  1.0000
  C   C331      1.0  0.13689  0.72860  0.18663  1.0000
  C   C332      1.0  0.14224  0.70134  0.18798  1.0000
  C   C333      1.0  0.12193  0.68383  0.18546  1.0000
  C   C334      1.0  0.09658  0.69348  0.18059  1.0000
  C   C335      1.0  0.09148  0.72067  0.17854  1.0000
  C   C336      1.0  0.11142  0.73827  0.18209  1.0000
  H   H562      1.0  0.16198  0.69380  0.19130  1.0000
  H   H563      1.0  0.12601  0.66285  0.18696  1.0000
  H   H564      1.0  0.07186  0.72820  0.17484  1.0000
  H   H565      1.0  0.10715  0.75927  0.18104  1.0000
  H   H566      1.0  0.03636  0.71770  0.10645  1.0000
  H   H567      1.0  0.11639  0.97828  0.03738  1.0000
  H   H568      1.0  0.33537  0.77473  0.33233  1.0000
  H   H569      1.0  0.18142  0.94216  0.10615  1.0000
  H   H570      1.0  0.18216  0.90183  0.07958  1.0000
  S   S105      1.0  0.39124  0.76442  0.32605  1.0000
  H   H571      1.0  0.00969  0.76585  0.07152  1.0000
  H   H572      1.0  0.14484  0.63553  0.12740  1.0000
  C   C337      1.0  0.09639  0.93296  0.11112  1.0000
  H   H573      1.0  0.48632  0.70765  0.32224  1.0000
  C   C338      1.0  0.27817  0.82756  0.26217  1.0000
  C   C339      1.0  0.26206  0.82496  0.27737  1.0000
  C   C340      1.0  0.23422  0.82542  0.27539  1.0000
  C   C341      1.0  0.22204  0.82803  0.25819  1.0000
  C   C342      1.0  0.23824  0.82967  0.24295  1.0000
  C   C343      1.0  0.26603  0.82949  0.24495  1.0000
  H   H574      1.0  0.27097  0.82328  0.29071  1.0000
  H   H575      1.0  0.22198  0.82403  0.28730  1.0000
  H   H576      1.0  0.22933  0.83161  0.22962  1.0000
  H   H577      1.0  0.27819  0.83135  0.23305  1.0000
  H   H578      1.0  0.02002  0.51860  0.01739  1.0000
  C   C344      1.0  0.47329  0.85735  0.28911  1.0000
  H   H579      1.0  0.01081  0.85726  0.13195  1.0000
  H   H580      1.0  0.46337  0.82919  0.30925  1.0000
  H   H581      1.0  0.15347  0.60538  0.10448  1.0000
  C   C345      1.0  0.02325  0.85209  0.21626  1.0000
  C   C346      1.0  0.02644  0.82583  0.22206  1.0000
  H   H582      1.0  0.26550  0.94501  0.30576  1.0000
  H   H583      1.0  0.04052  0.86322  0.21368  1.0000
  C   C347      1.0  0.16364  0.90699  0.07202  1.0000
  C   C348      1.0  0.31827  0.73676  0.33189  1.0000
  C   C349      1.0  0.47507  0.60875  0.30585  1.0000
  H   H584      1.0  0.99693  0.97029  0.01831  1.0000
  C   C350      1.0  0.45502  0.68747  0.30733  1.0000
  C   C351      1.0  0.43503  0.69555  0.27697  1.0000
  H   H585      1.0  0.48940  0.61060  0.27851  1.0000
  C   C352      1.0  0.99765  0.86438  0.21455  1.0000
  C   C353      1.0  0.40758  0.69735  0.28639  1.0000
  C   C354      1.0  0.38499  0.69846  0.27256  1.0000
  H   H586      1.0  0.02760  0.51327  0.26489  1.0000
  H   H587      1.0  0.44954  0.66654  0.30578  1.0000
  H   H588      1.0  0.44198  0.78753  0.30862  1.0000
  H   H589      1.0  0.43604  0.67554  0.27049  1.0000
  C   C355      1.0  0.02698  0.69325  0.06002  1.0000
  H   H590      1.0  0.42757  0.74920  0.29180  1.0000
  C   C356      1.0  0.03403  0.97768  0.04946  1.0000
  H   H591      1.0  0.18618  0.57226  0.13248  1.0000
  H   H592      1.0  0.40522  0.67963  0.29494  1.0000
  H   H593      1.0  0.40500  0.71489  0.29525  1.0000
  H   H594      1.0  0.38534  0.71680  0.26441  1.0000
  H   H595      1.0  0.38641  0.68097  0.26338  1.0000
  H   H596      1.0  0.36580  0.69836  0.27979  1.0000
  H   H597      1.0  0.08607  0.95142  0.10630  1.0000
  H   H598      1.0  0.05465  0.93862  0.07233  1.0000
  Fe  Fe56      1.0  0.36061  0.86005  0.32254  1.0000
  N   N18       1.0  0.10356  0.72502  0.24976  1.0000
  C   C357      1.0  0.08287  0.73914  0.23802  1.0000
  C   C358      1.0  0.11645  0.74426  0.26249  1.0000
  C   C359      1.0  0.12468  0.71329  0.23725  1.0000
  C   C360      1.0  0.09239  0.70271  0.26026  1.0000
  C   C361      1.0  0.03765  0.70805  0.11990  1.0000
  C   C362      1.0  0.06698  0.72156  0.22505  1.0000
  C   C363      1.0  0.14956  0.70030  0.24665  1.0000
  C   C364      1.0  0.09924  0.76837  0.26949  1.0000
  C   C365      1.0  0.11428  0.78430  0.28349  1.0000
  C   C366      1.0  0.04726  0.73838  0.21374  1.0000
  C   C367      1.0  0.16995  0.69046  0.23267  1.0000
  H   H599      1.0  0.09222  0.75436  0.22965  1.0000
  H   H600      1.0  0.06786  0.75035  0.24626  1.0000
  H   H601      1.0  0.12502  0.73369  0.27452  1.0000
  H   H602      1.0  0.13358  0.75306  0.25581  1.0000
  H   H603      1.0  0.13153  0.72874  0.22786  1.0000
  H   H604      1.0  0.11671  0.69764  0.22842  1.0000
  H   H605      1.0  0.08690  0.68665  0.25088  1.0000
  H   H606      1.0  0.10769  0.69326  0.26929  1.0000
  C   C368      1.0  0.16314  0.93145  0.10892  1.0000
  C   C369      1.0  0.01361  0.62232  0.12425  1.0000
  H   H607      1.0  0.08010  0.71039  0.21551  1.0000
  H   H608      1.0  0.05559  0.70729  0.23280  1.0000
  H   H609      1.0  0.14433  0.68302  0.25478  1.0000
  H   H610      1.0  0.15931  0.71437  0.25576  1.0000
  H   H611      1.0  0.09394  0.78194  0.25811  1.0000
  C   C370      1.0  0.06849  0.70999  0.27258  1.0000
  H   H612      1.0  0.11947  0.77205  0.29555  1.0000
  H   H613      1.0  0.01906  0.96313  0.04603  1.0000
  H   H614      1.0  0.10171  0.80167  0.28796  1.0000
  H   H615      1.0  0.07512  0.72133  0.28455  1.0000
  H   H616      1.0  0.00673  0.52173  0.17567  1.0000
  H   H617      1.0  0.04086  0.95187  0.09329  1.0000
  H   H618      1.0  0.17622  0.70704  0.22414  1.0000
  H   H619      1.0  0.18761  0.68157  0.23973  1.0000
  H   H620      1.0  0.16158  0.67504  0.22386  1.0000
  N   N19       1.0  0.26438  0.72118  0.26543  1.0000
  C   C371      1.0  0.25177  0.69830  0.27445  1.0000
  C   C372      1.0  0.27554  0.71189  0.24742  1.0000
  C   C373      1.0  0.28568  0.73087  0.27786  1.0000
  C   C374      1.0  0.24444  0.74374  0.26196  1.0000
  C   C375      1.0  0.21869  0.73631  0.25202  1.0000
  C   C376      1.0  0.23735  0.70489  0.29256  1.0000
  C   C377      1.0  0.30378  0.75156  0.26970  1.0000
  C   C378      1.0  0.29852  0.69059  0.24828  1.0000
  C   C379      1.0  0.30965  0.68451  0.22941  1.0000
  S   S106      1.0  0.33773  0.82411  0.31635  1.0000
  H   H621      1.0  0.13818  0.94076  0.06611  1.0000
  C   C380      1.0  0.32394  0.76037  0.28371  1.0000
  H   H622      1.0  0.26695  0.68242  0.27770  1.0000
  H   H623      1.0  0.23789  0.68867  0.26498  1.0000
  H   H624      1.0  0.25993  0.70303  0.23901  1.0000
  H   H625      1.0  0.28215  0.72890  0.23941  1.0000
  H   H626      1.0  0.29843  0.71403  0.28307  1.0000
  H   H627      1.0  0.27671  0.74020  0.29023  1.0000
  H   H628      1.0  0.23880  0.75409  0.27484  1.0000
  H   H629      1.0  0.25338  0.75919  0.25360  1.0000
  H   H630      1.0  0.20751  0.72234  0.26016  1.0000
  H   H631      1.0  0.22307  0.72710  0.23862  1.0000
  H   H632      1.0  0.25172  0.71055  0.30315  1.0000
  H   H633      1.0  0.22224  0.72126  0.29101  1.0000
  H   H634      1.0  0.29207  0.76942  0.26524  1.0000
  H   H635      1.0  0.31497  0.74338  0.25789  1.0000
  H   H636      1.0  0.31504  0.69690  0.25694  1.0000
  H   H637      1.0  0.29136  0.67188  0.25365  1.0000
  H   H638      1.0  0.29403  0.67708  0.22033  1.0000
  H   H639      1.0  0.31781  0.70243  0.22341  1.0000
  H   H640      1.0  0.32579  0.66895  0.23044  1.0000
  H   H641      1.0  0.01492  0.90869  0.03518  1.0000
  H   H642      1.0  0.02743  0.71476  0.06293  1.0000
  H   H643      1.0  0.19368  0.94956  0.13911  1.0000
  C   C381      1.0  0.09380  0.92447  0.01505  1.0000
  H   H644      1.0  0.16984  0.94886  0.07438  1.0000
  H   H645      1.0  0.07095  0.67259  0.28724  1.0000
  H   H646      1.0  0.31377  0.77037  0.29536  1.0000
  H   H647      1.0  0.33633  0.74321  0.28871  1.0000
  H   H648      1.0  0.33706  0.77461  0.27740  1.0000
  N   N20       1.0  0.15626  0.76061  0.12061  1.0000
  C   C382      1.0  0.17124  0.76679  0.10355  1.0000
  C   C383      1.0  0.17440  0.76475  0.13659  1.0000
  C   C384      1.0  0.14998  0.73181  0.11966  1.0000
  C   C385      1.0  0.13118  0.77808  0.12124  1.0000
  C   C386      1.0  0.11986  0.78548  0.14026  1.0000
  C   C387      1.0  0.15737  0.76027  0.08533  1.0000
  C   C388      1.0  0.13645  0.72037  0.13644  1.0000
  C   C389      1.0  0.18673  0.79208  0.13753  1.0000
  C   C390      1.0  0.19793  0.79764  0.15637  1.0000
  C   C391      1.0  0.09157  0.79723  0.13886  1.0000
  C   C392      1.0  0.17150  0.77184  0.06916  1.0000
  C   C393      1.0  0.13440  0.69056  0.13457  1.0000
  H   H649      1.0  0.19099  0.75611  0.10351  1.0000
  H   H650      1.0  0.17522  0.78821  0.10311  1.0000
  H   H651      1.0  0.16419  0.76187  0.14964  1.0000
  H   H652      1.0  0.19106  0.74958  0.13655  1.0000
  H   H653      1.0  0.16841  0.71950  0.11700  1.0000
  H   H654      1.0  0.13639  0.72811  0.10811  1.0000
  H   H655      1.0  0.13409  0.79729  0.11442  1.0000
  H   H656      1.0  0.11531  0.76894  0.11318  1.0000
  H   H657      1.0  0.13198  0.80047  0.14693  1.0000
  H   H658      1.0  0.11967  0.76837  0.14943  1.0000
  H   H659      1.0  0.15740  0.73857  0.08312  1.0000
  H   H660      1.0  0.13669  0.76835  0.08518  1.0000
  H   H661      1.0  0.11612  0.72913  0.13778  1.0000
  H   H662      1.0  0.14761  0.72379  0.14911  1.0000
  H   H663      1.0  0.20307  0.79304  0.12760  1.0000
  H   H664      1.0  0.17170  0.80782  0.13429  1.0000
  H   H665      1.0  0.21306  0.78209  0.16025  1.0000
  H   H666      1.0  0.20718  0.81707  0.15646  1.0000
  H   H667      1.0  0.18183  0.79833  0.16655  1.0000
  H   H668      1.0  0.09065  0.81475  0.12988  1.0000
  H   H669      1.0  0.07819  0.78238  0.13339  1.0000
  H   H670      1.0  0.08448  0.80348  0.15253  1.0000
  H   H671      1.0  0.19224  0.76382  0.06842  1.0000
  H   H672      1.0  0.16111  0.76658  0.05640  1.0000
  H   H673      1.0  0.17134  0.79372  0.07019  1.0000
  H   H674      1.0  0.12471  0.68533  0.12157  1.0000
  H   H675      1.0  0.15441  0.68068  0.13521  1.0000
  H   H676      1.0  0.12241  0.68324  0.14587  1.0000
  H   H677      1.0  0.08449  0.89402  0.11945  1.0000
  H   H678      1.0  0.08851  0.70589  0.02393  1.0000
  H   H679      1.0  0.99511  0.86757  0.17215  1.0000
  C   C394      1.0  0.48239  0.68398  0.28025  1.0000
  C   C395      1.0  0.07555  0.91235  0.11340  1.0000
  C   C396      1.0  0.02251  0.53901  0.01255  1.0000
  H   H680      1.0  0.05037  0.68441  0.08361  1.0000
  C   C397      1.0  0.25681  0.98297  0.29400  1.0000
  H   H681      1.0  0.06647  0.90732  0.10014  1.0000
  S   S107      1.0  0.40043  0.83879  0.32322  1.0000
  H   H682      1.0  0.16666  0.57690  0.19702  1.0000
  H   H683      1.0  0.99534  0.55739  0.03140  1.0000
  C   C398      1.0  0.01456  0.63867  0.10650  1.0000
  C   C399      1.0  0.48819  0.69035  0.26011  1.0000
  H   H684      1.0  0.03031  0.95768  0.01538  1.0000
  H   H685      1.0  0.03155  0.79162  0.07752  1.0000
  H   H686      1.0  0.12417  0.90268  0.10078  1.0000
  H   H687      1.0  0.47956  0.66244  0.28110  1.0000
  H   H688      1.0  0.01900  0.98911  0.07668  1.0000
  H   H689      1.0  0.03370  0.63311  0.09978  1.0000
  C   C400      1.0  0.22337  0.68100  0.29959  1.0000
  H   H690      1.0  0.02959  0.62753  0.13376  1.0000
  H   H691      1.0  0.99937  0.63145  0.09705  1.0000
  H   H692      1.0  0.02173  0.71674  0.12868  1.0000
  C   C401      1.0  0.18143  0.93220  0.14103  1.0000
  C   C402      1.0  0.01844  0.78421  0.06669  1.0000
  H   H693      1.0  0.03620  0.58780  0.11386  1.0000
  H   H694      1.0  0.17804  0.88335  0.04921  1.0000
  H   H695      1.0  0.02348  0.60206  0.04945  1.0000
  H   H696      1.0  0.05764  0.75338  0.20589  1.0000
  H   H697      1.0  0.01290  0.55954  0.23888  1.0000
  N   N21       1.0  0.01139  0.66827  0.10879  1.0000
  N   N22       1.0  0.45919  0.69914  0.28881  1.0000
  C   C403      1.0  0.00720  0.90345  0.04828  1.0000
  H   H698      1.0  0.46064  0.78285  0.28807  1.0000
  C   C404      1.0  0.21441  0.91622  0.26776  1.0000
  C   C405      1.0  0.13537  0.96909  0.09768  1.0000
  H   H699      1.0  0.01157  0.67614  0.22922  1.0000
  C   C406      1.0  0.01797  0.53817  0.24104  1.0000
  C   C407      1.0  0.15328  0.93554  0.07665  1.0000
  H   H700      1.0  0.20187  0.56676  0.10073  1.0000
  C   C408      1.0  0.05612  0.68510  0.27963  1.0000
  C   C409      1.0  0.01622  0.97462  0.01239  1.0000
  H   H701      1.0  0.36312  0.53836  0.31276  1.0000
  C   C410      1.0  0.00354  0.81189  0.22544  1.0000
  H   H702      1.0  0.10738  0.92220  0.08406  1.0000
  C   C411      1.0  0.04480  0.55063  0.26877  1.0000
  C   C412      1.0  0.00521  0.60739  0.05614  1.0000
  H   H703      1.0  0.05295  0.96868  0.04407  1.0000
  H   H704      1.0  0.04253  0.68796  0.04994  1.0000
  H   H705      1.0  0.16816  0.55951  0.09516  1.0000
  H   H706      1.0  0.48986  0.88457  0.27042  1.0000
  C   C413      1.0  0.03799  0.95068  0.07838  1.0000
  H   H707      1.0  0.47539  0.77376  0.30978  1.0000
  C   C414      1.0  0.46495  0.91360  0.32716  1.0000
  H   H708      1.0  0.47391  0.91602  0.31356  1.0000
  C   C415      1.0  0.11263  0.61013  0.13266  1.0000
  C   C416      1.0  0.16983  0.90373  0.05183  1.0000
  C   C417      1.0  0.06406  0.71491  0.12830  1.0000
  H   H709      1.0  0.21400  0.68589  0.31286  1.0000
  H   H710      1.0  0.00223  0.70207  0.09151  1.0000
  C   C418      1.0  0.38499  0.53718  0.31148  1.0000
  C   C419      1.0  0.46597  0.72778  0.28982  1.0000
  H   H711      1.0  0.14874  0.89259  0.07541  1.0000
  C   C420      1.0  0.39759  0.55500  0.32555  1.0000
  C   C421      1.0  0.00805  0.68068  0.09032  1.0000
  N   N23       1.0  0.16103  0.60361  0.14402  1.0000
  C   C422      1.0  0.18234  0.57548  0.09642  1.0000
  H   H712      1.0  0.16874  0.91008  0.10730  1.0000
  H   H713      1.0  0.24166  0.88737  0.25537  1.0000
  H   H714      1.0  0.21081  0.90584  0.28064  1.0000
  H   H715      1.0  0.27968  0.90646  0.23315  1.0000
  C   C423      1.0  0.45689  0.77436  0.30162  1.0000
  H   H716      1.0  0.03977  0.54683  0.01976  1.0000
  H   H717      1.0  0.23442  0.94814  0.29422  1.0000
  C   C424      1.0  0.18486  0.61951  0.14814  1.0000
  H   H718      1.0  0.13312  0.63605  0.15006  1.0000
  H   H719      1.0  0.08046  0.70831  0.11915  1.0000
  H   H720      1.0  0.15160  0.90672  0.04352  1.0000
  C   C425      1.0  0.47217  0.61224  0.28713  1.0000
  H   H721      1.0  0.48069  0.81659  0.23055  1.0000
  C   C426      1.0  0.47884  0.68755  0.32063  1.0000
  H   H722      1.0  0.40976  0.61765  0.31759  1.0000
  C   C427      1.0  0.36995  0.71615  0.32706  1.0000
  C   C428      1.0  0.42703  0.61566  0.30911  1.0000
  H   H723      1.0  0.05387  0.66933  0.11173  1.0000
  C   C429      1.0  0.01831  0.53735  0.20203  1.0000
  H   H724      1.0  0.32454  0.91148  0.22202  1.0000
  H   H725      1.0  0.13564  0.57637  0.15705  1.0000
  H   H726      1.0  0.16568  0.64923  0.16656  1.0000
  H   H727      1.0  0.43803  0.69749  0.31437  1.0000
  C   C430      1.0  0.32168  0.90348  0.23583  1.0000
  H   H728      1.0  0.06376  0.54421  0.26223  1.0000
  H   H729      1.0  0.33772  0.91032  0.24479  1.0000
  H   H730      1.0  0.03689  0.72561  0.20402  1.0000
  H   H731      1.0  0.99557  0.88490  0.21062  1.0000
  H   H732      1.0  0.39235  0.51634  0.31315  1.0000
  H   H733      1.0  0.28844  0.87961  0.26013  1.0000
  H   H734      1.0  0.19442  0.77018  0.26171  1.0000
  C   C431      1.0  0.36501  0.74347  0.32821  1.0000
  H   H735      1.0  0.18371  0.62285  0.17805  1.0000
  H   H736      1.0  0.12564  0.97353  0.11085  1.0000
  C   C432      1.0  0.29462  0.91302  0.24307  1.0000
  H   H737      1.0  0.30791  0.90402  0.27017  1.0000
  H   H738      1.0  0.05278  0.72171  0.26535  1.0000
  C   C433      1.0  0.02235  0.53423  0.26173  1.0000
  C   C434      1.0  0.20747  0.65319  0.16788  1.0000
  C   C435      1.0  0.28965  0.90124  0.26205  1.0000
  C   C436      1.0  0.18366  0.63595  0.16603  1.0000
  H   H739      1.0  0.12743  0.50690  0.17376  1.0000
  H   H740      1.0  0.29042  0.94505  0.27780  1.0000
  H   H741      1.0  0.20775  0.67530  0.28990  1.0000
  H   H742      1.0  0.26234  0.95335  0.26429  1.0000
  H   H743      1.0  0.48572  0.72964  0.29623  1.0000
  C   C437      1.0  0.10192  0.97934  0.00984  1.0000
  H   H744      1.0  0.04338  0.85652  0.16733  1.0000
  C   C438      1.0  0.15646  0.93475  0.12932  1.0000
  H   H745      1.0  0.14676  0.55164  0.18738  1.0000
  H   H746      1.0  0.20326  0.60660  0.14852  1.0000
  H   H747      1.0  0.18119  0.54446  0.19228  1.0000
  S   S108      1.0  0.34363  0.62349  0.32296  1.0000
  H   H748      1.0  0.04824  0.67337  0.26819  1.0000
  C   C439      1.0  0.15281  0.58840  0.16038  1.0000
  H   H749      1.0  0.14338  0.91890  0.13346  1.0000
  C   C440      1.0  0.20047  0.76068  0.24866  1.0000
  H   H750      1.0  0.04282  0.88230  0.15036  1.0000
  H   H751      1.0  0.00615  0.65053  0.21254  1.0000
  H   H752      1.0  0.01926  0.94080  0.07585  1.0000
  H   H753      1.0  0.39007  0.54375  0.29763  1.0000
  C   C441      1.0  0.26906  0.94113  0.27611  1.0000
  C   C442      1.0  0.13861  0.62260  0.13858  1.0000
  H   H754      1.0  0.07452  0.62149  0.12110  1.0000
  H   H755      1.0  0.02479  0.55659  0.20727  1.0000
  H   H756      1.0  0.17290  0.91457  0.26046  1.0000
  H   H757      1.0  0.11601  0.59497  0.12192  1.0000
  H   H758      1.0  0.10095  0.64073  0.11312  1.0000
  H   H759      1.0  0.19377  0.57716  0.16937  1.0000
  H   H760      1.0  0.30186  0.87753  0.29458  1.0000
  N   N24       1.0  0.26554  0.91219  0.27208  1.0000
  C   C443      1.0  0.45230  0.61028  0.31677  1.0000
  C   C444      1.0  0.17410  0.56865  0.16835  1.0000
  C   C445      1.0  0.09284  0.63108  0.12525  1.0000
  H   H761      1.0  0.08782  0.64622  0.13581  1.0000
  H   H762      1.0  0.03554  0.65628  0.07351  1.0000
  H   H763      1.0  0.14559  0.60218  0.17121  1.0000
  C   C446      1.0  0.01248  0.85347  0.14674  1.0000
  H   H764      1.0  0.18813  0.63363  0.13696  1.0000
  H   H765      1.0  0.03030  0.54714  0.17479  1.0000
  H   H766      1.0  0.44485  0.90616  0.32514  1.0000
  C   C447      1.0  0.26262  0.89591  0.28898  1.0000
  H   H767      1.0  0.24630  0.90396  0.29764  1.0000
  C   C448      1.0  0.33921  0.75375  0.33087  1.0000
  C   C449      1.0  0.16664  0.55993  0.18740  1.0000
  C   C450      1.0  0.04010  0.86097  0.15271  1.0000
  C   C451      1.0  0.24195  0.90847  0.25986  1.0000
  H   H768      1.0  0.29787  0.91106  0.30269  1.0000
  C   C452      1.0  0.03203  0.67737  0.07738  1.0000
  H   H769      1.0  0.10465  0.93705  0.12468  1.0000
  H   H770      1.0  0.01612  0.58154  0.13324  1.0000
  C   C453      1.0  0.19251  0.90904  0.25451  1.0000
  H   H771      1.0  0.25655  0.87582  0.28526  1.0000
  H   H772      1.0  0.09513  0.66004  0.03552  1.0000
  H   H773      1.0  0.23775  0.66402  0.30157  1.0000
  C   C454      1.0  0.11790  0.92342  0.09731  1.0000
  H   H774      1.0  0.46780  0.73596  0.27595  1.0000
  H   H775      1.0  0.18696  0.61195  0.11065  1.0000
  H   H776      1.0  0.05519  0.84942  0.14470  1.0000
  C   C455      1.0  0.16791  0.58425  0.12896  1.0000
  H   H777      1.0  0.29977  0.87877  0.32775  1.0000
  C   C456      1.0  0.00681  0.67218  0.21476  1.0000
  H   H778      1.0  0.21240  0.93788  0.26994  1.0000
  H   H779      1.0  0.44192  0.73987  0.31359  1.0000
  H   H780      1.0  0.19333  0.88744  0.25177  1.0000
  H   H781      1.0  0.14669  0.95416  0.13260  1.0000
  H   H782      1.0  0.20626  0.66429  0.18093  1.0000
  H   H783      1.0  0.19340  0.91399  0.13752  1.0000
  H   H784      1.0  0.10326  0.60106  0.14449  1.0000
  C   C457      1.0  0.25543  0.95291  0.29338  1.0000
  H   H785      1.0  0.19435  0.91968  0.24148  1.0000
  H   H786      1.0  0.08070  0.76236  0.27577  1.0000
  H   H787      1.0  0.06461  0.73661  0.13019  1.0000
  H   H788      1.0  0.00083  0.58621  0.11129  1.0000
  N   N25       1.0  0.14185  0.93987  0.09545  1.0000
  H   H789      1.0  0.04048  0.57197  0.26608  1.0000
  H   H790      1.0  0.18245  0.75489  0.24129  1.0000
  N   N26       1.0  0.99708  0.52192  0.23230  1.0000
  C   C458      1.0  0.01196  0.87879  0.07634  1.0000
  H   H791      1.0  0.18444  0.58457  0.08285  1.0000
  H   H792      1.0  0.03666  0.67006  0.13250  1.0000
  C   C459      1.0  0.17226  0.59646  0.11000  1.0000
  H   H793      1.0  0.03748  0.53466  0.23448  1.0000
  C   C460      1.0  0.03633  0.97846  0.07046  1.0000
  C   C461      1.0  0.28777  0.89223  0.30099  1.0000
  H   H794      1.0  0.04707  0.54799  0.28366  1.0000
  H   H795      1.0  0.00758  0.68895  0.05389  1.0000
  C   C462      1.0  0.99784  0.55664  0.01648  1.0000
  H   H796      1.0  0.03239  0.74867  0.22264  1.0000
  H   H797      1.0  0.02283  0.67952  0.20619  1.0000
  C   C463      1.0  0.10795  0.96692  0.02653  1.0000
  H   H798      1.0  0.46129  0.79948  0.24700  1.0000
  H   H799      1.0  0.03953  0.69071  0.28889  1.0000
  H   H800      1.0  0.18458  0.91795  0.04755  1.0000
  C   C464      1.0  0.03561  0.67767  0.11837  1.0000
  H   H801      1.0  0.03069  0.77956  0.05451  1.0000
  S   S109      1.0  0.00614  0.61521  0.24406  1.0000
  H   H802      1.0  0.04674  0.49307  0.23044  1.0000
  H   H803      1.0  0.39011  0.57547  0.32263  1.0000
  H   H804      1.0  0.45433  0.60759  0.33126  1.0000
  C   C465      1.0  0.47549  0.81527  0.24513  1.0000
  H   H805      1.0  0.14243  0.50194  0.14202  1.0000
  H   H806      1.0  0.24754  0.99078  0.30669  1.0000
  H   H807      1.0  0.03513  0.52283  0.20347  1.0000
  H   H808      1.0  0.05446  0.98827  0.07470  1.0000
  H   H809      1.0  0.00557  0.79167  0.23002  1.0000
  C   C466      1.0  0.11770  0.98190  0.08253  1.0000
  S   S110      1.0  0.29684  0.68847  0.33026  1.0000
  H   H810      1.0  0.00440  0.54069  0.26943  1.0000
  H   H811      1.0  0.27770  0.98874  0.29379  1.0000
  H   H812      1.0  0.46564  0.83438  0.24933  1.0000
  H   H813      1.0  0.35281  0.67821  0.32598  1.0000
  H   H814      1.0  0.26793  0.89606  0.32717  1.0000
  H   H815      1.0  0.99621  0.55601  0.17967  1.0000
  C   C467      1.0  0.99677  0.80532  0.06237  1.0000
  H   H816      1.0  0.00179  0.57665  0.01149  1.0000
  C   C468      1.0  0.99407  0.58993  0.06817  1.0000
  S   S111      1.0  0.31397  0.55540  0.33330  1.0000
  H   H817      1.0  0.48204  0.87478  0.33096  1.0000
  H   H818      1.0  0.99445  0.62567  0.13129  1.0000
  H   H819      1.0  0.16757  0.49416  0.01173  1.0000
  H   H820      1.0  0.99395  0.89084  0.15445  1.0000
  H   H821      1.0  0.24601  0.99208  0.28228  1.0000
  Fe  Fe57      1.0  0.39724  0.85028  0.45148  1.0000
  S   S112      1.0  0.39124  0.84481  0.48134  1.0000
  S   S113      1.0  0.43649  0.85195  0.43753  1.0000
  Fe  Fe58      1.0  0.33919  0.85352  0.44374  1.0000
  S   S114      1.0  0.32852  0.84795  0.47309  1.0000
  S   S115      1.0  0.30929  0.85603  0.42102  1.0000
  Fe  Fe59      1.0  0.35976  0.87754  0.47888  1.0000
  S   S116      1.0  0.35638  0.90957  0.50131  1.0000
  Fe  Fe60      1.0  0.36101  0.81581  0.47277  1.0000
  S   S117      1.0  0.35992  0.77542  0.48662  1.0000
  S   S118      1.0  0.36801  0.88481  0.44946  1.0000
  S   S119      1.0  0.36919  0.81963  0.44312  1.0000
  Fe  Fe61      1.0  0.35996  0.61529  0.45606  1.0000
  S   S120      1.0  0.36625  0.59641  0.42851  1.0000
  S   S121      1.0  0.35887  0.65999  0.45027  1.0000
  Fe  Fe62      1.0  0.36278  0.55913  0.47468  1.0000
  S   S122      1.0  0.36883  0.53834  0.44805  1.0000
  S   S123      1.0  0.37022  0.53287  0.49989  1.0000
  Fe  Fe63      1.0  0.39663  0.56978  0.44188  1.0000
  S   S124      1.0  0.43598  0.56021  0.42895  1.0000
  Fe  Fe64      1.0  0.33769  0.56713  0.43737  1.0000
  S   S125      1.0  0.30606  0.55220  0.41907  1.0000
  S   S126      1.0  0.39256  0.59003  0.46889  1.0000
  S   S127      1.0  0.32913  0.58654  0.46441  1.0000
  H   H822      1.0  0.36278  0.53358  0.40590  1.0000
  H   H823      1.0  0.41367  0.64798  0.47380  1.0000
  C   C469      1.0  0.30968  0.55406  0.39535  1.0000
  C   C470      1.0  0.29997  0.53373  0.38473  1.0000
  C   C471      1.0  0.30171  0.53449  0.36581  1.0000
  C   C472      1.0  0.31230  0.55604  0.35719  1.0000
  C   C473      1.0  0.32193  0.57670  0.36773  1.0000
  C   C474      1.0  0.32096  0.57553  0.38687  1.0000
  H   H824      1.0  0.29110  0.51720  0.39117  1.0000
  H   H825      1.0  0.29430  0.51846  0.35778  1.0000
  H   H826      1.0  0.33006  0.59344  0.36113  1.0000
  H   H827      1.0  0.32836  0.59137  0.39502  1.0000
  C   C475      1.0  0.45963  0.56600  0.44574  1.0000
  C   C476      1.0  0.40619  0.60909  0.37347  1.0000
  C   C477      1.0  0.45289  0.56321  0.46395  1.0000
  C   C478      1.0  0.39802  0.59061  0.35772  1.0000
  H   H828      1.0  0.43467  0.55439  0.46749  1.0000
  H   H829      1.0  0.48408  0.53682  0.36878  1.0000
  C   C479      1.0  0.42976  0.64385  0.43722  1.0000
  H   H830      1.0  0.42294  0.74751  0.48878  1.0000
  H   H831      1.0  0.35759  0.94414  0.44174  1.0000
  H   H832      1.0  0.46599  0.66431  0.43862  1.0000
  C   C480      1.0  0.32212  0.86490  0.39985  1.0000
  C   C481      1.0  0.34111  0.88394  0.39873  1.0000
  C   C482      1.0  0.34994  0.89201  0.38170  1.0000
  C   C483      1.0  0.34115  0.87993  0.36575  1.0000
  C   C484      1.0  0.32251  0.86051  0.36687  1.0000
  C   C485      1.0  0.31253  0.85353  0.38387  1.0000
  H   H833      1.0  0.34837  0.89312  0.41091  1.0000
  H   H834      1.0  0.36375  0.90758  0.38091  1.0000
  H   H835      1.0  0.31526  0.85138  0.35464  1.0000
  H   H836      1.0  0.29742  0.83921  0.38465  1.0000
  C   C486      1.0  0.35918  0.74348  0.47627  1.0000
  C   C487      1.0  0.36027  0.72085  0.48733  1.0000
  C   C488      1.0  0.36019  0.69515  0.47972  1.0000
  C   C489      1.0  0.35895  0.69175  0.46088  1.0000
  C   C490      1.0  0.35806  0.71436  0.44982  1.0000
  C   C491      1.0  0.35814  0.74003  0.45742  1.0000
  H   H837      1.0  0.36115  0.72323  0.50192  1.0000
  H   H838      1.0  0.36093  0.67804  0.48844  1.0000
  H   H839      1.0  0.35716  0.71203  0.43524  1.0000
  H   H840      1.0  0.35736  0.75715  0.44871  1.0000
  H   H841      1.0  0.41769  0.94774  0.49879  1.0000
  C   C492      1.0  0.35766  0.94476  0.50349  1.0000
  H   H842      1.0  0.35209  0.94396  0.53246  1.0000
  H   H843      1.0  0.36365  0.95285  0.47525  1.0000
  C   C493      1.0  0.43484  0.70707  0.48140  1.0000
  C   C494      1.0  0.46220  0.84901  0.45344  1.0000
  C   C495      1.0  0.45831  0.83672  0.47007  1.0000
  H   H844      1.0  0.34383  0.95258  0.41984  1.0000
  H   H845      1.0  0.44059  0.82637  0.47239  1.0000
  C   C496      1.0  0.46942  0.57222  0.47764  1.0000
  C   C497      1.0  0.39305  0.55369  0.37858  1.0000
  H   H846      1.0  0.24324  0.94598  0.46750  1.0000
  C   C498      1.0  0.48418  0.57566  0.44123  1.0000
  C   C499      1.0  0.36109  0.49961  0.50359  1.0000
  C   C500      1.0  0.30986  0.93668  0.45938  1.0000
  H   H847      1.0  0.46346  0.93901  0.47434  1.0000
  C   C501      1.0  0.28756  0.93934  0.51707  1.0000
  H   H848      1.0  0.41269  0.73797  0.46636  1.0000
  N   N27       1.0  0.28267  0.92831  0.46441  1.0000
  N   N28       1.0  0.45157  0.66269  0.46627  1.0000
  C   C502      1.0  0.45907  0.76903  0.35628  1.0000
  H   H849      1.0  0.44708  0.70094  0.45334  1.0000
  H   H850      1.0  0.44682  0.74468  0.47073  1.0000
  H   H851      1.0  0.45880  0.87356  0.52349  1.0000
  H   H852      1.0  0.26902  0.93042  0.52139  1.0000
  H   H853      1.0  0.39595  0.51924  0.40866  1.0000
  H   H854      1.0  0.46307  0.93308  0.33414  1.0000
  H   H855      1.0  0.22267  0.72312  0.39278  1.0000
  C   C503      1.0  0.45827  0.54502  0.53876  1.0000
  H   H856      1.0  0.47759  0.67146  0.48892  1.0000
  H   H857      1.0  0.26844  0.96173  0.49597  1.0000
  C   C504      1.0  0.42896  0.73603  0.47645  1.0000
  H   H858      1.0  0.40814  0.59755  0.34545  1.0000
  H   H859      1.0  0.27818  0.60351  0.35154  1.0000
  H   H860      1.0  0.26280  0.91589  0.48872  1.0000
  C   C505      1.0  0.35999  0.98915  0.49098  1.0000
  C   C506      1.0  0.25308  0.88806  0.46011  1.0000
  C   C507      1.0  0.38354  0.52516  0.38053  1.0000
  H   H861      1.0  0.43797  0.89906  0.53370  1.0000
  C   C508      1.0  0.37688  0.52813  0.55771  1.0000
  H   H862      1.0  0.43998  0.51903  0.37404  1.0000
  H   H863      1.0  0.46811  0.63224  0.44834  1.0000
  H   H864      1.0  0.37949  0.64169  0.36488  1.0000
  H   H865      1.0  0.41762  0.62684  0.41171  1.0000
  H   H866      1.0  0.26513  0.85005  0.44799  1.0000
  H   H867      1.0  0.44496  0.64821  0.40980  1.0000
  C   C509      1.0  0.37167  0.49893  0.56021  1.0000
  H   H868      1.0  0.31394  0.95623  0.46529  1.0000
  H   H869      1.0  0.47412  0.82871  0.49679  1.0000
  H   H870      1.0  0.39812  0.87321  0.52554  1.0000
  H   H871      1.0  0.47990  0.77315  0.35323  1.0000
  H   H872      1.0  0.29554  0.88819  0.45726  1.0000
  C   C510      1.0  0.44409  0.52746  0.36056  1.0000
  N   N29       1.0  0.40392  0.56137  0.36034  1.0000
  H   H873      1.0  0.44792  0.76845  0.34327  1.0000
  H   H874      1.0  0.30394  0.95787  0.49397  1.0000
  C   C511      1.0  0.43504  0.64438  0.47711  1.0000
  H   H875      1.0  0.45002  0.61537  0.41912  1.0000
  C   C512      1.0  0.40068  0.63804  0.36839  1.0000
  C   C513      1.0  0.28576  0.94761  0.49716  1.0000
  H   H876      1.0  0.41621  0.66147  0.43548  1.0000
  H   H877      1.0  0.47153  0.89113  0.35148  1.0000
  N   N30       1.0  0.28703  0.66718  0.38810  1.0000
  C   C514      1.0  0.26090  0.68156  0.39223  1.0000
  C   C515      1.0  0.29840  0.65386  0.40498  1.0000
  C   C516      1.0  0.30589  0.68776  0.38232  1.0000
  C   C517      1.0  0.28470  0.64746  0.37282  1.0000
  C   C518      1.0  0.26497  0.62547  0.37568  1.0000
  C   C519      1.0  0.24660  0.69567  0.37602  1.0000
  C   C520      1.0  0.33462  0.67757  0.37815  1.0000
  C   C521      1.0  0.27856  0.64288  0.41870  1.0000
  C   C522      1.0  0.29285  0.62658  0.43341  1.0000
  C   C523      1.0  0.25949  0.61094  0.35794  1.0000
  H   H878      1.0  0.39771  0.53200  0.56114  1.0000
  C   C524      1.0  0.35294  0.70060  0.37660  1.0000
  H   H879      1.0  0.26372  0.69658  0.40311  1.0000
  H   H880      1.0  0.24651  0.66806  0.39786  1.0000
  H   H881      1.0  0.31261  0.63732  0.40117  1.0000
  H   H882      1.0  0.31024  0.66781  0.41309  1.0000
  H   H883      1.0  0.30669  0.70355  0.39291  1.0000
  H   H884      1.0  0.29890  0.69780  0.36971  1.0000
  H   H885      1.0  0.27974  0.65776  0.35989  1.0000
  H   H886      1.0  0.30412  0.63702  0.37017  1.0000
  H   H887      1.0  0.24565  0.63329  0.38081  1.0000
  H   H888      1.0  0.27346  0.61070  0.38542  1.0000
  C   C525      1.0  0.21995  0.70826  0.38186  1.0000
  C   C526      1.0  0.24833  0.86494  0.44726  1.0000
  H   H889      1.0  0.33510  0.66676  0.36497  1.0000
  H   H890      1.0  0.34286  0.66416  0.38880  1.0000
  H   H891      1.0  0.26744  0.65947  0.42560  1.0000
  H   H892      1.0  0.26419  0.63016  0.41206  1.0000
  H   H893      1.0  0.27824  0.61870  0.44289  1.0000
  H   H894      1.0  0.30432  0.60962  0.42727  1.0000
  H   H895      1.0  0.30641  0.63894  0.44127  1.0000
  H   H896      1.0  0.24860  0.62432  0.34831  1.0000
  H   H897      1.0  0.23245  0.99075  0.44335  1.0000
  H   H898      1.0  0.41704  0.68743  0.45916  1.0000
  H   H899      1.0  0.44297  0.56652  0.37146  1.0000
  C   C527      1.0  0.39022  0.54714  0.34515  1.0000
  H   H900      1.0  0.42131  0.85591  0.54040  1.0000
  H   H901      1.0  0.37279  0.69319  0.37204  1.0000
  H   H902      1.0  0.34509  0.71526  0.36657  1.0000
  H   H903      1.0  0.35111  0.99276  0.53658  1.0000
  H   H904      1.0  0.39445  0.49841  0.58532  1.0000
  H   H905      1.0  0.44982  0.90961  0.44190  1.0000
  C   C528      1.0  0.43384  0.95007  0.52542  1.0000
  H   H906      1.0  0.37528  0.56646  0.38204  1.0000
  H   H907      1.0  0.25510  0.87964  0.47395  1.0000
  C   C529      1.0  0.43760  0.68951  0.46416  1.0000
  C   C530      1.0  0.47867  0.66431  0.47471  1.0000
  H   H908      1.0  0.20677  0.69295  0.38678  1.0000
  C   C531      1.0  0.42666  0.97909  0.52968  1.0000
  H   H909      1.0  0.45541  0.69146  0.34538  1.0000
  H   H910      1.0  0.21022  0.71837  0.37009  1.0000
  H   H911      1.0  0.43934  0.94398  0.44511  1.0000
  C   C532      1.0  0.36086  0.96136  0.48861  1.0000
  C   C533      1.0  0.43612  0.63294  0.41829  1.0000
  H   H912      1.0  0.37326  0.53368  0.54330  1.0000
  H   H913      1.0  0.41291  0.64335  0.35660  1.0000
  H   H914      1.0  0.43997  0.62343  0.47321  1.0000
  C   C534      1.0  0.45445  0.92043  0.47858  1.0000
  H   H915      1.0  0.36342  0.54068  0.56637  1.0000
  C   C535      1.0  0.43377  0.92327  0.44712  1.0000
  C   C536      1.0  0.35450  0.95646  0.52079  1.0000
  H   H916      1.0  0.29855  0.94652  0.43104  1.0000
  H   H917      1.0  0.46836  0.90403  0.47400  1.0000
  H   H918      1.0  0.48900  0.70140  0.46125  1.0000
  H   H919      1.0  0.31932  0.91713  0.43341  1.0000
  H   H920      1.0  0.46343  0.57109  0.49167  1.0000
  H   H921      1.0  0.24729  0.59377  0.36064  1.0000
  C   C537      1.0  0.33996  0.95305  0.43467  1.0000
  H   H922      1.0  0.42374  0.50809  0.48914  1.0000
  H   H923      1.0  0.23006  0.85524  0.45123  1.0000
  C   C538      1.0  0.43895  0.49542  0.48202  1.0000
  C   C539      1.0  0.47406  0.52549  0.35801  1.0000
  C   C540      1.0  0.47753  0.83759  0.48374  1.0000
  H   H924      1.0  0.25830  0.71175  0.37057  1.0000
  H   H925      1.0  0.42320  0.99094  0.63197  1.0000
  H   H926      1.0  0.25388  0.94378  0.44474  1.0000
  H   H927      1.0  0.39490  0.60531  0.38597  1.0000
  N   N31       1.0  0.40376  0.80416  0.38603  1.0000
  C   C541      1.0  0.41757  0.80422  0.40424  1.0000
  C   C542      1.0  0.40077  0.83198  0.37862  1.0000
  C   C543      1.0  0.37638  0.79438  0.38902  1.0000
  C   C544      1.0  0.41767  0.78588  0.37254  1.0000
  C   C545      1.0  0.44705  0.79059  0.36877  1.0000
  C   C546      1.0  0.42087  0.77721  0.41403  1.0000
  C   C547      1.0  0.35775  0.79479  0.37221  1.0000
  C   C548      1.0  0.42336  0.85088  0.38283  1.0000
  C   C549      1.0  0.42239  0.87461  0.37013  1.0000
  C   C550      1.0  0.43354  0.55655  0.35980  1.0000
  C   C551      1.0  0.43726  0.77945  0.43141  1.0000
  C   C552      1.0  0.33065  0.78493  0.37712  1.0000
  H   H928      1.0  0.40670  0.81824  0.41355  1.0000
  H   H929      1.0  0.43759  0.81193  0.40329  1.0000
  H   H930      1.0  0.39748  0.83148  0.36367  1.0000
  H   H931      1.0  0.38264  0.84242  0.38417  1.0000
  H   H932      1.0  0.36619  0.80621  0.39999  1.0000
  H   H933      1.0  0.37743  0.77354  0.39368  1.0000
  H   H934      1.0  0.41588  0.76489  0.37652  1.0000
  H   H935      1.0  0.40777  0.78757  0.35910  1.0000
  H   H936      1.0  0.45896  0.79056  0.38142  1.0000
  H   H937      1.0  0.44876  0.80962  0.36161  1.0000
  H   H938      1.0  0.40143  0.77002  0.41812  1.0000
  H   H939      1.0  0.43102  0.76217  0.40520  1.0000
  H   H940      1.0  0.36579  0.78162  0.36134  1.0000
  H   H941      1.0  0.35486  0.81497  0.36663  1.0000
  H   H942      1.0  0.42124  0.85840  0.39699  1.0000
  H   H943      1.0  0.44327  0.84118  0.38165  1.0000
  H   H944      1.0  0.40258  0.88479  0.37025  1.0000
  H   H945      1.0  0.43701  0.88892  0.37465  1.0000
  H   H946      1.0  0.42704  0.86821  0.35602  1.0000
  C   C553      1.0  0.26089  0.94808  0.45877  1.0000
  C   C554      1.0  0.45536  0.65077  0.44754  1.0000
  H   H947      1.0  0.24603  0.87187  0.43304  1.0000
  H   H948      1.0  0.29739  0.90776  0.48831  1.0000
  H   H949      1.0  0.42704  0.79310  0.44124  1.0000
  H   H950      1.0  0.43993  0.75974  0.43782  1.0000
  H   H951      1.0  0.31713  0.78715  0.36526  1.0000
  H   H952      1.0  0.33235  0.76372  0.38087  1.0000
  H   H953      1.0  0.32192  0.79647  0.38865  1.0000
  H   H954      1.0  0.42755  0.60649  0.37665  1.0000
  H   H955      1.0  0.24270  0.68152  0.36488  1.0000
  H   H956      1.0  0.48131  0.50449  0.35881  1.0000
  N   N32       1.0  0.45140  0.91980  0.49899  1.0000
  C   C555      1.0  0.43821  0.64497  0.49807  1.0000
  C   C556      1.0  0.43500  0.89660  0.50365  1.0000
  H   H957      1.0  0.45175  0.94460  0.53344  1.0000
  C   C557      1.0  0.43783  0.94563  0.50480  1.0000
  H   H958      1.0  0.41558  0.91997  0.43912  1.0000
  H   H959      1.0  0.44676  0.50647  0.47040  1.0000
  C   C558      1.0  0.42874  0.91807  0.46719  1.0000
  C   C559      1.0  0.43908  0.88414  0.52272  1.0000
  C   C560      1.0  0.41840  0.86392  0.52651  1.0000
  H   H960      1.0  0.41909  0.62857  0.44452  1.0000
  H   H961      1.0  0.35109  0.49601  0.55567  1.0000
  H   H962      1.0  0.45796  0.63623  0.50199  1.0000
  H   H963      1.0  0.40763  0.55733  0.38961  1.0000
  H   H964      1.0  0.27749  0.90505  0.43992  1.0000
  H   H965      1.0  0.41360  0.90203  0.50182  1.0000
  H   H966      1.0  0.43940  0.87989  0.49406  1.0000
  H   H967      1.0  0.45868  0.74938  0.36286  1.0000
  H   H968      1.0  0.41720  0.93835  0.53009  1.0000
  H   H969      1.0  0.44833  0.96258  0.49927  1.0000
  C   C561      1.0  0.48626  0.86034  0.44993  1.0000
  H   H970      1.0  0.40940  0.98627  0.52145  1.0000
  H   H971      1.0  0.39356  0.52543  0.34615  1.0000
  C   C562      1.0  0.31556  0.93753  0.43870  1.0000
  H   H972      1.0  0.40559  0.65096  0.38004  1.0000
  H   H973      1.0  0.41280  0.93227  0.47171  1.0000
  H   H974      1.0  0.42137  0.89785  0.46822  1.0000
  C   C563      1.0  0.27840  0.90229  0.45490  1.0000
  H   H975      1.0  0.23541  0.90184  0.45966  1.0000
  H   H976      1.0  0.32524  0.92294  0.46549  1.0000
  H   H977      1.0  0.35502  0.71054  0.38998  1.0000
  H   H978      1.0  0.42040  0.84721  0.51671  1.0000
  C   C564      1.0  0.41757  0.62863  0.50727  1.0000
  H   H979      1.0  0.27747  0.98389  0.47135  1.0000
  H   H980      1.0  0.30440  0.92484  0.51924  1.0000
  H   H981      1.0  0.45706  0.78687  0.42843  1.0000
  C   C565      1.0  0.47875  0.91604  0.50709  1.0000
  S   S128      1.0  0.35285  0.89044  0.34463  1.0000
  H   H982      1.0  0.45975  0.56581  0.53427  1.0000
  H   H983      1.0  0.37648  0.59456  0.35525  1.0000
  H   H984      1.0  0.41999  0.62987  0.52223  1.0000
  H   H985      1.0  0.32757  0.49668  0.43085  1.0000
  H   H986      1.0  0.48470  0.89905  0.41002  1.0000
  H   H987      1.0  0.43630  0.66527  0.50362  1.0000
  C   C566      1.0  0.26759  0.97773  0.45872  1.0000
  H   H988      1.0  0.28105  0.98175  0.44734  1.0000
  H   H989      1.0  0.48953  0.86951  0.43700  1.0000
  H   H990      1.0  0.45025  0.54520  0.55275  1.0000
  H   H991      1.0  0.47815  0.91458  0.52207  1.0000
  H   H992      1.0  0.42013  0.60755  0.50314  1.0000
  H   H993      1.0  0.45284  0.70653  0.48994  1.0000
  H   H994      1.0  0.39728  0.63621  0.50369  1.0000
  C   C567      1.0  0.35388  0.98422  0.52319  1.0000
  H   H995      1.0  0.44424  0.53499  0.52968  1.0000
  H   H996      1.0  0.41808  0.70054  0.48963  1.0000
  H   H997      1.0  0.48862  0.67769  0.34855  1.0000
  C   C568      1.0  0.49335  0.58302  0.47318  1.0000
  H   H998      1.0  0.48781  0.89674  0.50250  1.0000
  C   C569      1.0  0.28208  0.92343  0.48462  1.0000
  C   C570      1.0  0.37764  0.51893  0.40032  1.0000
  C   C571      1.0  0.48165  0.89383  0.33845  1.0000
  H   H999      1.0  0.43533  0.51529  0.34975  1.0000
  H   H1000     1.0  0.48562  0.90742  0.37735  1.0000
  H   H1001     1.0  0.29079  0.95694  0.52572  1.0000
  H   H1002     1.0  0.42151  0.98142  0.54425  1.0000
  H   H1003     1.0  0.36494  0.52310  0.37267  1.0000
  H   H1004     1.0  0.44193  0.56575  0.34756  1.0000
  H   H1005     1.0  0.47947  0.53326  0.34452  1.0000
  H   H1006     1.0  0.48278  0.51016  0.54327  1.0000
  C   C572      1.0  0.48547  0.53054  0.53852  1.0000
  H   H1007     1.0  0.33684  0.97397  0.43905  1.0000
  H   H1008     1.0  0.48255  0.51975  0.51061  1.0000
  H   H1009     1.0  0.32304  0.50369  0.49060  1.0000
  H   H1010     1.0  0.49075  0.95736  0.50699  1.0000
  H   H1011     1.0  0.48960  0.57762  0.42714  1.0000
  H   H1012     1.0  0.36843  0.55064  0.34640  1.0000
  H   H1013     1.0  0.36945  0.49905  0.40120  1.0000
  C   C573      1.0  0.47109  0.67804  0.33943  1.0000
  H   H1014     1.0  0.48827  0.64412  0.47572  1.0000
  H   H1015     1.0  0.35979  0.50127  0.58804  1.0000
  H   H1016     1.0  0.39822  0.51005  0.37550  1.0000
  H   H1017     1.0  0.46391  0.65768  0.33858  1.0000
  H   H1018     1.0  0.44363  0.99148  0.52681  1.0000
  H   H1019     1.0  0.29831  0.74475  0.33390  1.0000
  H   H1020     1.0  0.12421  0.95555  0.88968  1.0000
  H   H1021     1.0  0.08638  0.95169  0.93082  1.0000
  H   H1022     1.0  0.07933  0.92554  0.98751  1.0000
  C   C574      1.0  0.09220  0.92867  0.88726  1.0000
  H   H1023     1.0  0.11761  0.93796  0.90958  1.0000
  H   H1024     1.0  0.12629  0.91265  0.87211  1.0000
  H   H1025     1.0  0.08619  0.97344  0.98307  1.0000
  H   H1026     1.0  0.03214  0.97966  0.98544  1.0000
  C   C575      1.0  0.07439  0.96332  0.92068  1.0000
  C   C576      1.0  0.01290  0.97592  0.99182  1.0000
  H   H1027     1.0  0.11965  0.89513  0.89285  1.0000
  C   C577      1.0  0.04201  0.97345  0.94625  1.0000
  H   H1028     1.0  0.09895  0.89124  0.87315  1.0000
  H   H1029     1.0  0.05990  0.94947  0.91524  1.0000
  H   H1030     1.0  0.07641  0.92044  0.89558  1.0000
  C   C578      1.0  0.10773  0.94911  0.89828  1.0000
  H   H1031     1.0  0.13798  0.96534  0.92727  1.0000
  H   H1032     1.0  0.01141  0.50037  0.98013  1.0000
  N   N33       1.0  0.09166  0.97264  0.90561  1.0000
  C   C579      1.0  0.11048  0.90556  0.88100  1.0000
  H   H1033     1.0  0.08301  0.93766  0.87494  1.0000
  H   H1034     1.0  0.11469  0.98343  0.94151  1.0000
  H   H1035     1.0  0.02692  0.53862  0.99781  1.0000
  H   H1036     1.0  0.00598  0.95680  0.98664  1.0000
  C   C580      1.0  0.12728  0.98470  0.92929  1.0000
  H   H1037     1.0  0.05537  0.96365  0.95643  1.0000
  C   C581      1.0  0.09093  0.96430  0.99597  1.0000
  H   H1038     1.0  0.99817  0.99189  0.98806  1.0000
  H   H1039     1.0  0.02829  0.95889  0.94076  1.0000
  C   C582      1.0  0.08711  0.93708  0.99853  1.0000
  C   C583      1.0  0.07429  0.98530  0.89109  1.0000
  H   H1040     1.0  0.05828  0.97209  0.88711  1.0000
  H   H1041     1.0  0.10218  0.97838  0.86812  1.0000
  C   C584      1.0  0.05798  0.98517  0.93103  1.0000
  H   H1042     1.0  0.05865  0.98471  0.85377  1.0000
  H   H1043     1.0  0.03014  0.98957  0.95308  1.0000
  C   C585      1.0  0.11034  0.99279  0.91244  1.0000
  H   H1044     1.0  0.93685  0.44000  0.05377  1.0000
  C   C586      1.0  0.83555  0.03258  0.00405  1.0000
  C   C587      1.0  0.76849  0.03875  0.06727  1.0000
  H   H1045     1.0  0.77939  0.02550  0.09432  1.0000
  H   H1046     1.0  0.74104  0.05810  0.08643  1.0000
  H   H1047     1.0  0.95084  0.03484  0.05263  1.0000
  C   C588      1.0  0.87080  0.02782  0.02609  1.0000
  C   C589      1.0  0.77816  0.01655  0.08049  1.0000
  H   H1048     1.0  0.82419  0.03393  0.08926  1.0000
  C   C590      1.0  0.87459  0.05519  0.02489  1.0000
  C   C591      1.0  0.82503  0.02268  0.07620  1.0000
  H   H1049     1.0  0.78181  0.05551  0.06768  1.0000
  H   H1050     1.0  0.73469  0.06594  0.06294  1.0000
  C   C592      1.0  0.95497  0.01447  0.05764  1.0000
  H   H1051     1.0  0.98764  0.22341  0.00401  1.0000
  H   H1052     1.0  0.92143  0.47085  0.04622  1.0000
  H   H1053     1.0  0.93593  0.05701  0.02642  1.0000
  C   C593      1.0  0.85101  0.01635  0.01583  1.0000
  C   C594      1.0  0.85948  0.07136  0.01289  1.0000
  H   H1054     1.0  0.72634  0.03421  0.07153  1.0000
  H   H1055     1.0  0.76738  0.03127  0.05312  1.0000
  H   H1056     1.0  0.94750  0.08876  0.02071  1.0000
  S   S129      1.0  0.86528  0.10581  0.01210  1.0000
  C   C595      1.0  0.94722  0.06783  0.01627  1.0000
  C   C596      1.0  0.93348  0.45307  0.04186  1.0000
  C   C597      1.0  0.74095  0.04985  0.07243  1.0000
  H   H1057     1.0  0.95509  0.47488  0.02265  1.0000
  S   S130      1.0  0.87104  0.48130  0.01469  1.0000
  C   C598      1.0  0.87335  0.03388  0.07555  1.0000
  H   H1058     1.0  0.98765  0.39059  0.00723  1.0000
  C   C599      1.0  0.83986  0.05986  0.00247  1.0000
  H   H1059     1.0  0.96786  0.05949  0.01573  1.0000
  H   H1060     1.0  0.88947  0.06394  0.03325  1.0000
  H   H1061     1.0  0.80312  0.00556  0.04651  1.0000
  C   C600      1.0  0.97686  0.43692  0.02755  1.0000
  H   H1062     1.0  0.96992  0.47237  0.04490  1.0000
  H   H1063     1.0  0.87267  0.04220  0.08953  1.0000
  H   H1064     1.0  0.76199  0.00264  0.08129  1.0000
  H   H1065     1.0  0.88318  0.01568  0.03500  1.0000
  N   N34       1.0  0.80416  0.00232  0.07588  1.0000
  H   H1066     1.0  0.96491  0.42718  0.01692  1.0000
  C   C601      1.0  0.85391  0.01188  0.07355  1.0000
  H   H1067     1.0  0.99180  0.47901  0.00667  1.0000
  H   H1068     1.0  0.85967  0.99637  0.08354  1.0000
  H   H1069     1.0  0.82148  0.03742  0.06521  1.0000
  H   H1070     1.0  0.92201  0.44256  0.03141  1.0000
  H   H1071     1.0  0.85627  0.00344  0.05975  1.0000
  H   H1072     1.0  0.96645  0.12684  0.00891  1.0000
  H   H1073     1.0  0.86867  0.04993  0.06567  1.0000
  H   H1074     1.0  0.97865  0.42232  0.03877  1.0000
  H   H1075     1.0  0.93681  0.00325  0.05600  1.0000
  C   C602      1.0  0.95975  0.46132  0.03411  1.0000
  H   H1076     1.0  0.83039  0.47836  0.06579  1.0000
  H   H1077     1.0  0.89371  0.02575  0.07290  1.0000
  H   H1078     1.0  0.95993  0.01532  0.07233  1.0000
  C   C603      1.0  0.97757  0.00058  0.04708  1.0000
  H   H1079     1.0  0.98775  0.48116  0.22777  1.0000
  H   H1080     1.0  0.91653  0.02938  0.00232  1.0000
  H   H1081     1.0  0.79696  0.48405  0.05775  1.0000
  H   H1082     1.0  0.97346  0.19170  0.00634  1.0000
  H   H1083     1.0  0.93833  0.22569  0.00198  1.0000
  H   H1084     1.0  0.97053  0.99782  0.03296  1.0000
  Fe  Fe65      1.0  0.58471  0.08243  0.54705  1.0000
  S   S131      1.0  0.57802  0.08037  0.57728  1.0000
  S   S132      1.0  0.57442  0.05099  0.52571  1.0000
  Fe  Fe66      1.0  0.59688  0.14230  0.54913  1.0000
  S   S133      1.0  0.59117  0.14423  0.57905  1.0000
  S   S134      1.0  0.60651  0.17714  0.53136  1.0000
  Fe  Fe67      1.0  0.61356  0.10514  0.57983  1.0000
  S   S135      1.0  0.64628  0.09935  0.60050  1.0000
  Fe  Fe68      1.0  0.55633  0.11979  0.57417  1.0000
  S   S136      1.0  0.51906  0.13443  0.58784  1.0000
  S   S137      1.0  0.62224  0.10447  0.54982  1.0000
  S   S138      1.0  0.56003  0.12050  0.54398  1.0000
  Fe  Fe69      1.0  0.60650  0.34129  0.55480  1.0000
  S   S139      1.0  0.59664  0.34397  0.58430  1.0000
  S   S140      1.0  0.60955  0.30306  0.53798  1.0000
  Fe  Fe70      1.0  0.60663  0.40341  0.55097  1.0000
  S   S141      1.0  0.59756  0.40951  0.58076  1.0000
  S   S142      1.0  0.60306  0.43541  0.52862  1.0000
  Fe  Fe71      1.0  0.62660  0.37510  0.58571  1.0000
  S   S143      1.0  0.65645  0.36834  0.60843  1.0000
  Fe  Fe72      1.0  0.56870  0.37775  0.57677  1.0000
  S   S144      1.0  0.52813  0.38017  0.58916  1.0000
  S   S145      1.0  0.63829  0.37105  0.55617  1.0000
  S   S146      1.0  0.57603  0.37285  0.54699  1.0000
  C   C604      1.0  0.64745  0.37590  0.63103  1.0000
  C   C605      1.0  0.65535  0.35834  0.64491  1.0000
  H   H1085     1.0  0.72993  0.48917  0.42961  1.0000
  C   C606      1.0  0.52560  0.12875  0.48927  1.0000
  C   C607      1.0  0.63393  0.40841  0.65393  1.0000
  C   C608      1.0  0.63583  0.40061  0.63561  1.0000
  H   H1086     1.0  0.66419  0.33914  0.64143  1.0000
  H   H1087     1.0  0.70303  0.08196  0.44740  1.0000
  H   H1088     1.0  0.68084  0.06102  0.54968  1.0000
  H   H1089     1.0  0.62990  0.41435  0.62500  1.0000
  C   C609      1.0  0.57115  0.36834  0.64202  1.0000
  C   C610      1.0  0.61009  0.46939  0.52550  1.0000
  C   C611      1.0  0.50411  0.37582  0.57247  1.0000
  H   H1090     1.0  0.59126  0.47085  0.49923  1.0000
  H   H1091     1.0  0.53903  0.43615  0.53088  1.0000
  C   C612      1.0  0.62610  0.09067  0.66074  1.0000
  C   C613      1.0  0.71327  0.40042  0.65262  1.0000
  C   C614      1.0  0.50887  0.38282  0.55453  1.0000
  C   C615      1.0  0.53278  0.23681  0.53658  1.0000
  H   H1092     1.0  0.52614  0.39331  0.55125  1.0000
  C   C616      1.0  0.63788  0.09640  0.62361  1.0000
  C   C617      1.0  0.65758  0.08791  0.63593  1.0000
  C   C618      1.0  0.65162  0.08459  0.65432  1.0000
  H   H1093     1.0  0.63044  0.47481  0.55083  1.0000
  C   C619      1.0  0.60645  0.09995  0.64855  1.0000
  C   C620      1.0  0.61224  0.10236  0.62994  1.0000
  H   H1094     1.0  0.67739  0.08315  0.63112  1.0000
  H   H1095     1.0  0.50967  0.14348  0.48538  1.0000
  C   C621      1.0  0.62374  0.48409  0.53834  1.0000
  H   H1096     1.0  0.59686  0.10847  0.62045  1.0000
  C   C622      1.0  0.60761  0.21188  0.53511  1.0000
  C   C623      1.0  0.61289  0.22738  0.52004  1.0000
  C   C624      1.0  0.61367  0.25491  0.52152  1.0000
  C   C625      1.0  0.60952  0.26782  0.53817  1.0000
  C   C626      1.0  0.60455  0.25247  0.55357  1.0000
  C   C627      1.0  0.60330  0.22452  0.55199  1.0000
  H   H1097     1.0  0.61626  0.21803  0.50696  1.0000
  H   H1098     1.0  0.61754  0.26635  0.50955  1.0000
  H   H1099     1.0  0.60140  0.26210  0.56656  1.0000
  H   H1100     1.0  0.59888  0.21281  0.56369  1.0000
  H   H1101     1.0  0.54052  0.35220  0.62581  1.0000
  N   N35       1.0  0.65095  0.05406  0.49649  1.0000
  C   C628      1.0  0.65267  0.36584  0.66325  1.0000
  C   C629      1.0  0.67774  0.06658  0.46813  1.0000
  H   H1102     1.0  0.52187  0.07752  0.58364  1.0000
  C   C630      1.0  0.58656  0.01780  0.52152  1.0000
  H   H1103     1.0  0.53079  0.28444  0.59582  1.0000
  C   C631      1.0  0.53731  0.28554  0.55791  1.0000
  C   C632      1.0  0.80710  0.36819  0.65942  1.0000
  C   C633      1.0  0.51323  0.02519  0.54545  1.0000
  H   H1104     1.0  0.65809  0.07552  0.52151  1.0000
  H   H1105     1.0  0.69343  0.05345  0.49361  1.0000
  C   C634      1.0  0.60643  0.00534  0.53209  1.0000
  C   C635      1.0  0.57651  0.00392  0.50657  1.0000
  H   H1106     1.0  0.67828  0.08547  0.49464  1.0000
  H   H1107     1.0  0.62886  0.10323  0.51033  1.0000
  H   H1108     1.0  0.60872  0.06118  0.49675  1.0000
  H   H1109     1.0  0.62309  0.06899  0.47592  1.0000
  C   C636      1.0  0.70948  0.48695  0.42451  1.0000
  H   H1110     1.0  0.63300  0.05238  0.52310  1.0000
  H   H1111     1.0  0.66412  0.21202  0.65482  1.0000
  H   H1112     1.0  0.64862  0.28434  0.62602  1.0000
  H   H1113     1.0  0.61419  0.01550  0.54376  1.0000
  H   H1114     1.0  0.68060  0.04632  0.46245  1.0000
  H   H1115     1.0  0.66680  0.07710  0.66354  1.0000
  H   H1116     1.0  0.52060  0.21580  0.51224  1.0000
  H   H1117     1.0  0.49925  0.32572  0.51298  1.0000
  H   H1118     1.0  0.65999  0.07653  0.46193  1.0000
  H   H1119     1.0  0.72016  0.07247  0.46801  1.0000
  C   C637      1.0  0.67390  0.04093  0.54681  1.0000
  C   C638      1.0  0.62550  0.09985  0.49569  1.0000
  H   H1120     1.0  0.64025  0.03199  0.46160  1.0000
  H   H1121     1.0  0.54362  0.13954  0.49254  1.0000
  C   C639      1.0  0.59854  0.11299  0.49117  1.0000
  C   C640      1.0  0.51750  0.11314  0.50584  1.0000
  C   C641      1.0  0.70161  0.08188  0.46244  1.0000
  H   H1122     1.0  0.81414  0.38591  0.65246  1.0000
  N   N36       1.0  0.63401  0.19189  0.62369  1.0000
  C   C642      1.0  0.65390  0.18864  0.60855  1.0000
  C   C643      1.0  0.64580  0.17949  0.64064  1.0000
  C   C644      1.0  0.61038  0.17634  0.61846  1.0000
  C   C645      1.0  0.62488  0.22041  0.62699  1.0000
  C   C646      1.0  0.64510  0.24192  0.62336  1.0000
  C   C647      1.0  0.64343  0.19621  0.58935  1.0000
  C   C648      1.0  0.58882  0.17393  0.63321  1.0000
  C   C649      1.0  0.67018  0.19252  0.64883  1.0000
  H   H1123     1.0  0.62945  0.27000  0.64359  1.0000
  C   C650      1.0  0.63392  0.26933  0.62888  1.0000
  C   C651      1.0  0.66595  0.20056  0.57616  1.0000
  C   C652      1.0  0.56320  0.16412  0.62507  1.0000
  H   H1124     1.0  0.66159  0.16764  0.60768  1.0000
  H   H1125     1.0  0.67156  0.20011  0.61133  1.0000
  H   H1126     1.0  0.63116  0.18000  0.65182  1.0000
  H   H1127     1.0  0.65099  0.15811  0.63810  1.0000
  H   H1128     1.0  0.61691  0.15582  0.61435  1.0000
  H   H1129     1.0  0.60031  0.18534  0.60639  1.0000
  H   H1130     1.0  0.60733  0.22587  0.61840  1.0000
  H   H1131     1.0  0.61784  0.22303  0.64120  1.0000
  H   H1132     1.0  0.64991  0.24286  0.60873  1.0000
  H   H1133     1.0  0.66386  0.23812  0.63082  1.0000
  H   H1134     1.0  0.63196  0.17995  0.58374  1.0000
  H   H1135     1.0  0.63024  0.21430  0.58969  1.0000
  H   H1136     1.0  0.58420  0.19315  0.64004  1.0000
  H   H1137     1.0  0.59562  0.15936  0.64364  1.0000
  H   H1138     1.0  0.68586  0.19506  0.63867  1.0000
  H   H1139     1.0  0.52551  0.34779  0.49043  1.0000
  H   H1140     1.0  0.69325  0.40272  0.65863  1.0000
  H   H1141     1.0  0.53736  0.19535  0.52909  1.0000
  C   C653      1.0  0.52666  0.44764  0.54085  1.0000
  H   H1142     1.0  0.55593  0.33642  0.50128  1.0000
  H   H1143     1.0  0.61562  0.27460  0.62106  1.0000
  H   H1144     1.0  0.71171  0.38437  0.64235  1.0000
  H   H1145     1.0  0.67937  0.18260  0.57531  1.0000
  H   H1146     1.0  0.65772  0.20469  0.56241  1.0000
  H   H1147     1.0  0.67735  0.21770  0.58053  1.0000
  H   H1148     1.0  0.55404  0.17903  0.61570  1.0000
  H   H1149     1.0  0.56695  0.14533  0.61750  1.0000
  H   H1150     1.0  0.54900  0.16034  0.63606  1.0000
  C   C654      1.0  0.50519  0.31484  0.64444  1.0000
  H   H1151     1.0  0.63770  0.01468  0.50132  1.0000
  H   H1152     1.0  0.61264  0.02289  0.47485  1.0000
  H   H1153     1.0  0.69955  0.10269  0.46728  1.0000
  H   H1154     1.0  0.69298  0.03751  0.52096  1.0000
  H   H1155     1.0  0.49529  0.38115  0.52682  1.0000
  H   H1156     1.0  0.57462  0.38559  0.65096  1.0000
  H   H1157     1.0  0.49810  0.06392  0.64019  1.0000
  C   C655      1.0  0.53692  0.21494  0.52236  1.0000
  H   H1158     1.0  0.53947  0.38769  0.62718  1.0000
  H   H1159     1.0  0.55914  0.28429  0.55619  1.0000
  H   H1160     1.0  0.59316  0.48775  0.44130  1.0000
  H   H1161     1.0  0.70991  0.48667  0.40943  1.0000
  H   H1162     1.0  0.53701  0.31883  0.59968  1.0000
  H   H1163     1.0  0.59846  0.13431  0.49484  1.0000
  C   C656      1.0  0.54262  0.36923  0.63510  1.0000
  C   C657      1.0  0.69551  0.43296  0.62899  1.0000
  H   H1164     1.0  0.49536  0.38594  0.62021  1.0000
  H   H1165     1.0  0.49830  0.34086  0.62152  1.0000
  H   H1166     1.0  0.53248  0.44085  0.55468  1.0000
  H   H1167     1.0  0.52486  0.33015  0.53967  1.0000
  H   H1168     1.0  0.50160  0.08966  0.62379  1.0000
  C   C658      1.0  0.67277  0.03576  0.52635  1.0000
  C   C659      1.0  0.53469  0.26466  0.52812  1.0000
  C   C660      1.0  0.65266  0.05550  0.51699  1.0000
  H   H1169     1.0  0.64147  0.48882  0.44170  1.0000
  H   H1170     1.0  0.68784  0.02623  0.55330  1.0000
  H   H1171     1.0  0.50521  0.01012  0.55451  1.0000
  H   H1172     1.0  0.66710  0.01504  0.52440  1.0000
  C   C661      1.0  0.63430  0.01942  0.47292  1.0000
  H   H1173     1.0  0.53375  0.35990  0.51272  1.0000
  H   H1174     1.0  0.52622  0.03778  0.55365  1.0000
  H   H1175     1.0  0.53217  0.26712  0.56492  1.0000
  H   H1176     1.0  0.51794  0.07190  0.53080  1.0000
  H   H1177     1.0  0.51339  0.23452  0.54316  1.0000
  H   H1178     1.0  0.59411  0.11118  0.47645  1.0000
  C   C662      1.0  0.67566  0.06530  0.48902  1.0000
  C   C663      1.0  0.52049  0.31946  0.51200  1.0000
  C   C664      1.0  0.60174  0.48195  0.50931  1.0000
  C   C665      1.0  0.53093  0.30855  0.57142  1.0000
  C   C666      1.0  0.62638  0.06999  0.49077  1.0000
  C   C667      1.0  0.52403  0.48750  0.51993  1.0000
  H   H1179     1.0  0.49922  0.28996  0.62064  1.0000
  H   H1180     1.0  0.52506  0.26437  0.51461  1.0000
  H   H1181     1.0  0.50938  0.31323  0.57223  1.0000
  H   H1182     1.0  0.52693  0.31535  0.64279  1.0000
  C   C668      1.0  0.53481  0.34231  0.50364  1.0000
  H   H1183     1.0  0.62640  0.42814  0.65735  1.0000
  C   C669      1.0  0.53154  0.31300  0.53115  1.0000
  H   H1184     1.0  0.55597  0.26722  0.52515  1.0000
  H   H1185     1.0  0.52276  0.30257  0.50248  1.0000
  H   H1186     1.0  0.73651  0.42305  0.63353  1.0000
  H   H1187     1.0  0.55239  0.47977  0.54219  1.0000
  H   H1188     1.0  0.52959  0.35407  0.66101  1.0000
  H   H1189     1.0  0.56114  0.01326  0.49826  1.0000
  H   H1190     1.0  0.53865  0.47678  0.51092  1.0000
  H   H1191     1.0  0.54089  0.32657  0.56720  1.0000
  H   H1192     1.0  0.64068  0.11012  0.48796  1.0000
  H   H1193     1.0  0.66892  0.01523  0.49064  1.0000
  H   H1194     1.0  0.69184  0.41623  0.61962  1.0000
  H   H1195     1.0  0.55351  0.31352  0.53065  1.0000
  H   H1196     1.0  0.51496  0.12733  0.51726  1.0000
  H   H1197     1.0  0.58286  0.10379  0.49911  1.0000
  H   H1198     1.0  0.52522  0.01493  0.53471  1.0000
  C   C670      1.0  0.53112  0.47713  0.53925  1.0000
  H   H1199     1.0  0.65412  0.03917  0.55299  1.0000
  C   C671      1.0  0.49424  0.28703  0.54232  1.0000
  H   H1200     1.0  0.50086  0.31356  0.65909  1.0000
  H   H1201     1.0  0.51935  0.48758  0.54991  1.0000
  H   H1202     1.0  0.49377  0.09833  0.64690  1.0000
  C   C672      1.0  0.52268  0.36918  0.65099  1.0000
  N   N37       1.0  0.52380  0.28743  0.53959  1.0000
  C   C673      1.0  0.64892  0.02537  0.49097  1.0000
  H   H1203     1.0  0.53406  0.09884  0.50922  1.0000
  H   H1204     1.0  0.58657  0.10428  0.65335  1.0000
  C   C674      1.0  0.68235  0.17568  0.66408  1.0000
  C   C675      1.0  0.50085  0.06289  0.52396  1.0000
  C   C676      1.0  0.75966  0.38660  0.65788  1.0000
  C   C677      1.0  0.54096  0.30167  0.59048  1.0000
  H   H1205     1.0  0.54836  0.23367  0.54710  1.0000
  H   H1206     1.0  0.53001  0.11524  0.47763  1.0000
  H   H1207     1.0  0.60578  0.48019  0.46372  1.0000
  H   H1208     1.0  0.72073  0.44305  0.65106  1.0000
  C   C678      1.0  0.50141  0.08438  0.58422  1.0000
  H   H1209     1.0  0.53251  0.19785  0.65371  1.0000
  H   H1210     1.0  0.56259  0.29694  0.59030  1.0000
  H   H1211     1.0  0.70022  0.45038  0.62075  1.0000
  H   H1212     1.0  0.58486  0.36899  0.63032  1.0000
  H   H1213     1.0  0.70990  0.34451  0.65431  1.0000
  C   C679      1.0  0.49474  0.11124  0.58667  1.0000
  H   H1214     1.0  0.68872  0.49116  0.45744  1.0000
  H   H1215     1.0  0.55603  0.21685  0.51528  1.0000
  H   H1216     1.0  0.50451  0.47993  0.51603  1.0000
  H   H1217     1.0  0.52460  0.38846  0.65806  1.0000
  H   H1218     1.0  0.70222  0.46781  0.42920  1.0000
  C   C680      1.0  0.71844  0.42589  0.64189  1.0000
  H   H1219     1.0  0.67726  0.43800  0.63680  1.0000
  H   H1220     1.0  0.80317  0.35268  0.64916  1.0000
  H   H1221     1.0  0.50965  0.05209  0.51207  1.0000
  H   H1222     1.0  0.50757  0.27217  0.64116  1.0000
  H   H1223     1.0  0.76716  0.40485  0.65183  1.0000
  H   H1224     1.0  0.75729  0.37288  0.64617  1.0000
  H   H1225     1.0  0.57581  0.34984  0.64963  1.0000
  H   H1226     1.0  0.68966  0.15617  0.65870  1.0000
  H   H1227     1.0  0.50554  0.44360  0.53861  1.0000
  C   C681      1.0  0.72389  0.34268  0.66589  1.0000
  C   C682      1.0  0.49611  0.28949  0.63553  1.0000
  H   H1228     1.0  0.74368  0.33686  0.66048  1.0000
  H   H1229     1.0  0.51139  0.48878  0.48496  1.0000
  H   H1230     1.0  0.49699  0.08402  0.49093  1.0000
  N   N38       1.0  0.49427  0.36542  0.64576  1.0000
  H   H1231     1.0  0.49445  0.10798  0.54068  1.0000
  H   H1232     1.0  0.52807  0.24244  0.66716  1.0000
  H   H1233     1.0  0.49726  0.22611  0.66649  1.0000
  N   N39       1.0  0.73347  0.39264  0.66697  1.0000
  Fe  Fe73      1.0  0.87062  0.38289  0.79583  1.0000
  S   S147      1.0  0.86120  0.37770  0.82528  1.0000
  S   S148      1.0  0.83868  0.38560  0.77343  1.0000
  Fe  Fe74      1.0  0.93206  0.37294  0.80289  1.0000
  S   S149      1.0  0.92546  0.36734  0.83271  1.0000
  S   S150      1.0  0.97257  0.35824  0.79184  1.0000
  Fe  Fe75      1.0  0.89129  0.34380  0.82428  1.0000
  S   S151      1.0  0.88368  0.30523  0.83757  1.0000
  Fe  Fe76      1.0  0.89641  0.40192  0.83072  1.0000
  S   S152      1.0  0.89795  0.43402  0.85216  1.0000
  S   S153      1.0  0.89877  0.34730  0.79463  1.0000
  S   S154      1.0  0.90474  0.40959  0.80111  1.0000
  Fe  Fe77      1.0  0.65540  0.37530  0.71316  1.0000
  S   S155      1.0  0.64383  0.38645  0.74184  1.0000
  S   S156      1.0  0.64512  0.40348  0.69020  1.0000
  Fe  Fe78      1.0  0.67614  0.32098  0.72408  1.0000
  S   S157      1.0  0.66497  0.32745  0.75313  1.0000
  S   S158      1.0  0.69700  0.28216  0.71686  1.0000
  Fe  Fe79      1.0  0.62661  0.34622  0.74233  1.0000
  S   S159      1.0  0.58667  0.33241  0.75246  1.0000
  Fe  Fe80      1.0  0.68344  0.36676  0.74988  1.0000
  S   S160      1.0  0.71205  0.38021  0.77221  1.0000
  S   S161      1.0  0.63675  0.33619  0.71347  1.0000
  S   S162      1.0  0.69610  0.35924  0.72109  1.0000
  Fe  Fe81      1.0  0.84417  0.18716  0.78851  1.0000
  S   S163      1.0  0.84416  0.14801  0.77445  1.0000
  S   S164      1.0  0.86099  0.22279  0.77622  1.0000
  Fe  Fe82      1.0  0.81937  0.16705  0.82272  1.0000
  S   S165      1.0  0.81667  0.12600  0.81111  1.0000
  S   S166      1.0  0.80910  0.18557  0.84998  1.0000
  Fe  Fe83      1.0  0.85858  0.13151  0.80123  1.0000
  S   S167      1.0  0.89472  0.10427  0.80805  1.0000
  Fe  Fe84      1.0  0.80232  0.14662  0.78522  1.0000
  S   S168      1.0  0.77045  0.13942  0.76339  1.0000
  S   S169      1.0  0.86129  0.17108  0.81427  1.0000
  S   S170      1.0  0.80238  0.18703  0.79781  1.0000
  Fe  Fe85      1.0  0.61770  0.15262  0.73275  1.0000
  S   S171      1.0  0.63539  0.14966  0.70505  1.0000
  S   S172      1.0  0.64404  0.15588  0.75813  1.0000
  Fe  Fe86      1.0  0.55962  0.15369  0.71728  1.0000
  S   S173      1.0  0.57451  0.15043  0.68857  1.0000
  S   S174      1.0  0.51553  0.16650  0.71964  1.0000
  Fe  Fe87      1.0  0.60448  0.12063  0.69924  1.0000
  S   S175      1.0  0.61887  0.08449  0.68371  1.0000
  Fe  Fe88      1.0  0.60384  0.17974  0.69697  1.0000
  S   S176      1.0  0.61003  0.21533  0.67988  1.0000
  S   S177      1.0  0.58802  0.12119  0.72767  1.0000
  S   S178      1.0  0.58788  0.18514  0.72498  1.0000
  Fe  Fe89      1.0  0.84796  0.19313  0.97540  1.0000
  S   S179      1.0  0.86328  0.18390  0.94731  1.0000
  S   S180      1.0  0.83051  0.23520  0.98075  1.0000
  Fe  Fe90      1.0  0.86015  0.13552  0.98868  1.0000
  S   S181      1.0  0.87687  0.12328  0.96178  1.0000
  H   H1234     1.0  0.92474  0.17022  0.86657  1.0000
  Fe  Fe91      1.0  0.89606  0.16193  0.96181  1.0000
  S   S182      1.0  0.93678  0.16146  0.95043  1.0000
  Fe  Fe92      1.0  0.84253  0.14608  0.94925  1.0000
  S   S183      1.0  0.82538  0.12543  0.92482  1.0000
  S   S184      1.0  0.82388  0.15631  0.97633  1.0000
  Fe  Fe93      1.0  0.87934  0.38913  0.98258  1.0000
  S   S185      1.0  0.89354  0.39691  0.95443  1.0000
  H   H1235     1.0  0.53489  0.32589  0.68571  1.0000
  N   N40       1.0  0.92041  0.03226  0.97322  1.0000
  S   S186      1.0  0.88573  0.46095  0.96294  1.0000
  H   H1236     1.0  0.53603  0.31018  0.75705  1.0000
  Fe  Fe94      1.0  0.86084  0.42800  0.95318  1.0000
  S   S187      1.0  0.83737  0.42702  0.92689  1.0000
  Fe  Fe95      1.0  0.91698  0.42870  0.96682  1.0000
  S   S188      1.0  0.95935  0.43636  0.96093  1.0000
  S   S189      1.0  0.84486  0.41923  0.98108  1.0000
  H   H1237     1.0  0.73263  0.19723  0.72685  1.0000
  C   C683      1.0  0.97806  0.40748  0.95542  1.0000
  C   C684      1.0  0.96675  0.38284  0.95546  1.0000
  H   H1238     1.0  0.94643  0.38123  0.95936  1.0000
  C   C685      1.0  0.84641  0.26571  0.98395  1.0000
  C   C686      1.0  0.93043  0.03695  0.99221  1.0000
  C   C687      1.0  0.50613  0.33878  0.74765  1.0000
  H   H1239     1.0  0.93225  0.03733  0.94539  1.0000
  H   H1240     1.0  0.73506  0.05483  0.78296  1.0000
  C   C688      1.0  0.91971  0.00277  0.97020  1.0000
  H   H1241     1.0  0.56518  0.38204  0.73621  1.0000
  H   H1242     1.0  0.70113  0.41050  0.69706  1.0000
  H   H1243     1.0  0.83181  0.33254  0.98107  1.0000
  H   H1244     1.0  0.70189  0.09660  0.74740  1.0000
  C   C689      1.0  0.95579  0.14011  0.96423  1.0000
  H   H1245     1.0  0.75064  0.07197  0.76484  1.0000
  C   C690      1.0  0.52256  0.37951  0.73645  1.0000
  C   C691      1.0  0.82218  0.14220  0.90393  1.0000
  C   C692      1.0  0.82510  0.16944  0.90281  1.0000
  C   C693      1.0  0.82111  0.18249  0.88617  1.0000
  C   C694      1.0  0.81488  0.16830  0.87043  1.0000
  C   C695      1.0  0.81252  0.14098  0.87142  1.0000
  C   C696      1.0  0.81601  0.12800  0.88816  1.0000
  H   H1246     1.0  0.82969  0.18053  0.91487  1.0000
  H   H1247     1.0  0.82275  0.20366  0.88550  1.0000
  H   H1248     1.0  0.80741  0.12996  0.85939  1.0000
  H   H1249     1.0  0.81357  0.10695  0.88896  1.0000
  C   C697      1.0  0.73547  0.14597  0.76241  1.0000
  C   C698      1.0  0.72287  0.14731  0.74533  1.0000
  C   C699      1.0  0.69513  0.15107  0.74379  1.0000
  C   C700      1.0  0.67934  0.15242  0.75933  1.0000
  C   C701      1.0  0.69195  0.15148  0.77642  1.0000
  C   C702      1.0  0.71979  0.14853  0.77797  1.0000
  H   H1250     1.0  0.73468  0.14531  0.73317  1.0000
  H   H1251     1.0  0.68594  0.15283  0.73057  1.0000
  H   H1252     1.0  0.68009  0.15284  0.78859  1.0000
  H   H1253     1.0  0.72905  0.14745  0.79123  1.0000
  C   C703      1.0  0.94898  0.09715  0.81208  1.0000
  C   C704      1.0  0.92815  0.11064  0.80269  1.0000
  C   C705      1.0  0.93444  0.12796  0.78883  1.0000
  H   H1254     1.0  0.94442  0.08327  0.82257  1.0000
  H   H1255     1.0  0.91874  0.13821  0.78129  1.0000
  H   H1256     1.0  0.88742  0.12831  0.92247  1.0000
  C   C706      1.0  0.78510  0.42851  0.88352  1.0000
  C   C707      1.0  0.98365  0.04527  0.94490  1.0000
  H   H1257     1.0  0.96976  0.19287  0.81100  1.0000
  C   C708      1.0  0.98192  0.11785  0.79357  1.0000
  C   C709      1.0  0.67522  0.26301  0.70457  1.0000
  C   C710      1.0  0.67497  0.23587  0.70771  1.0000
  C   C711      1.0  0.65511  0.22103  0.70001  1.0000
  C   C712      1.0  0.63616  0.23311  0.68851  1.0000
  C   C713      1.0  0.63758  0.25987  0.68434  1.0000
  C   C714      1.0  0.65692  0.27490  0.69254  1.0000
  H   H1258     1.0  0.68945  0.22654  0.71668  1.0000
  H   H1259     1.0  0.65434  0.20038  0.70319  1.0000
  C   C715      1.0  0.99082  0.23895  0.79875  1.0000
  H   H1260     1.0  0.65746  0.29572  0.68965  1.0000
  C   C716      1.0  0.88242  0.43026  0.87329  1.0000
  C   C717      1.0  0.86669  0.40893  0.87683  1.0000
  C   C718      1.0  0.85349  0.40750  0.89355  1.0000
  C   C719      1.0  0.85663  0.42691  0.90700  1.0000
  C   C720      1.0  0.87294  0.44776  0.90360  1.0000
  C   C721      1.0  0.88529  0.44972  0.88666  1.0000
  H   H1261     1.0  0.86428  0.39386  0.86659  1.0000
  H   H1262     1.0  0.84067  0.39147  0.89603  1.0000
  H   H1263     1.0  0.87502  0.46305  0.91375  1.0000
  H   H1264     1.0  0.89689  0.46657  0.88382  1.0000
  C   C722      1.0  0.88107  0.27977  0.82157  1.0000
  C   C723      1.0  0.89404  0.28071  0.80491  1.0000
  C   C724      1.0  0.88845  0.26267  0.79110  1.0000
  C   C725      1.0  0.87016  0.24340  0.79406  1.0000
  C   C726      1.0  0.85845  0.24136  0.81114  1.0000
  C   C727      1.0  0.86411  0.25943  0.82494  1.0000
  H   H1265     1.0  0.90823  0.29545  0.80258  1.0000
  H   H1266     1.0  0.89786  0.26404  0.77801  1.0000
  H   H1267     1.0  0.84411  0.22666  0.81351  1.0000
  H   H1268     1.0  0.85415  0.25854  0.83785  1.0000
  C   C728      1.0  0.80345  0.38436  0.77351  1.0000
  C   C729      1.0  0.79032  0.37725  0.75742  1.0000
  C   C730      1.0  0.76252  0.37575  0.75677  1.0000
  C   C731      1.0  0.74729  0.38173  0.77218  1.0000
  C   C732      1.0  0.76038  0.38909  0.78823  1.0000
  C   C733      1.0  0.78823  0.39018  0.78897  1.0000
  H   H1269     1.0  0.80179  0.37279  0.74534  1.0000
  H   H1270     1.0  0.75283  0.37032  0.74429  1.0000
  H   H1271     1.0  0.74884  0.39397  0.80020  1.0000
  H   H1272     1.0  0.79789  0.39578  0.80143  1.0000
  H   H1273     1.0  0.76916  0.46576  0.84009  1.0000
  H   H1274     1.0  0.80132  0.21662  0.92712  1.0000
  C   C734      1.0  0.95054  0.21929  0.99012  1.0000
  H   H1275     1.0  0.72978  0.31629  0.68903  1.0000
  H   H1276     1.0  0.98473  0.18674  0.76887  1.0000
  C   C735      1.0  0.93825  0.04367  0.95924  1.0000
  C   C736      1.0  0.55400  0.34480  0.74691  1.0000
  C   C737      1.0  0.97570  0.10112  0.80782  1.0000
  H   H1277     1.0  0.78063  0.42568  0.85414  1.0000
  N   N41       1.0  0.85353  0.27839  0.92706  1.0000
  C   C738      1.0  0.87767  0.27640  0.93917  1.0000
  C   C739      1.0  0.84031  0.30556  0.92928  1.0000
  C   C740      1.0  0.83429  0.25871  0.93366  1.0000
  C   C741      1.0  0.85975  0.27238  0.90740  1.0000
  C   C742      1.0  0.88718  0.28004  0.90042  1.0000
  C   C743      1.0  0.98768  0.33290  0.84070  1.0000
  H   H1278     1.0  0.73009  0.44002  0.71421  1.0000
  C   C744      1.0  0.85704  0.32942  0.92480  1.0000
  C   C745      1.0  0.84284  0.35531  0.93065  1.0000
  H   H1279     1.0  0.52882  0.27681  0.73095  1.0000
  H   H1280     1.0  0.84177  0.45231  0.85016  1.0000
  C   C746      1.0  0.80710  0.25879  0.92386  1.0000
  H   H1281     1.0  0.87274  0.28430  0.95290  1.0000
  H   H1282     1.0  0.89332  0.28918  0.93441  1.0000
  H   H1283     1.0  0.82253  0.30785  0.92045  1.0000
  H   H1284     1.0  0.83313  0.30818  0.94350  1.0000
  H   H1285     1.0  0.83023  0.26203  0.94827  1.0000
  H   H1286     1.0  0.68037  0.00394  0.68156  1.0000
  H   H1287     1.0  0.93146  0.25807  0.93875  1.0000
  H   H1288     1.0  0.84429  0.28193  0.89849  1.0000
  H   H1289     1.0  0.90299  0.26653  0.90609  1.0000
  H   H1290     1.0  0.89181  0.30044  0.90422  1.0000
  C   C747      1.0  0.73147  0.06883  0.77158  1.0000
  H   H1291     1.0  0.66273  0.09139  0.76003  1.0000
  H   H1292     1.0  0.87874  0.23767  0.95197  1.0000
  H   H1293     1.0  0.53166  0.25926  0.76098  1.0000
  H   H1294     1.0  0.87637  0.32857  0.93190  1.0000
  H   H1295     1.0  0.86014  0.33049  0.90994  1.0000
  H   H1296     1.0  0.83970  0.35572  0.94558  1.0000
  H   H1297     1.0  0.85524  0.37198  0.92720  1.0000
  H   H1298     1.0  0.82351  0.35821  0.92359  1.0000
  H   H1299     1.0  0.61514  0.09365  0.76678  1.0000
  H   H1300     1.0  0.97987  0.31598  0.84815  1.0000
  H   H1301     1.0  0.85783  0.43908  0.81922  1.0000
  H   H1302     1.0  0.97800  0.08751  0.86899  1.0000
  H   H1303     1.0  0.69560  0.32455  0.68368  1.0000
  C   C748      1.0  0.88472  0.29142  0.99103  1.0000
  H   H1304     1.0  0.98232  0.44466  0.86144  1.0000
  C   C749      1.0  0.87009  0.31543  0.98814  1.0000
  C   C750      1.0  0.70587  0.09722  0.70265  1.0000
  N   N42       1.0  0.60663  0.24920  0.76543  1.0000
  C   C751      1.0  0.61449  0.27445  0.77448  1.0000
  C   C752      1.0  0.59240  0.25615  0.74793  1.0000
  C   C753      1.0  0.58710  0.23656  0.77773  1.0000
  C   C754      1.0  0.62975  0.22982  0.76221  1.0000
  C   C755      1.0  0.65686  0.24146  0.75807  1.0000
  C   C756      1.0  0.62572  0.27156  0.79404  1.0000
  C   C757      1.0  0.57503  0.21086  0.77050  1.0000
  C   C758      1.0  0.60871  0.26851  0.73276  1.0000
  C   C759      1.0  0.59074  0.27795  0.71716  1.0000
  C   C760      1.0  0.67756  0.21932  0.75430  1.0000
  C   C761      1.0  0.64081  0.29574  0.79963  1.0000
  C   C762      1.0  0.55888  0.19786  0.78512  1.0000
  H   H1305     1.0  0.59710  0.28870  0.77540  1.0000
  H   H1306     1.0  0.62894  0.28471  0.76614  1.0000
  H   H1307     1.0  0.58445  0.23838  0.74149  1.0000
  H   H1308     1.0  0.57512  0.26995  0.75083  1.0000
  H   H1309     1.0  0.57047  0.25094  0.78110  1.0000
  H   H1310     1.0  0.59668  0.23113  0.79089  1.0000
  H   H1311     1.0  0.63317  0.21678  0.77422  1.0000
  H   H1312     1.0  0.62509  0.21609  0.75089  1.0000
  H   H1313     1.0  0.66419  0.25295  0.76973  1.0000
  H   H1314     1.0  0.65602  0.25474  0.74623  1.0000
  H   H1315     1.0  0.60921  0.26981  0.80377  1.0000
  H   H1316     1.0  0.63909  0.25371  0.79544  1.0000
  H   H1317     1.0  0.59071  0.19624  0.76603  1.0000
  H   H1318     1.0  0.56137  0.21507  0.75897  1.0000
  H   H1319     1.0  0.61948  0.28571  0.73761  1.0000
  H   H1320     1.0  0.62298  0.25344  0.72705  1.0000
  H   H1321     1.0  0.58172  0.26084  0.71045  1.0000
  H   H1322     1.0  0.57505  0.29212  0.72219  1.0000
  H   H1323     1.0  0.60240  0.28831  0.70696  1.0000
  H   H1324     1.0  0.67072  0.20600  0.74340  1.0000
  H   H1325     1.0  0.69598  0.22789  0.74976  1.0000
  H   H1326     1.0  0.68179  0.20774  0.76681  1.0000
  H   H1327     1.0  0.62790  0.31402  0.79845  1.0000
  H   H1328     1.0  0.64759  0.29372  0.81393  1.0000
  H   H1329     1.0  0.65838  0.29758  0.79087  1.0000
  C   C763      1.0  0.87922  0.04137  0.95281  1.0000
  H   H1330     1.0  0.57168  0.19182  0.79681  1.0000
  H   H1331     1.0  0.82301  0.36047  0.66866  1.0000
  H   H1332     1.0  0.84936  0.09096  0.83662  1.0000
  N   N43       1.0  0.77486  0.23169  0.73767  1.0000
  C   C764      1.0  0.75445  0.23062  0.75240  1.0000
  C   C765      1.0  0.76154  0.22638  0.71975  1.0000
  C   C766      1.0  0.79676  0.21120  0.74167  1.0000
  C   C767      1.0  0.78656  0.25849  0.73700  1.0000
  C   C768      1.0  0.76298  0.24019  0.77144  1.0000
  C   C769      1.0  0.81682  0.20540  0.72612  1.0000
  C   C770      1.0  0.74986  0.19874  0.71773  1.0000
  C   C771      1.0  0.74021  0.19412  0.69836  1.0000
  C   C772      1.0  0.74223  0.23403  0.78560  1.0000
  C   C773      1.0  0.83758  0.18405  0.73163  1.0000
  H   H1333     1.0  0.74810  0.20999  0.75397  1.0000
  H   H1334     1.0  0.73633  0.24250  0.74854  1.0000
  H   H1335     1.0  0.74457  0.24081  0.71753  1.0000
  H   H1336     1.0  0.77517  0.22965  0.70828  1.0000
  H   H1337     1.0  0.78856  0.19210  0.74576  1.0000
  H   H1338     1.0  0.80859  0.21729  0.75363  1.0000
  H   H1339     1.0  0.79812  0.26219  0.74957  1.0000
  H   H1340     1.0  0.78201  0.23049  0.77570  1.0000
  H   H1341     1.0  0.76529  0.26184  0.77149  1.0000
  H   H1342     1.0  0.82735  0.22336  0.72265  1.0000
  H   H1343     1.0  0.80693  0.19813  0.71374  1.0000
  H   H1344     1.0  0.76452  0.18255  0.72106  1.0000
  H   H1345     1.0  0.75701  0.19392  0.68873  1.0000
  C   C774      1.0  0.84349  0.31436  0.98307  1.0000
  H   H1346     1.0  0.72531  0.20983  0.69434  1.0000
  H   H1347     1.0  0.74882  0.24053  0.79919  1.0000
  H   H1348     1.0  0.72302  0.24446  0.78234  1.0000
  H   H1349     1.0  0.73948  0.21240  0.78616  1.0000
  H   H1350     1.0  0.84904  0.19059  0.74358  1.0000
  H   H1351     1.0  0.82804  0.16538  0.73493  1.0000
  H   H1352     1.0  0.85156  0.18009  0.72027  1.0000
  N   N44       1.0  0.79169  0.31250  0.81147  1.0000
  C   C775      1.0  0.76365  0.32395  0.81200  1.0000
  C   C776      1.0  0.80847  0.32821  0.82422  1.0000
  C   C777      1.0  0.80191  0.31607  0.79243  1.0000
  C   C778      1.0  0.79386  0.28341  0.81602  1.0000
  C   C779      1.0  0.77352  0.27308  0.82965  1.0000
  C   C780      1.0  0.74507  0.31395  0.79690  1.0000
  C   C781      1.0  0.83190  0.31019  0.78967  1.0000
  C   C782      1.0  0.80147  0.32738  0.84463  1.0000
  C   C783      1.0  0.81805  0.34615  0.85572  1.0000
  C   C784      1.0  0.78157  0.24513  0.83581  1.0000
  C   C785      1.0  0.71608  0.32071  0.80121  1.0000
  C   C786      1.0  0.83916  0.30839  0.76961  1.0000
  H   H1353     1.0  0.76348  0.34584  0.81075  1.0000
  H   H1354     1.0  0.75429  0.32065  0.82529  1.0000
  H   H1355     1.0  0.82950  0.32090  0.82366  1.0000
  H   H1356     1.0  0.80815  0.34926  0.81985  1.0000
  H   H1357     1.0  0.79748  0.33657  0.78777  1.0000
  H   H1358     1.0  0.79157  0.30318  0.78271  1.0000
  H   H1359     1.0  0.79217  0.27094  0.80360  1.0000
  H   H1360     1.0  0.81393  0.27818  0.82138  1.0000
  H   H1361     1.0  0.75372  0.27251  0.82322  1.0000
  H   H1362     1.0  0.77135  0.28560  0.84192  1.0000
  H   H1363     1.0  0.74952  0.32352  0.78379  1.0000
  H   H1364     1.0  0.74769  0.29228  0.79503  1.0000
  H   H1365     1.0  0.83816  0.29129  0.79612  1.0000
  H   H1366     1.0  0.84329  0.32628  0.79570  1.0000
  H   H1367     1.0  0.78043  0.33313  0.84708  1.0000
  H   H1368     1.0  0.80607  0.30725  0.84997  1.0000
  H   H1369     1.0  0.81393  0.36692  0.85144  1.0000
  H   H1370     1.0  0.81322  0.34446  0.87033  1.0000
  H   H1371     1.0  0.83945  0.34090  0.85408  1.0000
  H   H1372     1.0  0.78358  0.23146  0.82402  1.0000
  H   H1373     1.0  0.80071  0.24496  0.84326  1.0000
  H   H1374     1.0  0.71284  0.34227  0.80370  1.0000
  H   H1375     1.0  0.70362  0.31524  0.78946  1.0000
  H   H1376     1.0  0.70984  0.30972  0.81332  1.0000
  H   H1377     1.0  0.83043  0.29095  0.76319  1.0000
  H   H1378     1.0  0.83231  0.32667  0.76240  1.0000
  H   H1379     1.0  0.86098  0.30611  0.76829  1.0000
  C   C787      1.0  0.89326  0.04545  0.97131  1.0000
  H   H1380     1.0  0.72660  0.07830  0.73540  1.0000
  H   H1381     1.0  0.80116  0.25913  0.72582  1.0000
  H   H1382     1.0  0.77143  0.23657  0.92351  1.0000
  C   C788      1.0  0.50559  0.30600  0.70164  1.0000
  H   H1383     1.0  0.81323  0.41994  0.86275  1.0000
  H   H1384     1.0  0.95660  0.28345  0.80400  1.0000
  H   H1385     1.0  0.75010  0.28271  0.74369  1.0000
  H   H1386     1.0  0.97645  0.04567  0.97356  1.0000
  H   H1387     1.0  0.54252  0.32324  0.70957  1.0000
  H   H1388     1.0  0.88198  0.09966  0.89513  1.0000
  H   H1389     1.0  0.55008  0.17990  0.77942  1.0000
  H   H1390     1.0  0.82016  0.02401  0.99603  1.0000
  H   H1391     1.0  0.87931  0.12866  0.84396  1.0000
  H   H1392     1.0  0.94771  0.27630  0.82702  1.0000
  H   H1393     1.0  0.65923  0.35240  0.67384  1.0000
  C   C789      1.0  0.69905  0.12066  0.69029  1.0000
  H   H1394     1.0  0.92269  0.12074  0.92191  1.0000
  C   C790      1.0  0.91876  0.36614  0.91007  1.0000
  H   H1395     1.0  0.51892  0.39923  0.73117  1.0000
  C   C791      1.0  0.79103  0.23589  0.93035  1.0000
  H   H1396     1.0  0.93899  0.21282  0.74875  1.0000
  H   H1397     1.0  0.54261  0.21162  0.78989  1.0000
  C   C792      1.0  0.51640  0.27831  0.69534  1.0000
  H   H1398     1.0  0.53668  0.24196  0.72872  1.0000
  C   C793      1.0  0.95864  0.43948  0.89561  1.0000
  C   C794      1.0  0.76660  0.28231  0.73387  1.0000
  H   H1399     1.0  0.98159  0.28230  0.82158  1.0000
  C   C795      1.0  0.96818  0.03616  0.96130  1.0000
  H   H1400     1.0  0.76640  0.23768  0.84505  1.0000
  H   H1401     1.0  0.88353  0.14581  0.89056  1.0000
  C   C796      1.0  0.97638  0.12438  0.95677  1.0000
  H   H1402     1.0  0.81585  0.42137  0.83140  1.0000
  H   H1403     1.0  0.71983  0.03808  0.75349  1.0000
  H   H1404     1.0  0.75815  0.28150  0.71996  1.0000
  H   H1405     1.0  0.98254  0.22124  0.76436  1.0000
  C   C797      1.0  0.51406  0.23018  0.69407  1.0000
  C   C798      1.0  0.96106  0.13103  0.78408  1.0000
  C   C799      1.0  0.64879  0.08553  0.74926  1.0000
  H   H1406     1.0  0.92756  0.34717  0.90474  1.0000
  H   H1407     1.0  0.90476  0.21582  0.86067  1.0000
  C   C800      1.0  0.77998  0.30860  0.73567  1.0000
  H   H1408     1.0  0.69552  0.99364  0.70271  1.0000
  C   C801      1.0  0.62386  0.07689  0.75866  1.0000
  H   H1409     1.0  0.53436  0.22851  0.69992  1.0000
  H   H1410     1.0  0.92345  0.36777  0.92476  1.0000
  H   H1411     1.0  0.69511  0.13888  0.69846  1.0000
  H   H1412     1.0  0.89345  0.20432  0.83882  1.0000
  H   H1413     1.0  0.92645  0.22826  0.95125  1.0000
  C   C802      1.0  0.97886  0.20636  0.77496  1.0000
  C   C803      1.0  0.90241  0.13476  0.88724  1.0000
  H   H1414     1.0  0.51718  0.34670  0.70201  1.0000
  C   C804      1.0  0.88847  0.20624  0.85344  1.0000
  C   C805      1.0  0.82248  0.45990  0.84447  1.0000
  H   H1415     1.0  0.87017  0.21904  0.85470  1.0000
  H   H1416     1.0  0.89698  0.36606  0.90842  1.0000
  C   C806      1.0  0.85048  0.05198  0.95339  1.0000
  H   H1417     1.0  0.97549  0.38534  0.86955  1.0000
  S   S190      1.0  0.88263  0.17324  0.98986  1.0000
  H   H1418     1.0  0.93585  0.06566  0.95907  1.0000
  C   C807      1.0  0.95701  0.12617  0.86979  1.0000
  H   H1419     1.0  0.82778  0.07204  0.99336  1.0000
  H   H1420     1.0  0.91759  0.09425  0.89409  1.0000
  C   C808      1.0  0.77618  0.40033  0.88566  1.0000
  H   H1421     1.0  0.91352  0.15925  0.84492  1.0000
  H   H1422     1.0  0.84289  0.23818  0.93248  1.0000
  H   H1423     1.0  0.68139  0.11684  0.68184  1.0000
  S   S191      1.0  0.90544  0.41941  0.99508  1.0000
  C   C809      1.0  0.87311  0.26675  0.98874  1.0000
  C   C810      1.0  0.54889  0.36979  0.73931  1.0000
  H   H1424     1.0  0.88931  0.05215  0.94198  1.0000
  C   C811      1.0  0.94228  0.47558  0.91753  1.0000
  C   C812      1.0  0.96867  0.24374  0.81309  1.0000
  H   H1425     1.0  0.79712  0.30926  0.72637  1.0000
  H   H1426     1.0  0.97687  0.33484  0.82761  1.0000
  H   H1427     1.0  0.91277  0.20044  0.76221  1.0000
  C   C813      1.0  0.52093  0.25692  0.73247  1.0000
  H   H1428     1.0  0.64325  0.10320  0.74104  1.0000
  H   H1429     1.0  0.78791  0.23722  0.94527  1.0000
  H   H1430     1.0  0.83835  0.46498  0.80798  1.0000
  C   C814      1.0  0.51685  0.22649  0.67323  1.0000
  C   C815      1.0  0.90843  0.16020  0.85965  1.0000
  H   H1431     1.0  0.82602  0.47995  0.83920  1.0000
  H   H1432     1.0  0.76941  0.39747  0.89980  1.0000
  C   C816      1.0  0.75460  0.48250  0.86487  1.0000
  C   C817      1.0  0.95504  0.44776  0.91577  1.0000
  C   C818      1.0  0.69694  0.04387  0.71849  1.0000
  H   H1433     1.0  0.51836  0.27971  0.68040  1.0000
  H   H1434     1.0  0.93255  0.11626  0.84671  1.0000
  C   C819      1.0  0.95148  0.14003  0.98297  1.0000
  H   H1435     1.0  0.92438  0.38646  0.88516  1.0000
  H   H1436     1.0  0.76848  0.44223  0.88739  1.0000
  H   H1437     1.0  0.80119  0.43118  0.89354  1.0000
  H   H1438     1.0  0.92246  0.47666  0.91108  1.0000
  H   H1439     1.0  0.91807  0.14671  0.89339  1.0000
  C   C820      1.0  0.81657  0.44249  0.82761  1.0000
  H   H1440     1.0  0.93988  0.48071  0.93214  1.0000
  C   C821      1.0  0.88371  0.17929  0.86166  1.0000
  C   C822      1.0  0.93069  0.11668  0.86178  1.0000
  H   H1441     1.0  0.78669  0.31174  0.74983  1.0000
  H   H1442     1.0  0.87861  0.18274  0.87611  1.0000
  C   C823      1.0  0.83813  0.44455  0.81333  1.0000
  C   C824      1.0  0.89028  0.24820  0.94175  1.0000
  H   H1443     1.0  0.76560  0.32500  0.73211  1.0000
  H   H1444     1.0  0.50407  0.21276  0.69935  1.0000
  H   H1445     1.0  0.79757  0.44863  0.82106  1.0000
  N   N45       1.0  0.90590  0.13262  0.86696  1.0000
  H   H1446     1.0  0.53699  0.27497  0.70041  1.0000
  H   H1447     1.0  0.92964  0.09572  0.86577  1.0000
  H   H1448     1.0  0.83440  0.43096  0.80181  1.0000
  H   H1449     1.0  0.86638  0.17133  0.85468  1.0000
  H   H1450     1.0  0.88472  0.24858  0.99096  1.0000
  Fe  Fe96      1.0  0.87257  0.45062  0.99107  1.0000
  H   H1451     1.0  0.97468  0.23456  0.82620  1.0000
  H   H1452     1.0  0.67658  0.10959  0.72237  1.0000
  H   H1453     1.0  0.97952  0.12416  0.94225  1.0000
  H   H1454     1.0  0.69843  0.02709  0.72816  1.0000
  H   H1455     1.0  0.80949  0.25683  0.90894  1.0000
  H   H1456     1.0  0.98549  0.17768  0.97641  1.0000
  H   H1457     1.0  0.91823  0.40756  0.90452  1.0000
  C   C825      1.0  0.91863  0.24880  0.94882  1.0000
  H   H1458     1.0  0.94657  0.07619  0.98777  1.0000
  C   C826      1.0  0.70700  0.07656  0.74189  1.0000
  C   C827      1.0  0.97026  0.40653  0.87222  1.0000
  H   H1459     1.0  0.79949  0.47610  0.88695  1.0000
  H   H1460     1.0  0.89660  0.08373  0.84555  1.0000
  H   H1461     1.0  0.81096  0.28925  0.97776  1.0000
  C   C828      1.0  0.53180  0.20050  0.66865  1.0000
  H   H1462     1.0  0.88028  0.03904  0.98234  1.0000
  C   C829      1.0  0.92919  0.38944  0.89970  1.0000
  H   H1463     1.0  0.78746  0.39007  0.68077  1.0000
  C   C830      1.0  0.95936  0.39141  0.90271  1.0000
  H   H1464     1.0  0.73091  0.17473  0.69752  1.0000
  C   C831      1.0  0.68213  0.09110  0.71491  1.0000
  H   H1465     1.0  0.83072  0.46272  0.88049  1.0000
  N   N46       1.0  0.68671  0.06865  0.72806  1.0000
  H   H1466     1.0  0.84136  0.05040  0.93971  1.0000
  H   H1467     1.0  0.50162  0.11875  0.73939  1.0000
  C   C832      1.0  0.88200  0.12105  0.85806  1.0000
  C   C833      1.0  0.96338  0.27326  0.81662  1.0000
  H   H1468     1.0  0.96113  0.14622  0.86498  1.0000
  H   H1469     1.0  0.90523  0.29193  0.99512  1.0000
  H   H1470     1.0  0.69319  0.05478  0.76573  1.0000
  H   H1471     1.0  0.94942  0.40940  0.86749  1.0000
  C   C834      1.0  0.52635  0.32665  0.69952  1.0000
  H   H1472     1.0  0.72328  0.10235  0.71088  1.0000
  H   H1473     1.0  0.52187  0.18351  0.67464  1.0000
  C   C835      1.0  0.77779  0.47660  0.85167  1.0000
  H   H1474     1.0  0.72365  0.08799  0.77729  1.0000
  H   H1475     1.0  0.94981  0.23536  0.80896  1.0000
  H   H1476     1.0  0.89036  0.23670  0.92889  1.0000
  H   H1477     1.0  0.93578  0.15238  0.98882  1.0000
  H   H1478     1.0  0.51099  0.23257  0.75537  1.0000
  H   H1479     1.0  0.85879  0.25078  0.90457  1.0000
  C   C836      1.0  0.88843  0.27784  0.87981  1.0000
  H   H1480     1.0  0.76117  0.49142  0.87778  1.0000
  H   H1481     1.0  0.66480  0.08773  0.70602  1.0000
  H   H1482     1.0  0.85580  0.05986  0.84783  1.0000
  H   H1483     1.0  0.71749  0.04612  0.71365  1.0000
  C   C837      1.0  0.98197  0.35997  0.95083  1.0000
  H   H1484     1.0  0.79288  0.38589  0.88300  1.0000
  C   C838      1.0  0.98166  0.41681  0.83956  1.0000
  H   H1485     1.0  0.87313  0.29144  0.87365  1.0000
  H   H1486     1.0  0.94223  0.19422  0.78834  1.0000
  H   H1487     1.0  0.62864  0.06012  0.76793  1.0000
  H   H1488     1.0  0.74447  0.46405  0.86768  1.0000
  H   H1489     1.0  0.75958  0.39653  0.87624  1.0000
  C   C839      1.0  0.88199  0.09051  0.85598  1.0000
  H   H1490     1.0  0.86377  0.12771  0.86540  1.0000
  H   H1491     1.0  0.71592  0.12391  0.68113  1.0000
  H   H1492     1.0  0.88504  0.25736  0.87527  1.0000
  H   H1493     1.0  0.94220  0.43416  0.92295  1.0000
  H   H1494     1.0  0.93976  0.20428  0.98235  1.0000
  H   H1495     1.0  0.94049  0.17876  0.75619  1.0000
  H   H1496     1.0  0.60896  0.07090  0.74851  1.0000
  H   H1497     1.0  0.83898  0.04036  0.96303  1.0000
  H   H1498     1.0  0.64544  0.05971  0.72636  1.0000
  H   H1499     1.0  0.83969  0.08698  0.86005  1.0000
  H   H1500     1.0  0.79524  0.27723  0.92692  1.0000
  H   H1501     1.0  0.98008  0.06680  0.94271  1.0000
  H   H1502     1.0  0.90812  0.28340  0.87496  1.0000
  H   H1503     1.0  0.49717  0.26626  0.75655  1.0000
  C   C840      1.0  0.94847  0.20757  0.77748  1.0000
  H   H1504     1.0  0.73588  0.36522  0.68949  1.0000
  H   H1505     1.0  0.87907  0.02024  0.94891  1.0000
  C   C841      1.0  0.85499  0.08164  0.84976  1.0000
  H   H1506     1.0  0.67716  0.05007  0.69180  1.0000
  H   H1507     1.0  0.97181  0.01451  0.96244  1.0000
  C   C842      1.0  0.90304  0.11347  0.91817  1.0000
  H   H1508     1.0  0.62292  0.26933  0.67554  1.0000
  H   H1509     1.0  0.96045  0.42082  0.83615  1.0000
  H   H1510     1.0  0.91920  0.26005  0.96179  1.0000
  C   C843      1.0  0.53242  0.32936  0.75096  1.0000
  H   H1511     1.0  0.74987  0.40773  0.69190  1.0000
  N   N47       1.0  0.80169  0.46132  0.85915  1.0000
  H   H1512     1.0  0.94130  0.22812  0.78054  1.0000
  C   C844      1.0  0.66075  0.06319  0.73689  1.0000
  H   H1513     1.0  0.87807  0.99539  0.97668  1.0000
  H   H1514     1.0  0.96555  0.14355  0.77281  1.0000
  C   C845      1.0  0.79521  0.43335  0.86398  1.0000
  C   C846      1.0  0.67995  0.03455  0.70226  1.0000
  H   H1515     1.0  0.93887  0.44065  0.88901  1.0000
  H   H1516     1.0  0.88716  0.08011  0.86872  1.0000
  H   H1517     1.0  0.96304  0.39372  0.91752  1.0000
  H   H1518     1.0  0.96978  0.45523  0.88911  1.0000
  C   C847      1.0  0.71168  0.05765  0.75817  1.0000
  H   H1519     1.0  0.71155  0.08013  0.69380  1.0000
  H   H1520     1.0  0.95327  0.23676  0.98144  1.0000
  C   C848      1.0  0.93447  0.19938  0.76005  1.0000
  H   H1521     1.0  0.66015  0.02908  0.70690  1.0000
  H   H1522     1.0  0.96854  0.37170  0.89913  1.0000
  H   H1523     1.0  0.84919  0.07308  0.95759  1.0000
  H   H1524     1.0  0.66246  0.04458  0.74485  1.0000
  H   H1525     1.0  0.89407  0.06720  0.97316  1.0000
  C   C849      1.0  0.90127  0.10855  0.89775  1.0000
  C   C850      1.0  0.83168  0.28972  0.98129  1.0000
  H   H1526     1.0  0.90015  0.09483  0.92557  1.0000
  N   N48       1.0  0.97225  0.41276  0.89223  1.0000
  H   H1527     1.0  0.97317  0.34093  0.95101  1.0000
  H   H1528     1.0  0.95652  0.12632  0.88485  1.0000
  H   H1529     1.0  0.91712  0.99805  0.95555  1.0000
  C   C851      1.0  0.50096  0.36417  0.74065  1.0000
  H   H1530     1.0  0.97429  0.44792  0.92293  1.0000
  C   C852      1.0  0.81342  0.47488  0.87540  1.0000
  H   H1531     1.0  0.55239  0.20079  0.67386  1.0000
  C   C853      1.0  0.98703  0.42325  0.85948  1.0000
  N   N49       1.0  0.49988  0.25546  0.70029  1.0000
  H   H1532     1.0  0.98043  0.18012  0.84247  1.0000
  C   C854      1.0  0.51468  0.25353  0.75255  1.0000
  H   H1533     1.0  0.98721  0.39581  0.83648  1.0000
  H   H1534     1.0  0.95486  0.49028  0.91118  1.0000
  C   C855      1.0  0.73677  0.41467  0.68056  1.0000
  H   H1535     1.0  0.69809  0.45548  0.70947  1.0000
  H   H1536     1.0  0.99062  0.20941  0.96872  1.0000
  H   H1537     1.0  0.49948  0.30623  0.71603  1.0000
  H   H1538     1.0  0.66754  0.17270  0.67483  1.0000
  C   C856      1.0  0.96885  0.12554  0.99436  1.0000
  H   H1539     1.0  0.98384  0.35125  0.84867  1.0000
  C   C857      1.0  0.99008  0.19035  0.80558  1.0000
  C   C858      1.0  0.71688  0.44786  0.70322  1.0000
  S   S192      1.0  0.88570  0.34594  0.99195  1.0000
  H   H1540     1.0  0.98654  0.25275  0.78727  1.0000
  H   H1541     1.0  0.99074  0.17058  0.79903  1.0000
  H   H1542     1.0  0.97781  0.03449  0.93246  1.0000
  C   C859      1.0  0.69302  0.01027  0.69300  1.0000
  C   C860      1.0  0.98033  0.10788  0.86393  1.0000
  H   H1543     1.0  0.98195  0.10733  0.84890  1.0000
  H   H1544     1.0  0.71260  0.01496  0.68748  1.0000
  C   C861      1.0  0.71541  0.31999  0.67778  1.0000
  H   H1545     1.0  0.70344  0.37287  0.68167  1.0000
  H   H1546     1.0  0.98471  0.45051  0.99420  1.0000
  C   C862      1.0  0.49589  0.25395  0.72056  1.0000
  C   C863      1.0  0.93413  0.06615  0.99761  1.0000
  H   H1547     1.0  0.69920  0.18582  0.67017  1.0000
  C   C864      1.0  0.71103  0.42608  0.68956  1.0000
  C   C865      1.0  0.72406  0.36890  0.67690  1.0000
  H   H1548     1.0  0.71442  0.30164  0.66954  1.0000
  H   H1549     1.0  0.77655  0.35715  0.67742  1.0000
  H   H1550     1.0  0.72623  0.46450  0.69640  1.0000
  H   H1551     1.0  0.99143  0.09049  0.81507  1.0000
  H   H1552     1.0  0.69702  0.43474  0.67935  1.0000
  C   C866      1.0  0.78219  0.37528  0.67036  1.0000
  H   H1553     1.0  0.49638  0.39370  0.68081  1.0000
  H   H1554     1.0  0.94942  0.02552  0.99461  1.0000
  C   C867      1.0  0.97732  0.20775  0.99661  1.0000
  H   H1555     1.0  0.74707  0.43129  0.67437  1.0000
  C   C868      1.0  0.99288  0.10884  0.96811  1.0000
  C   C869      1.0  0.98969  0.11011  0.98692  1.0000
  C   C870      1.0  0.64297  0.39130  0.66778  1.0000
  H   H1556     1.0  0.93902  0.99292  0.97401  1.0000
  H   H1557     1.0  0.91480  0.07727  0.99840  1.0000
  Fe  Fe97      1.0  0.84299  0.84613  0.22755  1.0000
  S   S193      1.0  0.83195  0.82455  0.20222  1.0000
  S   S194      1.0  0.81391  0.85062  0.25171  1.0000
  Fe  Fe98      1.0  0.90112  0.85156  0.21403  1.0000
  S   S195      1.0  0.89293  0.83076  0.18780  1.0000
  S   S196      1.0  0.94294  0.86742  0.21682  1.0000
  Fe  Fe99      1.0  0.85449  0.85422  0.18692  1.0000
  S   S197      1.0  0.83680  0.86131  0.15907  1.0000
  Fe  Fe100     1.0  0.87114  0.80298  0.20477  1.0000
  S   S198      1.0  0.87337  0.76075  0.19597  1.0000
  S   S199      1.0  0.86348  0.87797  0.21205  1.0000
  S   S200      1.0  0.88149  0.82168  0.23138  1.0000
  C   C871      1.0  0.92239  0.87961  0.10895  1.0000
  S   S201      1.0  0.63132  0.87569  0.30364  1.0000
  Fe  Fe101     1.0  0.65228  0.80282  0.31232  1.0000
  S   S202      1.0  0.63378  0.81620  0.28619  1.0000
  H   H1558     1.0  0.66328  0.54878  0.24476  1.0000
  Fe  Fe102     1.0  0.66209  0.84941  0.28866  1.0000
  S   S203      1.0  0.68742  0.85789  0.26357  1.0000
  Fe  Fe103     1.0  0.60479  0.84079  0.30326  1.0000
  S   S204      1.0  0.55980  0.83542  0.30565  1.0000
  S   S205      1.0  0.68152  0.83430  0.31416  1.0000
  H   H1559     1.0  0.91970  0.54383  0.24990  1.0000
  Fe  Fe104     1.0  0.81886  0.65037  0.24061  1.0000
  S   S206      1.0  0.82968  0.61310  0.25570  1.0000
  S   S207      1.0  0.82181  0.68972  0.25422  1.0000
  Fe  Fe105     1.0  0.80331  0.62182  0.20630  1.0000
  S   S208      1.0  0.81229  0.58231  0.21895  1.0000
  S   S209      1.0  0.78663  0.62635  0.17783  1.0000
  Fe  Fe106     1.0  0.79135  0.59948  0.24378  1.0000
  S   S210      1.0  0.76100  0.57726  0.26011  1.0000
  Fe  Fe107     1.0  0.84958  0.60016  0.22951  1.0000
  S   S211      1.0  0.89025  0.58076  0.22294  1.0000
  S   S212      1.0  0.77994  0.63765  0.23022  1.0000
  S   S213      1.0  0.84127  0.63864  0.21541  1.0000
  H   H1560     1.0  0.77960  0.97905  0.02421  1.0000
  S   S214      1.0  0.58437  0.59513  0.32148  1.0000
  Fe  Fe108     1.0  0.57877  0.65687  0.29163  1.0000
  S   S215      1.0  0.56827  0.61715  0.28098  1.0000
  S   S216      1.0  0.58142  0.69321  0.27486  1.0000
  Fe  Fe109     1.0  0.54763  0.61367  0.30802  1.0000
  C   C872      1.0  0.94387  0.53185  0.04072  1.0000
  Fe  Fe110     1.0  0.60600  0.60302  0.29534  1.0000
  S   S217      1.0  0.63952  0.57577  0.28409  1.0000
  S   S218      1.0  0.55610  0.65470  0.31749  1.0000
  S   S219      1.0  0.61700  0.64296  0.30411  1.0000
  Fe  Fe111     1.0  0.87786  0.93132  0.07340  1.0000
  S   S220      1.0  0.84536  0.92203  0.05370  1.0000
  S   S221      1.0  0.87474  0.94455  0.10260  1.0000
  Fe  Fe112     1.0  0.92002  0.92686  0.04483  1.0000
  S   S222      1.0  0.89136  0.91716  0.02293  1.0000
  S   S223      1.0  0.96264  0.93215  0.03861  1.0000
  Fe  Fe113     1.0  0.86559  0.95016  0.03496  1.0000
  C   C873      1.0  0.76379  0.61754  0.30881  1.0000
  Fe  Fe114     1.0  0.87430  0.88971  0.04350  1.0000
  S   S224      1.0  0.87029  0.84680  0.03383  1.0000
  S   S225      1.0  0.89575  0.96120  0.05547  1.0000
  S   S226      1.0  0.90512  0.89759  0.06453  1.0000
  Fe  Fe115     1.0  0.86913  0.64594  0.08802  1.0000
  S   S227      1.0  0.83403  0.65701  0.07041  1.0000
  S   S228      1.0  0.87375  0.62949  0.11640  1.0000
  Fe  Fe116     1.0  0.90759  0.66216  0.05930  1.0000
  S   S229      1.0  0.87589  0.67457  0.03944  1.0000
  S   S230      1.0  0.95039  0.66725  0.05386  1.0000
  Fe  Fe117     1.0  0.85596  0.69400  0.06376  1.0000
  S   S231      1.0  0.84026  0.73671  0.06926  1.0000
  Fe  Fe118     1.0  0.85748  0.63638  0.04762  1.0000
  S   S232      1.0  0.84401  0.60595  0.02638  1.0000
  S   S233      1.0  0.88933  0.68342  0.08286  1.0000
  S   S234      1.0  0.89071  0.62329  0.06587  1.0000
  C   C874      1.0  0.85270  0.57150  0.02303  1.0000
  C   C875      1.0  0.86718  0.55647  0.03586  1.0000
  H   H1561     1.0  0.65315  0.55907  0.32215  1.0000
  C   C876      1.0  0.89554  0.67081  0.26277  1.0000
  H   H1562     1.0  0.87403  0.56596  0.04804  1.0000
  C   C877      1.0  0.96161  0.87627  0.00992  1.0000
  C   C878      1.0  0.96780  0.63821  0.06012  1.0000
  C   C879      1.0  0.95735  0.62143  0.07293  1.0000
  H   H1563     1.0  0.52679  0.79243  0.28755  1.0000
  H   H1564     1.0  0.93971  0.62748  0.08025  1.0000
  C   C880      1.0  0.86330  0.81636  0.04460  1.0000
  C   C881      1.0  0.85351  0.81516  0.06230  1.0000
  C   C882      1.0  0.84721  0.79058  0.06978  1.0000
  C   C883      1.0  0.85111  0.76681  0.05989  1.0000
  C   C884      1.0  0.86170  0.76797  0.04243  1.0000
  C   C885      1.0  0.86734  0.79257  0.03479  1.0000
  H   H1565     1.0  0.85012  0.83319  0.07004  1.0000
  H   H1566     1.0  0.83896  0.78999  0.08323  1.0000
  H   H1567     1.0  0.86450  0.75001  0.03452  1.0000
  H   H1568     1.0  0.87446  0.79317  0.02100  1.0000
  H   H1569     1.0  0.86592  0.57178  0.07994  1.0000
  C   C886      1.0  0.97263  0.90671  0.07080  1.0000
  C   C887      1.0  0.98214  0.91302  0.05364  1.0000
  C   C888      1.0  0.81088  0.51541  0.07507  1.0000
  H   H1570     1.0  0.95397  0.91533  0.07544  1.0000
  N   N50       1.0  0.94698  0.55945  0.01123  1.0000
  C   C889      1.0  0.81054  0.62680  0.16051  1.0000
  C   C890      1.0  0.80329  0.63514  0.14294  1.0000
  C   C891      1.0  0.82237  0.63604  0.12913  1.0000
  C   C892      1.0  0.84872  0.62840  0.13286  1.0000
  C   C893      1.0  0.85570  0.61924  0.15022  1.0000
  C   C894      1.0  0.83678  0.61868  0.16405  1.0000
  H   H1571     1.0  0.78297  0.64131  0.14010  1.0000
  H   H1572     1.0  0.81677  0.64281  0.11570  1.0000
  H   H1573     1.0  0.87595  0.61279  0.15307  1.0000
  H   H1574     1.0  0.84253  0.61182  0.17743  1.0000
  C   C895      1.0  0.72741  0.57998  0.26756  1.0000
  C   C896      1.0  0.71114  0.60335  0.26720  1.0000
  C   C897      1.0  0.68427  0.60310  0.27287  1.0000
  C   C898      1.0  0.67355  0.57942  0.27870  1.0000
  C   C899      1.0  0.69011  0.55653  0.27919  1.0000
  C   C900      1.0  0.71663  0.55686  0.27387  1.0000
  H   H1575     1.0  0.71922  0.62149  0.26263  1.0000
  H   H1576     1.0  0.67171  0.62095  0.27227  1.0000
  H   H1577     1.0  0.68225  0.53812  0.28353  1.0000
  H   H1578     1.0  0.72878  0.53871  0.27430  1.0000
  C   C901      1.0  0.92730  0.60286  0.24560  1.0000
  C   C902      1.0  0.92147  0.59364  0.22818  1.0000
  C   C903      1.0  0.94192  0.59150  0.21531  1.0000
  H   H1579     1.0  0.91196  0.60409  0.25578  1.0000
  H   H1580     1.0  0.93774  0.58405  0.20186  1.0000
  N   N51       1.0  0.96257  0.86336  0.15322  1.0000
  C   C904      1.0  0.81523  0.58280  0.06794  1.0000
  H   H1581     1.0  0.97028  0.77676  0.05139  1.0000
  H   H1582     1.0  0.83304  0.59452  0.06655  1.0000
  H   H1583     1.0  0.97360  0.78186  0.16358  1.0000
  C   C905      1.0  0.52674  0.84508  0.29920  1.0000
  H   H1584     1.0  0.78933  0.76996  0.27299  1.0000
  C   C906      1.0  0.52079  0.86417  0.28599  1.0000
  H   H1585     1.0  0.77392  0.96063  0.08974  1.0000
  H   H1586     1.0  0.53662  0.87405  0.27945  1.0000
  C   C907      1.0  0.64017  0.74198  0.30588  1.0000
  C   C908      1.0  0.63719  0.74513  0.28712  1.0000
  C   C909      1.0  0.61910  0.73022  0.27749  1.0000
  C   C910      1.0  0.60375  0.71243  0.28671  1.0000
  C   C911      1.0  0.60640  0.70976  0.30553  1.0000
  C   C912      1.0  0.62479  0.72430  0.31509  1.0000
  H   H1587     1.0  0.64929  0.75863  0.27999  1.0000
  H   H1588     1.0  0.61746  0.73208  0.26293  1.0000
  H   H1589     1.0  0.59431  0.69647  0.31282  1.0000
  C   C913      1.0  0.66627  0.57874  0.22380  1.0000
  C   C914      1.0  0.84988  0.88346  0.14363  1.0000
  C   C915      1.0  0.86283  0.90572  0.14953  1.0000
  C   C916      1.0  0.87077  0.92432  0.13682  1.0000
  C   C917      1.0  0.86620  0.92041  0.11822  1.0000
  C   C918      1.0  0.85402  0.89774  0.11232  1.0000
  C   C919      1.0  0.84568  0.87946  0.12501  1.0000
  H   H1590     1.0  0.86566  0.90912  0.16389  1.0000
  H   H1591     1.0  0.88010  0.94193  0.14143  1.0000
  H   H1592     1.0  0.85045  0.89461  0.09800  1.0000
  H   H1593     1.0  0.83567  0.86237  0.12033  1.0000
  C   C920      1.0  0.97480  0.85055  0.21826  1.0000
  H   H1594     1.0  0.93584  0.69472  0.12775  1.0000
  H   H1595     1.0  0.93785  0.51412  0.06700  1.0000
  C   C921      1.0  0.82893  0.56071  0.12757  1.0000
  H   H1596     1.0  0.96069  0.81328  0.22644  1.0000
  C   C922      1.0  0.85735  0.74250  0.21221  1.0000
  C   C923      1.0  0.86000  0.74846  0.23067  1.0000
  C   C924      1.0  0.84866  0.73251  0.24368  1.0000
  C   C925      1.0  0.83442  0.71087  0.23816  1.0000
  C   C926      1.0  0.83078  0.70574  0.21969  1.0000
  C   C927      1.0  0.84266  0.72123  0.20672  1.0000
  H   H1597     1.0  0.87140  0.76490  0.23496  1.0000
  H   H1598     1.0  0.85124  0.73669  0.25798  1.0000
  H   H1599     1.0  0.81869  0.68988  0.21536  1.0000
  H   H1600     1.0  0.84049  0.71667  0.19245  1.0000
  C   C928      1.0  0.77860  0.85237  0.25452  1.0000
  C   C929      1.0  0.76087  0.85456  0.23987  1.0000
  C   C930      1.0  0.73322  0.85628  0.24291  1.0000
  C   C931      1.0  0.72268  0.85562  0.26058  1.0000
  C   C932      1.0  0.74040  0.85304  0.27519  1.0000
  C   C933      1.0  0.76803  0.85155  0.27217  1.0000
  H   H1601     1.0  0.76847  0.85533  0.22621  1.0000
  H   H1602     1.0  0.71989  0.85830  0.23144  1.0000
  H   H1603     1.0  0.73283  0.85261  0.28888  1.0000
  H   H1604     1.0  0.78138  0.84996  0.28366  1.0000
  C   C934      1.0  0.89488  0.68135  0.19130  1.0000
  C   C935      1.0  0.88882  0.66481  0.17455  1.0000
  H   H1605     1.0  0.89191  0.69137  0.22978  1.0000
  C   C936      1.0  0.87238  0.52903  0.03308  1.0000
  H   H1606     1.0  0.87968  0.67745  0.20154  1.0000
  H   H1607     1.0  0.88091  0.68783  0.26259  1.0000
  H   H1608     1.0  0.88987  0.64347  0.17800  1.0000
  H   H1609     1.0  0.94118  0.53018  0.22028  1.0000
  H   H1610     1.0  0.90292  0.66844  0.16346  1.0000
  H   H1611     1.0  0.93394  0.64205  0.00126  1.0000
  C   C937      1.0  0.93722  0.53410  0.06086  1.0000
  H   H1612     1.0  0.97288  0.52447  0.00927  1.0000
  S   S235      1.0  0.50634  0.60107  0.31612  1.0000
  C   C938      1.0  0.94477  0.87836  0.16646  1.0000
  C   C939      1.0  0.84995  0.53130  0.00418  1.0000
  C   C940      1.0  0.92738  0.86755  0.12766  1.0000
  C   C941      1.0  0.81332  0.57191  0.08751  1.0000
  H   H1613     1.0  0.71295  0.67194  0.31721  1.0000
  C   C942      1.0  0.95626  0.87122  0.13393  1.0000
  C   C943      1.0  0.92615  0.92172  0.17949  1.0000
  H   H1614     1.0  0.93092  0.91363  0.15109  1.0000
  C   C944      1.0  0.50572  0.83247  0.30745  1.0000
  C   C945      1.0  0.81573  0.49368  0.06081  1.0000
  C   C946      1.0  0.78861  0.96778  0.09951  1.0000
  C   C947      1.0  0.83688  0.52899  0.07971  1.0000
  H   H1615     1.0  0.96035  0.65189  0.01586  1.0000
  H   H1616     1.0  0.51849  0.90365  0.32724  1.0000
  H   H1617     1.0  0.93715  0.83032  0.15357  1.0000
  H   H1618     1.0  0.92457  0.87058  0.16643  1.0000
  C   C948      1.0  0.82043  0.54810  0.14526  1.0000
  H   H1619     1.0  0.91311  0.57465  0.08966  1.0000
  H   H1620     1.0  0.90617  0.57896  0.11354  1.0000
  H   H1621     1.0  0.92348  0.84624  0.12664  1.0000
  H   H1622     1.0  0.91275  0.87692  0.13710  1.0000
  C   C949      1.0  0.99080  0.86973  0.15737  1.0000
  H   H1623     1.0  0.79353  0.60934  0.04963  1.0000
  C   C950      1.0  0.68143  0.64325  0.32130  1.0000
  C   C951      1.0  0.92827  0.80465  0.06947  1.0000
  C   C952      1.0  0.86060  0.56487  0.09366  1.0000
  H   H1624     1.0  0.70590  0.57125  0.23392  1.0000
  H   H1625     1.0  0.77288  0.58974  0.06348  1.0000
  H   H1626     1.0  0.80717  0.53386  0.11113  1.0000
  H   H1627     1.0  0.92667  0.55114  0.10587  1.0000
  H   H1628     1.0  0.93721  0.91912  0.19248  1.0000
  H   H1629     1.0  0.97320  0.60567  0.02248  1.0000
  C   C953      1.0  0.99349  0.52926  0.21252  1.0000
  C   C954      1.0  0.97024  0.59706  0.07673  1.0000
  H   H1630     1.0  0.98428  0.51300  0.20487  1.0000
  H   H1631     1.0  0.93059  0.82456  0.09555  1.0000
  H   H1632     1.0  0.79570  0.52962  0.06946  1.0000
  H   H1633     1.0  0.92289  0.94320  0.17692  1.0000
  C   C955      1.0  0.91890  0.67619  0.25051  1.0000
  H   H1634     1.0  0.69076  0.56942  0.18652  1.0000
  C   C956      1.0  0.96078  0.66555  0.11308  1.0000
  H   H1635     1.0  0.81428  0.78971  0.24642  1.0000
  H   H1636     1.0  0.65568  0.58417  0.21106  1.0000
  H   H1637     1.0  0.91878  0.81268  0.02711  1.0000
  H   H1638     1.0  0.75922  0.51562  0.21345  1.0000
  H   H1639     1.0  0.95843  0.65459  0.22163  1.0000
  H   H1640     1.0  0.92789  0.69431  0.25549  1.0000
  H   H1641     1.0  0.96868  0.82267  0.14426  1.0000
  C   C957      1.0  0.97798  0.82405  0.22341  1.0000
  C   C958      1.0  0.79118  0.60095  0.06340  1.0000
  H   H1642     1.0  0.81378  0.95022  0.12081  1.0000
  H   H1643     1.0  0.78600  0.80338  0.23393  1.0000
  H   H1644     1.0  0.94034  0.87215  0.03483  1.0000
  C   C959      1.0  0.72415  0.75823  0.26170  1.0000
  C   C960      1.0  0.93834  0.67293  0.12621  1.0000
  H   H1645     1.0  0.85884  0.58310  0.10201  1.0000
  H   H1646     1.0  0.49417  0.71100  0.25869  1.0000
  H   H1647     1.0  0.65842  0.68259  0.29989  1.0000
  H   H1648     1.0  0.90349  0.65800  0.22686  1.0000
  H   H1649     1.0  0.93372  0.65962  0.25223  1.0000
  H   H1650     1.0  0.88569  0.65274  0.25826  1.0000
  H   H1651     1.0  0.68822  0.67099  0.28843  1.0000
  C   C961      1.0  0.96816  0.83797  0.03184  1.0000
  N   N52       1.0  0.81786  0.77175  0.14179  1.0000
  C   C962      1.0  0.80671  0.78448  0.12474  1.0000
  C   C963      1.0  0.82254  0.74223  0.13893  1.0000
  C   C964      1.0  0.79740  0.77601  0.15652  1.0000
  C   C965      1.0  0.84285  0.78409  0.14815  1.0000
  C   C966      1.0  0.86533  0.78549  0.13410  1.0000
  C   C967      1.0  0.79951  0.81451  0.12604  1.0000
  C   C968      1.0  0.80356  0.76181  0.17478  1.0000
  C   C969      1.0  0.83051  0.73242  0.11961  1.0000
  C   C970      1.0  0.83808  0.70288  0.11963  1.0000
  C   C971      1.0  0.88813  0.80092  0.14172  1.0000
  C   C972      1.0  0.79273  0.82612  0.10740  1.0000
  C   C973      1.0  0.78042  0.76534  0.18793  1.0000
  H   H1652     1.0  0.78849  0.77458  0.12046  1.0000
  H   H1653     1.0  0.82049  0.78155  0.11320  1.0000
  H   H1654     1.0  0.83768  0.73412  0.14870  1.0000
  H   H1655     1.0  0.80421  0.73173  0.14194  1.0000
  H   H1656     1.0  0.77783  0.76965  0.15159  1.0000
  H   H1657     1.0  0.79462  0.79739  0.16001  1.0000
  H   H1658     1.0  0.83843  0.80434  0.15358  1.0000
  H   H1659     1.0  0.85150  0.77305  0.15992  1.0000
  H   H1660     1.0  0.85858  0.79554  0.12148  1.0000
  H   H1661     1.0  0.87344  0.76533  0.13087  1.0000
  H   H1662     1.0  0.78202  0.81835  0.13485  1.0000
  H   H1663     1.0  0.81615  0.82532  0.13166  1.0000
  H   H1664     1.0  0.82095  0.77020  0.18144  1.0000
  H   H1665     1.0  0.80758  0.74029  0.17287  1.0000
  H   H1666     1.0  0.81353  0.73544  0.11011  1.0000
  H   H1667     1.0  0.84728  0.74290  0.11402  1.0000
  H   H1668     1.0  0.85640  0.69876  0.12769  1.0000
  H   H1669     1.0  0.82185  0.69162  0.12537  1.0000
  H   H1670     1.0  0.84158  0.69592  0.10551  1.0000
  H   H1671     1.0  0.89586  0.79170  0.15444  1.0000
  H   H1672     1.0  0.90437  0.80086  0.13167  1.0000
  H   H1673     1.0  0.88145  0.82175  0.14455  1.0000
  H   H1674     1.0  0.81020  0.82448  0.09836  1.0000
  H   H1675     1.0  0.77616  0.81578  0.10103  1.0000
  H   H1676     1.0  0.78674  0.84740  0.10891  1.0000
  H   H1677     1.0  0.77706  0.78653  0.19165  1.0000
  H   H1678     1.0  0.76213  0.75784  0.18183  1.0000
  H   H1679     1.0  0.78501  0.75395  0.20047  1.0000
  C   C974      1.0  0.65293  0.55526  0.23211  1.0000
  H   H1680     1.0  0.98130  0.98111  0.05353  1.0000
  H   H1681     1.0  0.51334  0.76170  0.28224  1.0000
  H   H1682     1.0  0.91714  0.54340  0.06274  1.0000
  N   N53       1.0  0.53959  0.77600  0.26173  1.0000
  H   H1683     1.0  0.52913  0.67482  0.26097  1.0000
  C   C975      1.0  0.55131  0.74973  0.25503  1.0000
  C   C976      1.0  0.53164  0.77287  0.28134  1.0000
  C   C977      1.0  0.55963  0.79712  0.26117  1.0000
  C   C978      1.0  0.56965  0.80484  0.24224  1.0000
  C   C979      1.0  0.55237  0.75874  0.29404  1.0000
  C   C980      1.0  0.54942  0.74365  0.23438  1.0000
  C   C981      1.0  0.56649  0.71907  0.22929  1.0000
  C   C982      1.0  0.58571  0.82960  0.24336  1.0000
  C   C983      1.0  0.93585  0.73268  0.23162  1.0000
  H   H1684     1.0  0.57239  0.74744  0.25923  1.0000
  H   H1685     1.0  0.54128  0.73315  0.26153  1.0000
  H   H1686     1.0  0.55182  0.81540  0.26810  1.0000
  H   H1687     1.0  0.57758  0.79105  0.26913  1.0000
  H   H1688     1.0  0.55320  0.80913  0.23260  1.0000
  H   H1689     1.0  0.58294  0.78870  0.23677  1.0000
  H   H1690     1.0  0.72283  0.68331  0.20747  1.0000
  H   H1691     1.0  0.57226  0.76668  0.29266  1.0000
  H   H1692     1.0  0.55378  0.73736  0.29088  1.0000
  H   H1693     1.0  0.52866  0.73972  0.23068  1.0000
  H   H1694     1.0  0.55564  0.76014  0.22592  1.0000
  H   H1695     1.0  0.56466  0.71503  0.21452  1.0000
  H   H1696     1.0  0.58760  0.72202  0.23252  1.0000
  H   H1697     1.0  0.56006  0.70158  0.23680  1.0000
  H   H1698     1.0  0.59263  0.83479  0.22962  1.0000
  H   H1699     1.0  0.57349  0.84660  0.24882  1.0000
  H   H1700     1.0  0.60331  0.82612  0.25221  1.0000
  C   C984      1.0  0.92326  0.67467  0.19854  1.0000
  H   H1701     1.0  0.89268  0.70242  0.18730  1.0000
  C   C985      1.0  0.91012  0.67814  0.23034  1.0000
  H   H1702     1.0  0.92603  0.65270  0.19925  1.0000
  H   H1703     1.0  0.72480  0.66598  0.22872  1.0000
  H   H1704     1.0  0.81358  0.58951  0.09662  1.0000
  C   C986      1.0  0.71694  0.59497  0.17313  1.0000
  H   H1705     1.0  0.97944  0.54666  0.21118  1.0000
  H   H1706     1.0  0.99040  0.67004  0.13437  1.0000
  C   C987      1.0  0.91527  0.81710  0.08630  1.0000
  N   N54       1.0  0.83460  0.55165  0.09305  1.0000
  H   H1707     1.0  0.95527  0.57185  0.03897  1.0000
  C   C988      1.0  0.68029  0.68270  0.30015  1.0000
  H   H1708     1.0  0.90257  0.66787  0.27694  1.0000
  H   H1709     1.0  0.79971  0.54202  0.14424  1.0000
  H   H1710     1.0  0.92403  0.83922  0.05283  1.0000
  C   C989      1.0  0.95770  0.67655  0.22162  1.0000
  C   C990      1.0  0.51490  0.78363  0.25105  1.0000
  C   C991      1.0  0.98042  0.68578  0.20943  1.0000
  N   N55       1.0  0.93015  0.68684  0.21665  1.0000
  H   H1711     1.0  0.96173  0.64374  0.11164  1.0000
  H   H1712     1.0  0.54472  0.78223  0.31842  1.0000
  H   H1713     1.0  0.94087  0.72247  0.20298  1.0000
  H   H1714     1.0  0.98250  0.70741  0.21090  1.0000
  H   H1715     1.0  0.84931  0.56726  0.12967  1.0000
  H   H1716     1.0  0.69774  0.55177  0.21484  1.0000
  C   C992      1.0  0.98753  0.88953  0.08214  1.0000
  H   H1717     1.0  0.96318  0.68228  0.23563  1.0000
  C   C993      1.0  0.74119  0.79174  0.31805  1.0000
  H   H1718     1.0  0.93659  0.68105  0.18769  1.0000
  C   C994      1.0  0.49422  0.87014  0.28091  1.0000
  H   H1719     1.0  0.79317  0.74533  0.24487  1.0000
  C   C995      1.0  0.92869  0.71642  0.21463  1.0000
  H   H1720     1.0  0.65291  0.53843  0.22238  1.0000
  H   H1721     1.0  0.92369  0.90143  0.10955  1.0000
  C   C996      1.0  0.94073  0.82581  0.05747  1.0000
  H   H1722     1.0  0.95308  0.83852  0.06612  1.0000
  H   H1723     1.0  0.71545  0.60128  0.14407  1.0000
  C   C997      1.0  0.71425  0.66736  0.21549  1.0000
  H   H1724     1.0  0.75012  0.67413  0.25815  1.0000
  H   H1725     1.0  0.86851  0.67015  0.16962  1.0000
  H   H1726     1.0  0.69304  0.67273  0.21794  1.0000
  H   H1727     1.0  0.82525  0.96600  0.08421  1.0000
  H   H1728     1.0  0.95268  0.81104  0.00201  1.0000
  H   H1729     1.0  0.98329  0.59696  0.20970  1.0000
  C   C998      1.0  0.78095  0.76400  0.24458  1.0000
  C   C999      1.0  0.94825  0.85908  0.02378  1.0000
  C   C1000     1.0  0.74042  0.78881  0.29739  1.0000
  H   H1730     1.0  0.76576  0.75334  0.29889  1.0000
  C   C1001     1.0  0.93893  0.76166  0.22689  1.0000
  H   H1731     1.0  0.93912  0.61282  0.02802  1.0000
  H   H1732     1.0  0.75461  0.80259  0.29187  1.0000
  H   H1733     1.0  0.73002  0.79056  0.24242  1.0000
  H   H1734     1.0  0.78480  0.95274  0.06160  1.0000
  H   H1735     1.0  0.97195  0.52009  0.25598  1.0000
  C   C1002     1.0  0.96782  0.59856  0.21977  1.0000
  H   H1736     1.0  0.93170  0.78230  0.03545  1.0000
  H   H1737     1.0  0.97949  0.88485  0.01585  1.0000
  H   H1738     1.0  0.97720  0.68114  0.19492  1.0000
  C   C1003     1.0  0.94488  0.58741  0.00395  1.0000
  H   H1739     1.0  0.73753  0.53457  0.22835  1.0000
  C   C1004     1.0  0.97134  0.52847  0.24205  1.0000
  H   H1740     1.0  0.92443  0.51008  0.25757  1.0000
  H   H1741     1.0  0.77256  0.67273  0.27730  1.0000
  Fe  Fe119     1.0  0.64931  0.85753  0.32903  1.0000
  C   C1005     1.0  0.69121  0.67137  0.31800  1.0000
  C   C1006     1.0  0.94580  0.51884  0.23284  1.0000
  H   H1742     1.0  0.70632  0.64390  0.19208  1.0000
  C   C1007     1.0  0.71731  0.64122  0.20505  1.0000
  H   H1743     1.0  0.73856  0.63764  0.20208  1.0000
  H   H1744     1.0  0.94260  0.77309  0.23949  1.0000
  H   H1745     1.0  0.72594  0.77974  0.32438  1.0000
  C   C1008     1.0  0.54449  0.76129  0.31397  1.0000
  H   H1746     1.0  0.95222  0.87517  0.18049  1.0000
  H   H1747     1.0  0.74379  0.70629  0.29348  1.0000
  H   H1748     1.0  0.80732  0.77793  0.22396  1.0000
  H   H1749     1.0  0.55900  0.74964  0.32242  1.0000
  C   C1009     1.0  0.50024  0.80988  0.25672  1.0000
  H   H1750     1.0  0.91955  0.66548  0.12083  1.0000
  H   H1751     1.0  0.91275  0.79455  0.06178  1.0000
  C   C1010     1.0  0.79814  0.78509  0.23681  1.0000
  H   H1752     1.0  0.78033  0.72277  0.27525  1.0000
  H   H1753     1.0  0.72321  0.74452  0.24985  1.0000
  C   C1011     1.0  0.90912  0.56415  0.10247  1.0000
  H   H1754     1.0  0.84040  0.52318  0.11479  1.0000
  C   C1012     1.0  0.93766  0.80092  0.02902  1.0000
  H   H1755     1.0  0.90425  0.80202  0.09360  1.0000
  H   H1756     1.0  0.95766  0.61568  0.26386  1.0000
  C   C1013     1.0  0.75169  0.67691  0.27306  1.0000
  H   H1757     1.0  0.52457  0.75370  0.31616  1.0000
  H   H1758     1.0  0.73183  0.57841  0.17132  1.0000
  C   C1014     1.0  0.75994  0.72573  0.26956  1.0000
  C   C1015     1.0  0.74251  0.70504  0.27846  1.0000
  H   H1759     1.0  0.73917  0.66249  0.27976  1.0000
  C   C1016     1.0  0.74725  0.75989  0.29161  1.0000
  C   C1017     1.0  0.94159  0.55928  0.03139  1.0000
  H   H1760     1.0  0.80274  0.50621  0.08733  1.0000
  H   H1761     1.0  0.83364  0.53065  0.14858  1.0000
  N   N56       1.0  0.75033  0.75435  0.27154  1.0000
  C   C1018     1.0  0.70602  0.61839  0.21599  1.0000
  N   N57       1.0  0.95619  0.81518  0.04137  1.0000
  H   H1762     1.0  0.82268  0.97855  0.05458  1.0000
  H   H1763     1.0  0.82284  0.99039  0.10145  1.0000
  H   H1764     1.0  0.72154  0.70816  0.27426  1.0000
  H   H1765     1.0  0.74712  0.58628  0.22268  1.0000
  H   H1766     1.0  0.73117  0.74833  0.29737  1.0000
  C   C1019     1.0  0.77149  0.77124  0.26405  1.0000
  H   H1767     1.0  0.76151  0.72008  0.25497  1.0000
  H   H1768     1.0  0.72788  0.61311  0.17519  1.0000
  H   H1769     1.0  0.70767  0.75284  0.27071  1.0000
  H   H1770     1.0  0.62694  0.72195  0.32961  1.0000
  H   H1771     1.0  0.95525  0.67418  0.09970  1.0000
  N   N58       1.0  0.71000  0.59089  0.20812  1.0000
  H   H1772     1.0  0.76515  0.79251  0.26410  1.0000
  H   H1773     1.0  0.72008  0.79481  0.29300  1.0000
  H   H1774     1.0  0.75071  0.59608  0.20029  1.0000
  H   H1775     1.0  0.88106  0.53881  0.11388  1.0000
  H   H1776     1.0  0.96428  0.52308  0.03964  1.0000
  H   H1777     1.0  0.95186  0.54600  0.06804  1.0000
  H   H1778     1.0  0.68467  0.62400  0.21736  1.0000
  H   H1779     1.0  0.71448  0.61892  0.22996  1.0000
  S   S236      1.0  0.84482  0.98200  0.01717  1.0000
  C   C1020     1.0  0.86400  0.51619  0.01718  1.0000
  C   C1021     1.0  0.73910  0.58297  0.20880  1.0000
  H   H1780     1.0  0.90109  0.83355  0.08246  1.0000
  C   C1022     1.0  0.74678  0.55411  0.20273  1.0000
  C   C1023     1.0  0.88475  0.54767  0.10048  1.0000
  H   H1781     1.0  0.76445  0.55445  0.19384  1.0000
  C   C1024     1.0  0.69830  0.58938  0.18923  1.0000
  H   H1782     1.0  0.76411  0.76117  0.23522  1.0000
  C   C1025     1.0  0.69609  0.57223  0.22038  1.0000
  H   H1783     1.0  0.96121  0.91773  0.16340  1.0000
  H   H1784     1.0  0.98187  0.83061  0.02097  1.0000
  C   C1026     1.0  0.82762  0.54096  0.11140  1.0000
  C   C1027     1.0  0.70153  0.59792  0.15533  1.0000
  H   H1785     1.0  0.88963  0.53150  0.09066  1.0000
  H   H1786     1.0  0.68013  0.63289  0.30796  1.0000
  H   H1787     1.0  0.71944  0.80175  0.26427  1.0000
  C   C1028     1.0  0.71708  0.78615  0.25401  1.0000
  H   H1788     1.0  0.68862  0.59119  0.31866  1.0000
  H   H1789     1.0  0.68456  0.80804  0.24093  1.0000
  H   H1790     1.0  0.73110  0.54525  0.19448  1.0000
  C   C1029     1.0  0.78191  0.96180  0.03343  1.0000
  H   H1791     1.0  0.90662  0.91290  0.18090  1.0000
  C   C1030     1.0  0.92205  0.52287  0.24544  1.0000
  H   H1792     1.0  0.93679  0.87131  0.09892  1.0000
  H   H1793     1.0  0.68713  0.61512  0.15607  1.0000
  H   H1794     1.0  0.58968  0.91271  0.32160  1.0000
  H   H1795     1.0  0.68053  0.60311  0.18815  1.0000
  H   H1796     1.0  0.69087  0.57974  0.15228  1.0000
  S   S237      1.0  0.66289  0.76030  0.31789  1.0000
  H   H1797     1.0  0.98806  0.82453  0.17676  1.0000
  H   H1798     1.0  0.66065  0.64636  0.32579  1.0000
  H   H1799     1.0  0.90835  0.72331  0.21107  1.0000
  H   H1800     1.0  0.63215  0.56109  0.23561  1.0000
  H   H1801     1.0  0.88294  0.51759  0.04337  1.0000
  C   C1031     1.0  0.68856  0.78833  0.24716  1.0000
  H   H1802     1.0  0.95458  0.72526  0.23799  1.0000
  H   H1803     1.0  0.76184  0.98003  0.05598  1.0000
  H   H1804     1.0  0.94320  0.78948  0.07416  1.0000
  H   H1805     1.0  0.93007  0.51792  0.03475  1.0000
  H   H1806     1.0  0.67465  0.78635  0.25861  1.0000
  H   H1807     1.0  0.79337  0.56403  0.08928  1.0000
  C   C1032     1.0  0.97336  0.54605  0.00668  1.0000
  H   H1808     1.0  0.68505  0.77293  0.23675  1.0000
  H   H1809     1.0  0.72374  0.62750  0.30132  1.0000
  C   C1033     1.0  0.97374  0.60706  0.23736  1.0000
  C   C1034     1.0  0.80384  0.99004  0.05717  1.0000
  C   C1035     1.0  0.75406  0.53580  0.21865  1.0000
  H   H1810     1.0  0.99129  0.67210  0.08300  1.0000
  H   H1811     1.0  0.82164  0.56269  0.15653  1.0000
  H   H1812     1.0  0.90582  0.55300  0.00572  1.0000
  H   H1813     1.0  0.68606  0.70346  0.29873  1.0000
  H   H1814     1.0  0.51909  0.78542  0.23638  1.0000
  H   H1815     1.0  0.66378  0.59540  0.23362  1.0000
  H   H1816     1.0  0.77147  0.54293  0.22609  1.0000
  H   H1817     1.0  0.85090  0.51319  0.08489  1.0000
  C   C1036     1.0  0.95332  0.60918  0.25020  1.0000
  H   H1818     1.0  0.78921  0.61756  0.07328  1.0000
  H   H1819     1.0  0.98018  0.88449  0.09532  1.0000
  C   C1037     1.0  0.73416  0.61529  0.31178  1.0000
  C   C1038     1.0  0.94174  0.90871  0.16385  1.0000
  C   C1039     1.0  0.78168  0.97077  0.05327  1.0000
  H   H1820     1.0  0.95505  0.83157  0.18489  1.0000
  H   H1821     1.0  0.51489  0.67724  0.23854  1.0000
  Fe  Fe120     1.0  0.59360  0.63651  0.32929  1.0000
  H   H1822     1.0  0.98083  0.84897  0.04134  1.0000
  H   H1823     1.0  0.76936  0.63841  0.31017  1.0000
  H   H1824     1.0  0.96119  0.89211  0.13156  1.0000
  H   H1825     1.0  0.96835  0.55028  0.24386  1.0000
  H   H1826     1.0  0.95589  0.76370  0.21761  1.0000
  C   C1040     1.0  0.97824  0.79584  0.04707  1.0000
  H   H1827     1.0  0.92067  0.77021  0.22037  1.0000
  H   H1828     1.0  0.84572  0.53543  0.06681  1.0000
  H   H1829     1.0  0.51310  0.82679  0.25500  1.0000
  C   C1041     1.0  0.95845  0.83424  0.15526  1.0000
  H   H1830     1.0  0.96209  0.58407  0.08661  1.0000
  H   H1831     1.0  0.96889  0.85936  0.12431  1.0000
  H   H1832     1.0  0.80827  0.92878  0.10154  1.0000
  H   H1833     1.0  0.94227  0.66384  0.13969  1.0000
  H   H1834     1.0  0.90236  0.87498  0.10417  1.0000
  H   H1835     1.0  0.81566  0.57840  0.12530  1.0000
  H   H1836     1.0  0.81618  0.56684  0.05759  1.0000
  H   H1837     1.0  0.78245  0.93528  0.11789  1.0000
  H   H1838     1.0  0.92151  0.56836  0.03407  1.0000
  H   H1839     1.0  0.50991  0.81755  0.31760  1.0000
  H   H1840     1.0  0.94071  0.78911  0.17252  1.0000
  H   H1841     1.0  0.49513  0.67389  0.31580  1.0000
  H   H1842     1.0  0.91960  0.73213  0.24165  1.0000
  H   H1843     1.0  0.73707  0.81277  0.32185  1.0000
  H   H1844     1.0  0.99114  0.79058  0.03529  1.0000
  C   C1042     1.0  0.95339  0.60998  0.01667  1.0000
  H   H1845     1.0  0.64413  0.60652  0.33011  1.0000
  C   C1043     1.0  0.84420  0.55863  0.00717  1.0000
  S   S238      1.0  0.62197  0.82440  0.32926  1.0000
  H   H1846     1.0  0.90374  0.51774  0.23813  1.0000
  C   C1044     1.0  0.94855  0.79322  0.00999  1.0000
  C   C1045     1.0  0.79899  0.94411  0.11062  1.0000
  H   H1847     1.0  0.55822  0.88028  0.33277  1.0000
  C   C1046     1.0  0.92568  0.54427  0.00196  1.0000
  H   H1848     1.0  0.92601  0.52341  0.00649  1.0000
  H   H1849     1.0  0.76100  0.78555  0.32348  1.0000
  H   H1850     1.0  0.77531  0.60513  0.31869  1.0000
  H   H1851     1.0  0.76537  0.94863  0.03087  1.0000
  C   C1047     1.0  0.81151  0.98162  0.09006  1.0000
  H   H1852     1.0  0.93128  0.85036  0.01685  1.0000
  H   H1853     1.0  0.76903  0.61056  0.29490  1.0000
  H   H1854     1.0  0.72966  0.59430  0.30947  1.0000
  C   C1048     1.0  0.95395  0.63615  0.00650  1.0000
  C   C1049     1.0  0.96206  0.79257  0.17433  1.0000
  H   H1855     1.0  0.94770  0.89271  0.00569  1.0000
  H   H1856     1.0  0.77820  0.98187  0.10898  1.0000
  H   H1857     1.0  0.80069  0.95060  0.03022  1.0000
  C   C1050     1.0  0.72595  0.62449  0.33117  1.0000
  H   H1858     1.0  0.96701  0.78066  0.01111  1.0000
  C   C1051     1.0  0.96683  0.82210  0.17382  1.0000
  H   H1859     1.0  0.82310  0.50210  0.04800  1.0000
  H   H1860     1.0  0.49375  0.80917  0.27100  1.0000
  H   H1861     1.0  0.92380  0.75940  0.00645  1.0000
  C   C1052     1.0  0.51084  0.67230  0.25289  1.0000
  H   H1862     1.0  0.68395  0.68484  0.32902  1.0000
  H   H1863     1.0  0.98444  0.69797  0.12050  1.0000
  H   H1864     1.0  0.98578  0.80965  0.07510  1.0000
  H   H1865     1.0  0.50561  0.65126  0.25348  1.0000
  H   H1866     1.0  0.94759  0.49760  0.22921  1.0000
  H   H1867     1.0  0.96846  0.78454  0.18772  1.0000
  C   C1053     1.0  0.99208  0.63152  0.05207  1.0000
  C   C1054     1.0  0.98738  0.67609  0.11998  1.0000
  H   H1868     1.0  0.50102  0.68737  0.28782  1.0000
  H   H1869     1.0  0.50063  0.76762  0.25200  1.0000
  C   C1055     1.0  0.68706  0.59830  0.33297  1.0000
  H   H1870     1.0  0.73490  0.64372  0.33359  1.0000
  Fe  Fe121     1.0  0.60714  0.90115  0.48819  1.0000
  S   S239      1.0  0.56875  0.90362  0.47271  1.0000
  S   S240      1.0  0.62224  0.93473  0.50610  1.0000
  Fe  Fe122     1.0  0.61673  0.84102  0.47895  1.0000
  S   S241      1.0  0.57914  0.84021  0.46329  1.0000
  S   S242      1.0  0.64141  0.80207  0.48087  1.0000
  Fe  Fe123     1.0  0.59027  0.87872  0.45142  1.0000
  S   S243      1.0  0.57976  0.88101  0.42152  1.0000
  Fe  Fe124     1.0  0.56177  0.86480  0.48579  1.0000
  S   S244      1.0  0.52407  0.85290  0.49807  1.0000
  S   S245      1.0  0.62959  0.87859  0.46581  1.0000
  S   S246      1.0  0.59847  0.86335  0.50260  1.0000
  Fe  Fe125     1.0  0.60905  0.58553  0.49413  1.0000
  S   S247      1.0  0.58152  0.56878  0.47390  1.0000
  S   S248      1.0  0.62865  0.55686  0.51473  1.0000
  Fe  Fe126     1.0  0.59606  0.64360  0.48092  1.0000
  S   S249      1.0  0.56746  0.62918  0.45990  1.0000
  S   S250      1.0  0.59093  0.68880  0.48331  1.0000
  Fe  Fe127     1.0  0.55397  0.60255  0.48172  1.0000
  S   S251      1.0  0.51261  0.59585  0.49052  1.0000
  Fe  Fe128     1.0  0.59832  0.59717  0.45420  1.0000
  S   S252      1.0  0.60758  0.57971  0.42651  1.0000
  S   S253      1.0  0.58034  0.61829  0.50313  1.0000
  S   S254      1.0  0.62820  0.61249  0.47394  1.0000
  S   S255      1.0  0.65890  0.87915  0.35520  1.0000
  S   S256      1.0  0.61000  0.65120  0.35606  1.0000
  C   C1056     1.0  0.60704  0.60022  0.40720  1.0000
  C   C1057     1.0  0.60390  0.58879  0.38998  1.0000
  C   C1058     1.0  0.60403  0.60438  0.37426  1.0000
  C   C1059     1.0  0.60809  0.63141  0.37562  1.0000
  C   C1060     1.0  0.61160  0.64282  0.39284  1.0000
  C   C1061     1.0  0.61073  0.62735  0.40863  1.0000
  H   H1871     1.0  0.60109  0.56782  0.38878  1.0000
  H   H1872     1.0  0.60133  0.59539  0.36109  1.0000
  H   H1873     1.0  0.61483  0.66371  0.39398  1.0000
  H   H1874     1.0  0.61331  0.63631  0.42184  1.0000
  C   C1062     1.0  0.62064  0.52334  0.51875  1.0000
  C   C1063     1.0  0.65015  0.80918  0.53133  1.0000
  H   H1875     1.0  0.66046  0.98651  0.46392  1.0000
  H   H1876     1.0  0.64885  0.49905  0.47322  1.0000
  H   H1877     1.0  0.64005  0.52173  0.54485  1.0000
  H   H1878     1.0  0.59425  0.79812  0.36179  1.0000
  H   H1879     1.0  0.52219  0.93254  0.52734  1.0000
  C   C1064     1.0  0.60684  0.50868  0.50600  1.0000
  H   H1880     1.0  0.51983  0.59220  0.45154  1.0000
  H   H1881     1.0  0.60688  0.74004  0.44238  1.0000
  C   C1065     1.0  0.60414  0.87756  0.40454  1.0000
  C   C1066     1.0  0.59835  0.86339  0.38877  1.0000
  C   C1067     1.0  0.61562  0.86272  0.37392  1.0000
  C   C1068     1.0  0.63861  0.87683  0.37453  1.0000
  C   C1069     1.0  0.64499  0.89024  0.39061  1.0000
  C   C1070     1.0  0.62790  0.89044  0.40566  1.0000
  H   H1882     1.0  0.58028  0.85312  0.38802  1.0000
  H   H1883     1.0  0.61072  0.85201  0.36179  1.0000
  H   H1884     1.0  0.66287  0.90107  0.39124  1.0000
  H   H1885     1.0  0.63255  0.90154  0.41775  1.0000
  C   C1071     1.0  0.62734  0.77057  0.48074  1.0000
  C   C1072     1.0  0.60003  0.76799  0.47964  1.0000
  C   C1073     1.0  0.58942  0.74280  0.48032  1.0000
  C   C1074     1.0  0.60592  0.71977  0.48174  1.0000
  C   C1075     1.0  0.63330  0.72228  0.48256  1.0000
  C   C1076     1.0  0.64391  0.74756  0.48214  1.0000
  H   H1886     1.0  0.58699  0.78542  0.47857  1.0000
  H   H1887     1.0  0.56822  0.74115  0.47976  1.0000
  H   H1888     1.0  0.64625  0.70478  0.48379  1.0000
  H   H1889     1.0  0.66507  0.74931  0.48300  1.0000
  H   H1890     1.0  0.69984  0.58428  0.34114  1.0000
  H   H1891     1.0  0.62738  0.69515  0.44778  1.0000
  H   H1892     1.0  0.60826  0.73380  0.40750  1.0000
  H   H1893     1.0  0.52402  0.87022  0.46087  1.0000
  H   H1894     1.0  0.61453  0.80298  0.39162  1.0000
  C   C1077     1.0  0.69108  0.63544  0.35400  1.0000
  C   C1078     1.0  0.60688  0.96598  0.51232  1.0000
  H   H1895     1.0  0.62396  0.76926  0.59543  1.0000
  H   H1896     1.0  0.57884  0.96803  0.49032  1.0000
  H   H1897     1.0  0.53219  0.66740  0.48065  1.0000
  H   H1898     1.0  0.66374  0.82315  0.44707  1.0000
  C   C1079     1.0  0.62013  0.78184  0.39390  1.0000
  H   H1899     1.0  0.66717  0.51078  0.49852  1.0000
  H   H1900     1.0  0.69589  0.60781  0.43108  1.0000
  H   H1901     1.0  0.63117  0.53021  0.47202  1.0000
  C   C1080     1.0  0.51496  0.50990  0.48260  1.0000
  H   H1902     1.0  0.69868  0.52829  0.42533  1.0000
  H   H1903     1.0  0.65947  0.85168  0.43268  1.0000
  H   H1904     1.0  0.65757  0.78104  0.42068  1.0000
  H   H1905     1.0  0.57065  0.87736  0.35519  1.0000
  H   H1906     1.0  0.53214  0.53288  0.46104  1.0000
  H   H1907     1.0  0.69965  0.54943  0.47692  1.0000
  C   C1081     1.0  0.53283  0.52147  0.49759  1.0000
  H   H1908     1.0  0.63453  0.82679  0.41059  1.0000
  C   C1082     1.0  0.60712  0.78406  0.59445  1.0000
  H   H1909     1.0  0.52944  0.57090  0.52694  1.0000
  H   H1910     1.0  0.50861  0.80930  0.36697  1.0000
  C   C1083     1.0  0.53892  0.83821  0.36442  1.0000
  C   C1084     1.0  0.69632  0.66911  0.37925  1.0000
  H   H1911     1.0  0.63560  0.78303  0.43946  1.0000
  H   H1912     1.0  0.70922  0.68440  0.38476  1.0000
  H   H1913     1.0  0.60014  0.51789  0.49355  1.0000
  C   C1085     1.0  0.49815  0.68175  0.46463  1.0000
  C   C1086     1.0  0.58939  0.78032  0.42070  1.0000
  H   H1914     1.0  0.52485  0.85084  0.33812  1.0000
  H   H1915     1.0  0.54380  0.88739  0.38105  1.0000
  C   C1087     1.0  0.52489  0.93201  0.51239  1.0000
  C   C1088     1.0  0.60394  0.77801  0.36126  1.0000
  N   N59       1.0  0.52847  0.88649  0.35357  1.0000
  H   H1916     1.0  0.57056  0.80308  0.39822  1.0000
  H   H1917     1.0  0.69402  0.61872  0.36369  1.0000
  H   H1918     1.0  0.64284  0.69540  0.42585  1.0000
  H   H1919     1.0  0.59281  0.76575  0.35161  1.0000
  H   H1920     1.0  0.72027  0.53566  0.50586  1.0000
  C   C1089     1.0  0.66024  0.83517  0.52432  1.0000
  C   C1090     1.0  0.69079  0.51151  0.45214  1.0000
  C   C1091     1.0  0.63619  0.81879  0.42449  1.0000
  H   H1921     1.0  0.61418  0.80401  0.59763  1.0000
  C   C1092     1.0  0.62332  0.74497  0.41498  1.0000
  N   N60       1.0  0.60682  0.78773  0.54104  1.0000
  C   C1093     1.0  0.57722  0.79176  0.53880  1.0000
  C   C1094     1.0  0.61478  0.79118  0.56077  1.0000
  C   C1095     1.0  0.61948  0.80892  0.53022  1.0000
  C   C1096     1.0  0.61693  0.76123  0.53384  1.0000
  C   C1097     1.0  0.60526  0.73676  0.54263  1.0000
  C   C1098     1.0  0.56607  0.78906  0.51927  1.0000
  H   H1922     1.0  0.65769  0.80661  0.54537  1.0000
  C   C1099     1.0  0.59472  0.78354  0.57550  1.0000
  H   H1923     1.0  0.63702  0.70947  0.53310  1.0000
  C   C1100     1.0  0.61509  0.71131  0.53313  1.0000
  C   C1101     1.0  0.53587  0.79076  0.51925  1.0000
  C   C1102     1.0  0.62446  0.73334  0.43440  1.0000
  H   H1924     1.0  0.57070  0.81179  0.54391  1.0000
  H   H1925     1.0  0.56659  0.77764  0.54716  1.0000
  H   H1926     1.0  0.63384  0.78004  0.56359  1.0000
  H   H1927     1.0  0.61867  0.81228  0.56376  1.0000
  C   C1103     1.0  0.63004  0.50587  0.44775  1.0000
  H   H1928     1.0  0.61480  0.80700  0.51555  1.0000
  H   H1929     1.0  0.61413  0.76002  0.51888  1.0000
  H   H1930     1.0  0.63870  0.75881  0.53578  1.0000
  H   H1931     1.0  0.58339  0.73761  0.54188  1.0000
  H   H1932     1.0  0.61172  0.73520  0.55699  1.0000
  H   H1933     1.0  0.57261  0.80512  0.51043  1.0000
  H   H1934     1.0  0.57221  0.76970  0.51321  1.0000
  H   H1935     1.0  0.50275  0.93782  0.48787  1.0000
  H   H1936     1.0  0.66099  0.60521  0.43482  1.0000
  H   H1937     1.0  0.57747  0.79795  0.57550  1.0000
  H   H1938     1.0  0.58732  0.76360  0.57320  1.0000
  H   H1939     1.0  0.60718  0.69577  0.42767  1.0000
  C   C1104     1.0  0.52226  0.85768  0.35233  1.0000
  H   H1940     1.0  0.64249  0.73943  0.44163  1.0000
  C   C1105     1.0  0.51021  0.90298  0.34125  1.0000
  H   H1941     1.0  0.60774  0.71098  0.51894  1.0000
  H   H1942     1.0  0.57665  0.76337  0.41805  1.0000
  H   H1943     1.0  0.52844  0.79021  0.50505  1.0000
  H   H1944     1.0  0.52802  0.77385  0.52669  1.0000
  H   H1945     1.0  0.52834  0.80955  0.52562  1.0000
  C   C1106     1.0  0.62917  0.51077  0.53490  1.0000
  H   H1946     1.0  0.67882  0.82323  0.42483  1.0000
  H   H1947     1.0  0.67803  0.58337  0.41880  1.0000
  H   H1948     1.0  0.54187  0.79646  0.37101  1.0000
  C   C1107     1.0  0.66367  0.55431  0.44925  1.0000
  H   H1949     1.0  0.50135  0.85461  0.35569  1.0000
  H   H1950     1.0  0.56389  0.51881  0.52763  1.0000
  H   H1951     1.0  0.56914  0.59080  0.53986  1.0000
  H   H1952     1.0  0.50502  0.67181  0.45191  1.0000
  C   C1108     1.0  0.68597  0.57402  0.44728  1.0000
  C   C1109     1.0  0.54425  0.52925  0.52935  1.0000
  C   C1110     1.0  0.49704  0.52999  0.51916  1.0000
  H   H1953     1.0  0.70312  0.51359  0.52030  1.0000
  H   H1954     1.0  0.73613  0.61081  0.34103  1.0000
  H   H1955     1.0  0.53690  0.69739  0.46827  1.0000
  H   H1956     1.0  0.54566  0.49923  0.46300  1.0000
  H   H1957     1.0  0.64630  0.56563  0.45501  1.0000
  H   H1958     1.0  0.65716  0.54876  0.43543  1.0000
  C   C1111     1.0  0.56657  0.91730  0.34636  1.0000
  C   C1112     1.0  0.68064  0.53970  0.47876  1.0000
  H   H1959     1.0  0.53373  0.91236  0.50836  1.0000
  H   H1960     1.0  0.57028  0.92433  0.36042  1.0000
  H   H1961     1.0  0.58987  0.78250  0.43577  1.0000
  H   H1962     1.0  0.65460  0.60002  0.35306  1.0000
  H   H1963     1.0  0.63247  0.97063  0.53546  1.0000
  H   H1964     1.0  0.68216  0.83449  0.52487  1.0000
  H   H1965     1.0  0.51859  0.88642  0.40978  1.0000
  C   C1113     1.0  0.64504  0.51654  0.46439  1.0000
  H   H1966     1.0  0.65907  0.79293  0.52282  1.0000
  H   H1967     1.0  0.66401  0.55263  0.34523  1.0000
  H   H1968     1.0  0.62612  0.52120  0.43730  1.0000
  H   H1969     1.0  0.51331  0.50572  0.45330  1.0000
  H   H1970     1.0  0.49648  0.55061  0.51399  1.0000
  C   C1114     1.0  0.70809  0.65761  0.36167  1.0000
  H   H1971     1.0  0.55998  0.83744  0.36038  1.0000
  H   H1972     1.0  0.65260  0.85208  0.53275  1.0000
  H   H1973     1.0  0.58483  0.55851  0.54295  1.0000
  H   H1974     1.0  0.60761  0.90379  0.34215  1.0000
  H   H1975     1.0  0.72833  0.64940  0.36480  1.0000
  H   H1976     1.0  0.59061  0.51251  0.45889  1.0000
  H   H1977     1.0  0.49562  0.52107  0.48208  1.0000
  H   H1978     1.0  0.61927  0.82667  0.43270  1.0000
  H   H1979     1.0  0.55333  0.51320  0.49557  1.0000
  H   H1980     1.0  0.53919  0.52638  0.54380  1.0000
  C   C1115     1.0  0.50404  0.90043  0.40314  1.0000
  N   N61       1.0  0.52430  0.51711  0.51692  1.0000
  H   H1981     1.0  0.64262  0.73962  0.40837  1.0000
  C   C1116     1.0  0.50117  0.58408  0.45502  1.0000
  H   H1982     1.0  0.67142  0.50727  0.42516  1.0000
  C   C1117     1.0  0.54843  0.55914  0.52694  1.0000
  H   H1983     1.0  0.51707  0.69839  0.48849  1.0000
  C   C1118     1.0  0.60444  0.76540  0.38003  1.0000
  H   H1984     1.0  0.68791  0.58560  0.46004  1.0000
  H   H1985     1.0  0.66670  0.55508  0.48473  1.0000
  C   C1119     1.0  0.56546  0.56969  0.54230  1.0000
  N   N62       1.0  0.61703  0.77439  0.41358  1.0000
  H   H1986     1.0  0.53419  0.79226  0.41836  1.0000
  H   H1987     1.0  0.70526  0.56357  0.44447  1.0000
  H   H1988     1.0  0.61402  0.74532  0.37845  1.0000
  H   H1989     1.0  0.58379  0.76323  0.38451  1.0000
  C   C1120     1.0  0.58646  0.97817  0.50205  1.0000
  H   H1990     1.0  0.53340  0.54287  0.49457  1.0000
  H   H1991     1.0  0.54853  0.81058  0.43676  1.0000
  H   H1992     1.0  0.53684  0.82758  0.41673  1.0000
  C   C1121     1.0  0.61669  0.97977  0.52739  1.0000
  H   H1993     1.0  0.53892  0.94727  0.50872  1.0000
  H   H1994     1.0  0.55892  0.56264  0.51405  1.0000
  C   C1122     1.0  0.70049  0.52916  0.50981  1.0000
  C   C1123     1.0  0.57393  0.80503  0.41302  1.0000
  H   H1995     1.0  0.53719  0.84384  0.37894  1.0000
  H   H1996     1.0  0.59216  0.77916  0.60471  1.0000
  H   H1997     1.0  0.67638  0.67849  0.37664  1.0000
  C   C1124     1.0  0.62555  0.70310  0.43380  1.0000
  C   C1125     1.0  0.66112  0.82974  0.43281  1.0000
  C   C1126     1.0  0.52251  0.68645  0.47627  1.0000
  C   C1127     1.0  0.52738  0.89669  0.37284  1.0000
  H   H1998     1.0  0.62441  0.77927  0.35607  1.0000
  H   H1999     1.0  0.65405  0.83851  0.51002  1.0000
  H   H2000     1.0  0.55529  0.56814  0.55553  1.0000
  H   H2001     1.0  0.61115  0.82877  0.53447  1.0000
  H   H2002     1.0  0.53097  0.91817  0.37325  1.0000
  C   C1128     1.0  0.54673  0.80899  0.42178  1.0000
  H   H2003     1.0  0.69466  0.65339  0.38958  1.0000
  H   H2004     1.0  0.58471  0.82313  0.41536  1.0000
  C   C1129     1.0  0.63732  0.78816  0.42485  1.0000
  C   C1130     1.0  0.67981  0.59375  0.43204  1.0000
  H   H2005     1.0  0.64135  0.77978  0.38992  1.0000
  H   H2006     1.0  0.60749  0.69397  0.54022  1.0000
  H   H2007     1.0  0.63025  0.56328  0.34065  1.0000
  H   H2008     1.0  0.71107  0.51684  0.45625  1.0000
  H   H2009     1.0  0.62742  0.98651  0.45472  1.0000
  C   C1131     1.0  0.52739  0.51211  0.46387  1.0000
  N   N63       1.0  0.67025  0.53026  0.46069  1.0000
  C   C1132     1.0  0.68598  0.51814  0.49340  1.0000
  C   C1133     1.0  0.50574  0.86081  0.46349  1.0000
  C   C1134     1.0  0.63924  0.99062  0.46707  1.0000
  C   C1135     1.0  0.69122  0.50989  0.43107  1.0000
  H   H2010     1.0  0.66989  0.64217  0.35538  1.0000
  C   C1136     1.0  0.50106  0.85002  0.48054  1.0000
  H   H2011     1.0  0.49830  0.54095  0.54817  1.0000
  H   H2012     1.0  0.70986  0.67401  0.35203  1.0000
  H   H2013     1.0  0.68884  0.54612  0.51586  1.0000
  C   C1137     1.0  0.55630  0.88890  0.34670  1.0000
  C   C1138     1.0  0.49852  0.93751  0.50263  1.0000
  H   H2014     1.0  0.69811  0.50115  0.48791  1.0000
  H   H2015     1.0  0.53109  0.80333  0.34815  1.0000
  H   H2016     1.0  0.50876  0.92391  0.34601  1.0000
  C   C1139     1.0  0.52944  0.81013  0.36248  1.0000
  H   H2017     1.0  0.51073  0.92086  0.40490  1.0000
  H   H2018     1.0  0.63336  0.97703  0.47793  1.0000
  H   H2019     1.0  0.55238  0.93151  0.33969  1.0000
  C   C1140     1.0  0.50109  0.89359  0.38303  1.0000
  C   C1141     1.0  0.65802  0.59444  0.33865  1.0000
  N   N64       1.0  0.69661  0.62605  0.33479  1.0000
  C   C1142     1.0  0.60328  0.49594  0.45334  1.0000
  C   C1143     1.0  0.65105  0.56556  0.33652  1.0000
  C   C1144     1.0  0.59264  0.91789  0.33611  1.0000
  H   H2020     1.0  0.60039  0.93801  0.33688  1.0000
  H   H2021     1.0  0.49432  0.87315  0.38222  1.0000
  H   H2022     1.0  0.83938  0.50306  0.86259  1.0000
  C   C1145     1.0  0.90049  0.95863  0.97762  1.0000
  H   H2023     1.0  0.83958  0.53522  0.88758  1.0000
  C   C1146     1.0  0.83279  0.51505  0.89008  1.0000
  C   C1147     1.0  0.90214  0.53131  0.97300  1.0000
  H   H2024     1.0  0.83291  0.56988  0.99712  1.0000
  H   H2025     1.0  0.90460  0.52774  0.95821  1.0000
  H   H2026     1.0  0.88491  0.54538  0.97505  1.0000
  C   C1148     1.0  0.82277  0.50320  0.87235  1.0000
  H   H2027     1.0  0.91983  0.95021  0.98259  1.0000
  H   H2028     1.0  0.74260  0.52113  0.85380  1.0000
  H   H2029     1.0  0.97741  0.54767  0.99192  1.0000
  C   C1149     1.0  0.92711  0.54269  0.98092  1.0000
  H   H2030     1.0  0.89821  0.95401  0.96296  1.0000
  H   H2031     1.0  0.92925  0.56233  0.97470  1.0000
  H   H2032     1.0  0.94411  0.52945  0.97671  1.0000
  H   H2033     1.0  0.81681  0.51644  0.90037  1.0000
  H   H2034     1.0  0.95632  0.58871  0.99115  1.0000
  H   H2035     1.0  0.96813  0.63459  0.99506  1.0000
  H   H2036     1.0  0.84306  0.52186  0.99196  1.0000
  C   C1150     1.0  0.73395  0.50180  0.85646  1.0000
  H   H2037     1.0  0.93687  0.77214  0.98573  1.0000
  H   H2038     1.0  0.89811  0.51228  0.97960  1.0000
  H   H2039     1.0  0.80638  0.51645  0.86724  1.0000
  H   H2040     1.0  0.71716  0.50513  0.86597  1.0000
  H   H2041     1.0  0.84970  0.50275  0.89557  1.0000
  H   H2042     1.0  0.88458  0.94911  0.98515  1.0000
  H   H2043     1.0  0.90018  0.99172  0.99573  1.0000
  H   H2044     1.0  0.96738  0.86440  0.99773  1.0000
  C   C1151     1.0  0.89826  0.98845  0.98090  1.0000
  H   H2045     1.0  0.91004  0.79003  0.99702  1.0000
  C   C1152     1.0  0.92853  0.77774  0.99919  1.0000
  H   H2046     1.0  0.78365  0.49563  0.84580  1.0000
  H   H2047     1.0  0.92400  0.59314  0.00022  1.0000
  H   H2048     1.0  0.72620  0.49370  0.84354  1.0000
