data_image0
_chemical_formula_structural       HFeH3S2C7H6CHNHC2H2C6HCH5SH9CH4SCH2SH2C2H2CH2SH2CHCH2CH4NHFeC3HSC2SFeHSCH3CHNC2H4C2H2C2H2CHCH8CH6CH4CHSCH5C2H2FeCSH2C6H4CHCNCHC2HC3H3CSH10CH3C2H5SCH4SCHCH3SHCH5FeHCHCHCH3CH2CH2C3HCHSH5CFeHFeCSHCH2FeHSFeHSHC2SC2NH3SC7H5CH3SHC4NFeCH4SCH5CH5CHFeHCH2CH5CHCHC2HCHFeSH3CNCHC4HCH3CH5SC2H3CH3CH2C2H6CHCHNHCH3CH2C2H2CHSHCFeSCSH2SHCFe2SC2H2CH4C7H4CHSCH3CHCSCH7CNH2CHCHCSH2FeSFeS2HCSH3SFeH2CH2C6H5CH2CH3CH2NC5H2C2H2CH6CH3CH2CHC2H3CSC3HCHSHCH3CH2SCH4SCH4CHFeH2C2HCHNCHCH2FeH5CHCSH4CHC2S2H2FeHSC2HFeSHCNH2CHSFeHC6H6CHC2H3C2HC2H7C4HCH3CH4CH4CHNH4CFeH3CNHC3SHFeS3HCH2C6H7C2H3CFeCH3CSCHCHSFeCH2CHCH5CH2FeC2H5CSCH2SH2CNH3C2H3CFeH2C2SH2SCH6C2H3CH4CFeCH5CHSH4SHCSCH2C6H4SHCH3CHSH3C2H3CHCH2CHC2H5CHC2H5CH2CSNH5CH2CH2CFe2H2C2H3CH
_chemical_formula_sum              "H512 Fe32 S64 C288 N16"
_cell_length_a       29.4749
_cell_length_b       29.9455
_cell_length_c       35.9869
_cell_angle_alpha    90.0838
_cell_angle_beta     89.961
_cell_angle_gamma    81.6338

_space_group_name_H-M_alt    "P 1"
_space_group_IT_number       1

loop_
  _space_group_symop_operation_xyz
  'x, y, z'

loop_
  _atom_site_type_symbol
  _atom_site_label
  _atom_site_symmetry_multiplicity
  _atom_site_fract_x
  _atom_site_fract_y
  _atom_site_fract_z
  _atom_site_occupancy
  H   H1        1.0  0.06610  0.11644  0.14913  1.0000
  Fe  Fe1       1.0  0.06218  0.23830  0.29639  1.0000
  H   H2        1.0  0.36938  0.00682  0.02100  1.0000
  H   H3        1.0  0.10051  0.28988  0.22050  1.0000
  H   H4        1.0  0.13905  0.19946  0.10804  1.0000
  S   S1        1.0  0.29033  0.07070  0.25829  1.0000
  S   S2        1.0  0.21609  0.00795  0.18495  1.0000
  C   C1        1.0  0.15214  0.12872  0.09749  1.0000
  C   C2        1.0  0.17860  0.18975  0.28383  1.0000
  C   C3        1.0  0.22496  0.19491  0.28268  1.0000
  C   C4        1.0  0.25854  0.15792  0.27538  1.0000
  C   C5        1.0  0.24619  0.11537  0.26843  1.0000
  C   C6        1.0  0.19978  0.10967  0.27013  1.0000
  C   C7        1.0  0.16593  0.14690  0.27823  1.0000
  H   H5        1.0  0.23498  0.22788  0.28712  1.0000
  H   H6        1.0  0.29422  0.16259  0.27422  1.0000
  H   H7        1.0  0.19008  0.07666  0.26528  1.0000
  H   H8        1.0  0.13015  0.14260  0.27953  1.0000
  H   H9        1.0  0.28256  0.15382  0.14320  1.0000
  H   H10       1.0  0.07855  0.07722  0.22811  1.0000
  C   C8        1.0  0.12799  0.12621  0.18084  1.0000
  H   H11       1.0  0.05905  0.29408  0.18294  1.0000
  N   N1        1.0  0.14045  0.16786  0.16213  1.0000
  H   H12       1.0  0.29832  0.10503  0.17210  1.0000
  C   C9        1.0  0.19062  0.17129  0.16838  1.0000
  C   C10       1.0  0.11254  0.20855  0.18031  1.0000
  H   H13       1.0  0.46660  0.10134  0.24265  1.0000
  H   H14       1.0  0.42350  0.04162  0.32526  1.0000
  C   C11       1.0  0.40844  0.08043  0.21521  1.0000
  C   C12       1.0  0.12563  0.25538  0.16950  1.0000
  C   C13       1.0  0.22510  0.12690  0.16871  1.0000
  C   C14       1.0  0.27444  0.13700  0.16936  1.0000
  C   C15       1.0  0.07696  0.11912  0.17845  1.0000
  C   C16       1.0  0.06927  0.07570  0.19825  1.0000
  H   H15       1.0  0.10585  0.32658  0.18173  1.0000
  C   C17       1.0  0.13107  0.12924  0.05868  1.0000
  H   H16       1.0  0.48305  0.03014  0.14717  1.0000
  H   H17       1.0  0.20272  0.19427  0.14743  1.0000
  H   H18       1.0  0.19534  0.18684  0.19610  1.0000
  H   H19       1.0  0.11513  0.20570  0.21122  1.0000
  H   H20       1.0  0.07548  0.21018  0.17365  1.0000
  S   S3        1.0  0.13844  0.23844  0.29149  1.0000
  H   H21       1.0  0.12088  0.26182  0.13934  1.0000
  H   H22       1.0  0.05420  0.14713  0.19213  1.0000
  H   H23       1.0  0.13436  0.16135  0.04419  1.0000
  H   H24       1.0  0.09432  0.12496  0.06038  1.0000
  H   H25       1.0  0.09012  0.04584  0.18521  1.0000
  H   H26       1.0  0.18901  0.13142  0.09365  1.0000
  H   H27       1.0  0.16175  0.25789  0.17677  1.0000
  H   H28       1.0  0.21989  0.10730  0.19403  1.0000
  H   H29       1.0  0.13699  0.12677  0.21073  1.0000
  C   C18       1.0  0.42011  0.06142  0.29903  1.0000
  H   H30       1.0  0.27996  0.15878  0.19347  1.0000
  H   H31       1.0  0.14854  0.09503  0.16989  1.0000
  H   H32       1.0  0.41869  0.14747  0.19644  1.0000
  H   H33       1.0  0.22140  0.10486  0.14463  1.0000
  S   S4        1.0  0.24701  0.03106  0.08093  1.0000
  C   C19       1.0  0.12899  0.16887  0.12125  1.0000
  H   H34       1.0  0.14880  0.09560  0.11003  1.0000
  H   H35       1.0  0.09121  0.17212  0.11727  1.0000
  S   S5        1.0  0.02725  0.17924  0.31023  1.0000
  H   H36       1.0  0.39864  0.04991  0.20187  1.0000
  H   H37       1.0  0.39341  0.04857  0.09539  1.0000
  C   C20       1.0  0.09580  0.29366  0.18997  1.0000
  C   C21       1.0  0.38451  0.05016  0.06536  1.0000
  H   H38       1.0  0.14943  0.10084  0.04209  1.0000
  H   H39       1.0  0.38052  0.09500  0.23417  1.0000
  C   C22       1.0  0.42348  0.11073  0.31014  1.0000
  H   H40       1.0  0.07441  0.44642  0.33831  1.0000
  H   H41       1.0  0.44006  0.10226  0.16475  1.0000
  S   S6        1.0  0.32401  0.00895  0.16680  1.0000
  H   H42       1.0  0.03449  0.38170  0.32144  1.0000
  H   H43       1.0  0.37937  0.12085  0.16867  1.0000
  C   C23       1.0  0.41205  0.11486  0.18441  1.0000
  H   H44       1.0  0.41126  0.06483  0.04970  1.0000
  C   C24       1.0  0.45463  0.06879  0.23614  1.0000
  H   H45       1.0  0.42033  0.13343  0.28569  1.0000
  H   H46       1.0  0.45638  0.11255  0.32449  1.0000
  C   C25       1.0  0.02017  0.49728  0.31922  1.0000
  H   H47       1.0  0.38437  0.06004  0.28951  1.0000
  H   H48       1.0  0.35087  0.12812  0.32382  1.0000
  H   H49       1.0  0.48028  0.05187  0.21605  1.0000
  H   H50       1.0  0.35125  0.07261  0.06210  1.0000
  N   N2        1.0  0.45405  0.03999  0.27049  1.0000
  H   H51       1.0  0.03247  0.07158  0.19644  1.0000
  Fe  Fe2       1.0  0.27903  0.01601  0.21736  1.0000
  C   C26       1.0  0.50195  0.02964  0.28680  1.0000
  C   C27       1.0  0.38487  0.12887  0.33699  1.0000
  C   C28       1.0  0.01830  0.41581  0.31602  1.0000
  H   H52       1.0  0.50025  0.02218  0.31704  1.0000
  S   S7        1.0  0.01154  0.26436  0.25223  1.0000
  C   C29       1.0  0.04090  0.45260  0.32551  1.0000
  C   C30       1.0  0.37984  0.00319  0.05058  1.0000
  S   S8        1.0  0.07172  0.30449  0.62984  1.0000
  Fe  Fe3       1.0  0.07243  0.24020  0.66197  1.0000
  H   H53       1.0  0.13605  0.30290  0.44086  1.0000
  S   S9        1.0  0.02700  0.28256  0.34126  1.0000
  C   C31       1.0  0.19490  0.20138  0.40171  1.0000
  H   H54       1.0  0.06044  0.12050  0.37941  1.0000
  H   H55       1.0  0.17207  0.29554  0.40024  1.0000
  H   H56       1.0  0.08357  0.25196  0.41115  1.0000
  C   C32       1.0  0.12020  0.24928  0.40262  1.0000
  H   H57       1.0  0.23963  0.16223  0.44248  1.0000
  N   N3        1.0  0.14825  0.20836  0.41988  1.0000
  C   C33       1.0  0.12345  0.16822  0.41386  1.0000
  C   C34       1.0  0.15410  0.21467  0.46110  1.0000
  H   H58       1.0  0.08675  0.17667  0.42216  1.0000
  H   H59       1.0  0.25914  0.14377  0.35927  1.0000
  H   H60       1.0  0.19147  0.20163  0.37082  1.0000
  H   H61       1.0  0.13749  0.20210  0.53694  1.0000
  C   C35       1.0  0.10899  0.22704  0.48358  1.0000
  C   C36       1.0  0.11883  0.23360  0.52478  1.0000
  H   H62       1.0  0.04298  0.47007  0.53800  1.0000
  H   H63       1.0  0.21067  0.12763  0.41252  1.0000
  C   C37       1.0  0.10624  0.33413  0.39153  1.0000
  C   C38       1.0  0.12357  0.15000  0.37349  1.0000
  H   H64       1.0  0.17231  0.18313  0.47367  1.0000
  H   H65       1.0  0.17666  0.24068  0.46664  1.0000
  C   C39       1.0  0.13673  0.29531  0.41068  1.0000
  H   H66       1.0  0.06710  0.41784  0.45617  1.0000
  C   C40       1.0  0.22752  0.15834  0.41360  1.0000
  H   H67       1.0  0.08495  0.47289  0.45305  1.0000
  H   H68       1.0  0.28832  0.17983  0.38852  1.0000
  H   H69       1.0  0.11241  0.08192  0.38872  1.0000
  H   H70       1.0  0.21367  0.23008  0.40800  1.0000
  H   H71       1.0  0.11926  0.36632  0.39755  1.0000
  H   H72       1.0  0.08596  0.24240  0.54010  1.0000
  H   H73       1.0  0.08726  0.19985  0.48145  1.0000
  H   H74       1.0  0.13937  0.26155  0.52867  1.0000
  C   C41       1.0  0.09668  0.11016  0.37081  1.0000
  H   H75       1.0  0.08887  0.25884  0.47351  1.0000
  H   H76       1.0  0.13741  0.13967  0.43227  1.0000
  H   H77       1.0  0.15879  0.13789  0.36347  1.0000
  H   H78       1.0  0.29316  0.12016  0.39795  1.0000
  H   H79       1.0  0.15867  0.00551  0.67310  1.0000
  H   H80       1.0  0.11972  0.24555  0.37189  1.0000
  C   C42       1.0  0.26959  0.15021  0.38825  1.0000
  H   H81       1.0  0.07841  0.44149  0.41124  1.0000
  H   H82       1.0  0.32421  0.06067  0.65708  1.0000
  H   H83       1.0  0.07035  0.33681  0.40175  1.0000
  H   H84       1.0  0.10792  0.17678  0.35437  1.0000
  C   C43       1.0  0.06422  0.44933  0.43950  1.0000
  H   H85       1.0  0.10696  0.32918  0.36090  1.0000
  S   S10       1.0  0.13509  0.18670  0.66656  1.0000
  C   C44       1.0  0.04374  0.47658  0.56832  1.0000
  H   H86       1.0  0.05342  0.40434  0.57885  1.0000
  H   H87       1.0  0.38703  0.10841  0.36283  1.0000
  H   H88       1.0  0.07950  0.47925  0.57652  1.0000
  H   H89       1.0  0.09706  0.09791  0.34164  1.0000
  H   H90       1.0  0.03283  0.43829  0.61824  1.0000
  C   C45       1.0  0.03009  0.43507  0.58764  1.0000
  C   C46       1.0  0.01434  0.47158  0.43676  1.0000
  H   H91       1.0  0.38767  0.16435  0.34450  1.0000
  H   H92       1.0  0.02442  0.20998  0.79571  1.0000
  Fe  Fe4       1.0  0.24730  0.03304  0.82478  1.0000
  C   C47       1.0  0.45402  0.05628  0.90068  1.0000
  S   S11       1.0  0.18946  0.09199  0.82159  1.0000
  H   H93       1.0  0.04137  0.04978  0.79277  1.0000
  H   H94       1.0  0.35446  0.12384  0.68626  1.0000
  C   C48       1.0  0.15001  0.16145  0.71010  1.0000
  C   C49       1.0  0.12590  0.17534  0.74263  1.0000
  C   C50       1.0  0.13865  0.15427  0.77673  1.0000
  C   C51       1.0  0.17546  0.11895  0.77859  1.0000
  C   C52       1.0  0.19959  0.10523  0.74613  1.0000
  C   C53       1.0  0.18707  0.12642  0.71209  1.0000
  H   H95       1.0  0.09716  0.20198  0.74158  1.0000
  H   H96       1.0  0.11959  0.16505  0.80166  1.0000
  H   H97       1.0  0.22672  0.07706  0.74687  1.0000
  H   H98       1.0  0.03383  0.34949  0.76169  1.0000
  C   C54       1.0  0.45899  0.16843  0.73439  1.0000
  H   H99       1.0  0.04404  0.26675  0.84185  1.0000
  C   C55       1.0  0.49466  0.04956  0.92740  1.0000
  N   N4        1.0  0.32971  0.16297  0.75748  1.0000
  C   C56       1.0  0.37253  0.17991  0.74368  1.0000
  H   H100      1.0  0.07071  0.02760  0.84728  1.0000
  C   C57       1.0  0.33320  0.15929  0.79932  1.0000
  C   C58       1.0  0.32558  0.11684  0.74225  1.0000
  H   H101      1.0  0.02850  0.33772  0.86641  1.0000
  C   C59       1.0  0.41872  0.14955  0.75222  1.0000
  C   C60       1.0  0.29064  0.14595  0.81968  1.0000
  C   C61       1.0  0.47081  0.02040  0.80713  1.0000
  H   H102      1.0  0.46204  0.07659  0.87639  1.0000
  H   H103      1.0  0.27224  0.01950  0.94613  1.0000
  H   H104      1.0  0.48329  0.03494  0.95356  1.0000
  C   C62       1.0  0.29558  0.14979  0.86179  1.0000
  S   S12       1.0  0.30567  0.02938  0.86541  1.0000
  H   H105      1.0  0.09378  0.06509  0.77759  1.0000
  H   H106      1.0  0.25646  0.17871  0.74732  1.0000
  H   H107      1.0  0.28003  0.22195  0.77084  1.0000
  H   H108      1.0  0.34059  0.19180  0.81136  1.0000
  H   H109      1.0  0.36223  0.13326  0.80761  1.0000
  H   H110      1.0  0.35333  0.09114  0.75322  1.0000
  H   H111      1.0  0.29367  0.10573  0.75248  1.0000
  H   H112      1.0  0.37447  0.21391  0.75572  1.0000
  H   H113      1.0  0.29951  0.20336  0.68774  1.0000
  H   H114      1.0  0.42539  0.14767  0.78254  1.0000
  C   C63       1.0  0.12369  0.34000  0.78107  1.0000
  H   H115      1.0  0.28705  0.11040  0.81334  1.0000
  H   H116      1.0  0.25836  0.16753  0.81162  1.0000
  H   H117      1.0  0.42338  0.07467  0.91487  1.0000
  C   C64       1.0  0.28732  0.19626  0.74832  1.0000
  C   C65       1.0  0.06235  0.49424  0.70290  1.0000
  H   H118      1.0  0.11926  0.33513  0.75073  1.0000
  H   H119      1.0  0.41907  0.11484  0.74132  1.0000
  H   H120      1.0  0.22793  0.27286  0.72701  1.0000
  H   H121      1.0  0.29280  0.05071  0.69841  1.0000
  H   H122      1.0  0.12684  0.37596  0.78647  1.0000
  S   S13       1.0  0.41113  0.04079  0.80768  1.0000
  C   C66       1.0  0.04553  0.05726  0.73344  1.0000
  H   H123      1.0  0.26563  0.13823  0.87562  1.0000
  H   H124      1.0  0.32725  0.12826  0.87151  1.0000
  H   H125      1.0  0.29675  0.18536  0.87000  1.0000
  H   H126      1.0  0.37148  0.18490  0.71317  1.0000
  S   S14       1.0  0.06250  0.40258  0.70089  1.0000
  C   C67       1.0  0.06830  0.04208  0.77111  1.0000
  H   H127      1.0  0.09828  0.48587  0.70987  1.0000
  C   C68       1.0  0.28814  0.22446  0.71219  1.0000
  H   H128      1.0  0.46115  0.20291  0.74501  1.0000
  H   H129      1.0  0.21587  0.22637  0.69829  1.0000
  H   H130      1.0  0.14321  0.01215  0.80895  1.0000
  S   S15       1.0  0.04210  0.27671  0.71188  1.0000
  H   H131      1.0  0.15596  0.31876  0.78980  1.0000
  C   C69       1.0  0.08321  0.32608  0.80254  1.0000
  H   H132      1.0  0.08171  0.29035  0.79510  1.0000
  H   H133      1.0  0.14525  0.04452  0.73274  1.0000
  H   H134      1.0  0.07135  0.05561  0.71085  1.0000
  H   H135      1.0  0.45535  0.16950  0.70366  1.0000
  H   H136      1.0  0.48936  0.08718  0.80180  1.0000
  Fe  Fe5       1.0  0.03519  0.34040  0.67838  1.0000
  H   H137      1.0  0.35494  0.04134  0.69871  1.0000
  C   C70       1.0  0.32427  0.11231  0.69949  1.0000
  H   H138      1.0  0.20560  0.11505  0.68704  1.0000
  C   C71       1.0  0.03774  0.35584  0.79171  1.0000
  H   H139      1.0  0.04274  0.39199  0.79383  1.0000
  C   C72       1.0  0.26015  0.02438  0.00539  1.0000
  H   H140      1.0  0.01158  0.39476  0.85484  1.0000
  H   H141      1.0  0.31199  0.24972  0.71562  1.0000
  H   H142      1.0  0.50333  0.08345  0.93395  1.0000
  C   C73       1.0  0.02122  0.10598  0.73543  1.0000
  H   H143      1.0  0.04591  0.12930  0.74269  1.0000
  H   H144      1.0  0.09074  0.32875  0.83254  1.0000
  C   C74       1.0  0.32408  0.06320  0.68787  1.0000
  H   H145      1.0  0.29232  0.13188  0.68844  1.0000
  H   H146      1.0  0.14707  0.01481  0.87814  1.0000
  C   C75       1.0  0.50205  0.05154  0.80368  1.0000
  C   C76       1.0  0.24065  0.25026  0.70357  1.0000
  C   C77       1.0  0.03614  0.45941  0.69619  1.0000
  H   H147      1.0  0.18535  0.00260  0.75590  1.0000
  C   C78       1.0  0.15905  0.00828  0.73363  1.0000
  H   H148      1.0  0.49151  0.14629  0.74131  1.0000
  S   S16       1.0  0.29264  0.01030  0.77665  1.0000
  H   H149      1.0  0.21222  0.01551  0.69334  1.0000
  H   H150      1.0  0.01982  0.03559  0.72553  1.0000
  H   H151      1.0  0.02058  0.19146  0.84310  1.0000
  H   H152      1.0  0.44554  0.02348  0.89059  1.0000
  H   H153      1.0  0.25316  0.06085  0.00539  1.0000
  C   C79       1.0  0.27096  0.00102  0.97179  1.0000
  Fe  Fe6       1.0  0.35087  0.00193  0.81769  1.0000
  H   H154      1.0  0.24234  0.27115  0.67827  1.0000
  Fe  Fe7       1.0  0.07276  0.70405  0.31340  1.0000
  C   C80       1.0  0.45046  0.97214  0.15989  1.0000
  S   S17       1.0  0.14209  0.72363  0.29737  1.0000
  H   H155      1.0  0.08242  0.72838  0.22537  1.0000
  C   C81       1.0  0.48813  0.99577  0.15720  1.0000
  H   H156      1.0  0.19666  0.68968  0.17337  1.0000
  H   H157      1.0  0.12121  0.71433  0.14591  1.0000
  Fe  Fe8       1.0  0.33609  0.93542  0.18000  1.0000
  H   H158      1.0  0.08147  0.80868  0.28630  1.0000
  S   S18       1.0  0.40904  0.89764  0.17701  1.0000
  Fe  Fe9       1.0  0.23422  0.93364  0.19744  1.0000
  H   H159      1.0  0.41699  0.98828  0.15161  1.0000
  S   S19       1.0  0.16956  0.90520  0.21431  1.0000
  H   H160      1.0  0.17912  0.74824  0.18498  1.0000
  C   C82       1.0  0.08613  0.74270  0.19710  1.0000
  C   C83       1.0  0.39172  0.90181  0.06757  1.0000
  S   S20       1.0  0.27667  0.91915  0.14522  1.0000
  C   C84       1.0  0.43827  0.96042  0.29051  1.0000
  C   C85       1.0  0.45633  0.92774  0.17284  1.0000
  N   N5        1.0  0.42436  0.92237  0.04268  1.0000
  H   H161      1.0  0.11718  0.67395  0.18218  1.0000
  H   H162      1.0  0.17538  0.70458  0.21923  1.0000
  H   H163      1.0  0.07523  0.83448  0.16051  1.0000
  S   S21       1.0  0.29493  0.94299  0.23318  1.0000
  C   C86       1.0  0.15059  0.77610  0.27783  1.0000
  C   C87       1.0  0.11479  0.81202  0.27496  1.0000
  C   C88       1.0  0.12195  0.85205  0.25679  1.0000
  C   C89       1.0  0.16475  0.85654  0.24116  1.0000
  C   C90       1.0  0.20109  0.82129  0.24526  1.0000
  C   C91       1.0  0.19402  0.78133  0.26368  1.0000
  C   C92       1.0  0.12289  0.70917  0.17641  1.0000
  H   H164      1.0  0.09393  0.87952  0.25427  1.0000
  H   H165      1.0  0.23426  0.82434  0.23346  1.0000
  H   H166      1.0  0.22205  0.75383  0.26611  1.0000
  H   H167      1.0  0.43413  0.97107  0.08502  1.0000
  H   H168      1.0  0.32131  0.85094  0.08254  1.0000
  C   C93       1.0  0.26783  0.95364  0.03869  1.0000
  H   H169      1.0  0.45317  0.98510  0.04078  1.0000
  H   H170      1.0  0.49811  0.92476  0.09609  1.0000
  H   H171      1.0  0.35724  0.79706  0.08636  1.0000
  S   S22       1.0  0.03966  0.65769  0.27626  1.0000
  H   H172      1.0  0.26637  0.93510  0.06428  1.0000
  C   C94       1.0  0.42535  0.97037  0.05508  1.0000
  C   C95       1.0  0.35641  0.83408  0.08943  1.0000
  C   C96       1.0  0.47231  0.89681  0.04502  1.0000
  C   C97       1.0  0.04220  0.77599  0.14129  1.0000
  N   N6        1.0  0.03998  0.75238  0.17819  1.0000
  Fe  Fe10      1.0  0.26243  0.99396  0.13545  1.0000
  C   C98       1.0  0.07746  0.80972  0.13759  1.0000
  H   H173      1.0  0.42562  0.83098  0.07056  1.0000
  H   H174      1.0  0.35589  0.91781  0.06242  1.0000
  H   H175      1.0  0.36417  0.84137  0.11886  1.0000
  H   H176      1.0  0.41019  0.97205  0.31039  1.0000
  S   S23       1.0  0.04786  0.54206  0.33604  1.0000
  C   C99       1.0  0.17141  0.71338  0.18934  1.0000
  H   H177      1.0  0.42712  0.89090  0.29815  1.0000
  H   H178      1.0  0.01859  0.69099  0.19932  1.0000
  H   H179      1.0  0.10060  0.77429  0.20238  1.0000
  H   H180      1.0  0.50579  0.87230  0.19191  1.0000
  H   H181      1.0  0.47147  0.87515  0.10387  1.0000
  C   C100      1.0  0.39171  0.85021  0.06346  1.0000
  H   H182      1.0  0.04783  0.68414  0.15603  1.0000
  H   H183      1.0  0.11302  0.79147  0.13748  1.0000
  H   H184      1.0  0.39805  0.90911  0.09731  1.0000
  H   H185      1.0  0.39637  0.91891  0.25952  1.0000
  H   H186      1.0  0.09689  0.85918  0.09898  1.0000
  C   C101      1.0  0.50074  0.90687  0.18224  1.0000
  H   H187      1.0  0.04973  0.83071  0.21964  1.0000
  Fe  Fe11      1.0  0.02776  0.61812  0.32758  1.0000
  H   H188      1.0  0.46272  0.97970  0.23678  1.0000
  C   C102      1.0  0.49336  0.89141  0.08456  1.0000
  H   H189      1.0  0.45751  0.90056  0.25619  1.0000
  H   H190      1.0  0.38277  0.84133  0.03474  1.0000
  C   C103      1.0  0.42927  0.91501  0.27503  1.0000
  H   H191      1.0  0.47382  0.86272  0.03225  1.0000
  H   H192      1.0  0.03615  0.85693  0.10062  1.0000
  H   H193      1.0  0.05110  0.75077  0.11868  1.0000
  H   H194      1.0  0.49639  0.91413  0.02846  1.0000
  H   H195      1.0  0.35187  0.99116  0.06659  1.0000
  C   C104      1.0  0.02264  0.70775  0.17211  1.0000
  H   H196      1.0  0.07436  0.81289  0.07704  1.0000
  C   C105      1.0  0.07061  0.83619  0.10126  1.0000
  H   H197      1.0  0.47108  0.95446  0.30602  1.0000
  C   C106      1.0  0.01394  0.82861  0.21228  1.0000
  C   C107      1.0  0.43947  0.99564  0.25897  1.0000
  H   H198      1.0  0.40437  0.00076  0.24685  1.0000
  C   C108      1.0  0.25889  0.00078  0.03899  1.0000
  H   H199      1.0  0.13425  0.61350  0.60915  1.0000
  Fe  Fe12      1.0  0.05344  0.71844  0.62967  1.0000
  S   S24       1.0  0.09074  0.70378  0.57516  1.0000
  H   H200      1.0  0.09506  0.54735  0.55560  1.0000
  H   H201      1.0  0.23790  0.81113  0.57428  1.0000
  H   H202      1.0  0.09295  0.86084  0.59382  1.0000
  C   C109      1.0  0.07818  0.70276  0.49964  1.0000
  N   N7        1.0  0.02121  0.56335  0.56175  1.0000
  C   C110      1.0  0.29290  0.78482  0.61182  1.0000
  H   H203      1.0  0.11438  0.69013  0.49800  1.0000
  C   C111      1.0  0.05197  0.70824  0.46686  1.0000
  C   C112      1.0  0.05754  0.71297  0.53436  1.0000
  C   C113      1.0  0.18616  0.71960  0.66845  1.0000
  C   C114      1.0  0.13102  0.57891  0.61892  1.0000
  H   H204      1.0  0.05892  0.59369  0.62931  1.0000
  C   C115      1.0  0.06932  0.57134  0.57101  1.0000
  H   H205      1.0  0.15612  0.55403  0.60388  1.0000
  H   H206      1.0  0.06810  0.70013  0.44024  1.0000
  H   H207      1.0  0.21357  0.76092  0.53302  1.0000
  C   C116      1.0  0.08223  0.56877  0.61285  1.0000
  H   H208      1.0  0.07492  0.60547  0.56139  1.0000
  H   H209      1.0  0.18161  0.69166  0.64914  1.0000
  H   H210      1.0  0.15207  0.73942  0.67419  1.0000
  H   H211      1.0  0.07091  0.80902  0.58244  1.0000
  H   H212      1.0  0.23075  0.83141  0.62017  1.0000
  S   S25       1.0  0.06647  0.66101  0.36391  1.0000
  C   C117      1.0  0.09504  0.83233  0.57382  1.0000
  C   C118      1.0  0.14395  0.80713  0.57147  1.0000
  H   H213      1.0  0.14297  0.77898  0.55156  1.0000
  H   H214      1.0  0.30417  0.74961  0.60253  1.0000
  H   H215      1.0  0.27027  0.73764  0.54646  1.0000
  C   C119      1.0  0.21905  0.75053  0.65199  1.0000
  H   H216      1.0  0.24288  0.69571  0.49418  1.0000
  H   H217      1.0  0.24453  0.69814  0.59917  1.0000
  H   H218      1.0  0.16588  0.83099  0.56024  1.0000
  C   C120      1.0  0.16089  0.78837  0.60991  1.0000
  H   H219      1.0  0.29922  0.78648  0.64222  1.0000
  H   H220      1.0  0.31946  0.81375  0.56211  1.0000
  C   C121      1.0  0.23399  0.73169  0.54674  1.0000
  C   C122      1.0  0.23079  0.69005  0.52281  1.0000
  H   H221      1.0  0.19468  0.68353  0.52116  1.0000
  H   H222      1.0  0.25242  0.65990  0.53454  1.0000
  H   H223      1.0  0.18647  0.70825  0.58591  1.0000
  H   H224      1.0  0.31306  0.85108  0.60210  1.0000
  H   H225      1.0  0.13698  0.76448  0.61757  1.0000
  H   H226      1.0  0.15485  0.81652  0.63043  1.0000
  C   C123      1.0  0.24126  0.80003  0.60364  1.0000
  H   H227      1.0  0.13924  0.57685  0.64905  1.0000
  C   C124      1.0  0.21806  0.72457  0.58722  1.0000
  H   H228      1.0  0.08063  0.53465  0.62424  1.0000
  N   N8        1.0  0.21005  0.76564  0.61224  1.0000
  H   H229      1.0  0.35940  0.80467  0.60020  1.0000
  C   C125      1.0  0.32289  0.81557  0.59281  1.0000
  H   H230      1.0  0.25429  0.73160  0.65476  1.0000
  H   H231      1.0  0.08412  0.84597  0.54602  1.0000
  H   H232      1.0  0.05553  0.61376  0.50174  1.0000
  C   C126      1.0  0.01694  0.56015  0.52007  1.0000
  H   H233      1.0  0.01644  0.62853  0.44110  1.0000
  H   H234      1.0  0.04428  0.53413  0.50881  1.0000
  C   C127      1.0  0.01437  0.59666  0.45632  1.0000
  C   C128      1.0  0.02103  0.60383  0.49795  1.0000
  H   H235      1.0  0.04165  0.57051  0.44528  1.0000
  H   H236      1.0  0.02355  0.91480  0.66381  1.0000
  C   C129      1.0  0.01073  0.72951  0.53608  1.0000
  H   H237      1.0  0.21804  0.78027  0.67075  1.0000
  S   S26       1.0  0.04521  0.78451  0.66074  1.0000
  H   H238      1.0  0.01422  0.50250  0.41976  1.0000
  C   C130      1.0  0.43507  0.94363  0.97361  1.0000
  Fe  Fe13      1.0  0.06439  0.74172  0.71097  1.0000
  S   S27       1.0  0.10713  0.76515  0.75789  1.0000
  C   C131      1.0  0.12360  0.98894  0.87915  1.0000
  S   S28       1.0  0.07870  0.67596  0.67905  1.0000
  H   H239      1.0  0.46419  0.95011  0.81251  1.0000
  H   H240      1.0  0.13502  0.81784  0.69572  1.0000
  S   S29       1.0  0.34346  0.92912  0.82884  1.0000
  H   H241      1.0  0.19421  0.86913  0.69112  1.0000
  C   C132      1.0  0.18286  0.99639  0.69644  1.0000
  Fe  Fe14      1.0  0.29489  0.95771  0.87448  1.0000
  Fe  Fe15      1.0  0.28030  0.94028  0.79216  1.0000
  S   S30       1.0  0.25514  0.89985  0.74454  1.0000
  C   C133      1.0  0.41318  0.94232  0.93520  1.0000
  C   C134      1.0  0.48777  0.97444  0.80984  1.0000
  H   H242      1.0  0.13844  0.94428  0.74431  1.0000
  H   H243      1.0  0.02637  0.97595  0.79602  1.0000
  C   C135      1.0  0.11850  0.98738  0.80855  1.0000
  H   H244      1.0  0.47069  0.92579  0.97134  1.0000
  H   H245      1.0  0.38039  0.96588  0.93422  1.0000
  H   H246      1.0  0.40884  0.88510  0.99386  1.0000
  H   H247      1.0  0.09980  0.97858  0.71496  1.0000
  C   C136      1.0  0.05244  0.96391  0.77448  1.0000
  C   C137      1.0  0.14479  0.80616  0.75418  1.0000
  C   C138      1.0  0.16773  0.81827  0.78608  1.0000
  C   C139      1.0  0.20015  0.84848  0.78386  1.0000
  C   C140      1.0  0.21069  0.86614  0.74949  1.0000
  C   C141      1.0  0.18665  0.85523  0.71776  1.0000
  C   C142      1.0  0.15335  0.82594  0.72019  1.0000
  H   H248      1.0  0.16112  0.80343  0.81259  1.0000
  H   H249      1.0  0.21834  0.85657  0.80851  1.0000
  H   H250      1.0  0.08916  0.90594  0.80614  1.0000
  H   H251      1.0  0.14409  0.95473  0.87985  1.0000
  C   C143      1.0  0.28030  0.95385  0.97161  1.0000
  H   H252      1.0  0.43618  0.97951  0.98053  1.0000
  S   S31       1.0  0.23216  0.96367  0.83848  1.0000
  C   C144      1.0  0.04235  0.53989  0.70110  1.0000
  H   H253      1.0  0.08922  0.89800  0.75659  1.0000
  H   H254      1.0  0.03327  0.96667  0.74785  1.0000
  H   H255      1.0  0.14030  0.95373  0.80894  1.0000
  C   C145      1.0  0.06846  0.91267  0.78052  1.0000
  H   H256      1.0  0.23707  0.67628  0.70127  1.0000
  C   C146      1.0  0.12053  0.97934  0.74074  1.0000
  S   S32       1.0  0.29654  0.92310  0.93059  1.0000
  C   C147      1.0  0.40777  0.92067  0.00311  1.0000
  H   H257      1.0  0.06280  0.56633  0.70679  1.0000
  H   H258      1.0  0.43652  0.95263  0.91371  1.0000
  H   H259      1.0  0.20935  0.72597  0.72555  1.0000
  H   H260      1.0  0.40637  0.90773  0.92824  1.0000
  H   H261      1.0  0.19615  0.95980  0.69496  1.0000
  H   H262      1.0  0.03984  0.85044  0.78723  1.0000
  H   H263      1.0  0.37107  0.93551  0.00099  1.0000
  C   C148      1.0  0.02754  0.88709  0.78385  1.0000
  N   N9        1.0  0.08996  0.99321  0.77366  1.0000
  H   H264      1.0  0.06814  0.96788  0.84878  1.0000
  H   H265      1.0  0.17880  0.67907  0.71745  1.0000
  C   C149      1.0  0.20417  0.69901  0.70539  1.0000
  H   H266      1.0  0.10330  0.99389  0.90521  1.0000
  C   C150      1.0  0.27844  0.93030  0.00515  1.0000
  H   H267      1.0  0.28548  0.89381  0.00521  1.0000
  C   C151      1.0  0.09139  0.99362  0.84569  1.0000
  S   S33       1.0  0.93072  0.24962  0.31276  1.0000
  H   H268      1.0  0.80869  0.11374  0.12319  1.0000
  H   H269      1.0  0.94978  0.13630  0.13951  1.0000
  Fe  Fe16      1.0  0.97319  0.20793  0.26952  1.0000
  S   S34       1.0  0.95590  0.15615  0.22741  1.0000
  Fe  Fe17      1.0  0.73743  0.04251  0.18171  1.0000
  S   S35       1.0  0.57625  0.01013  0.16889  1.0000
  S   S36       1.0  0.75448  0.10932  0.20316  1.0000
  H   H270      1.0  0.86283  0.09554  0.29331  1.0000
  C   C152      1.0  0.97440  0.42338  0.30044  1.0000
  S   S37       1.0  0.94281  0.37833  0.29164  1.0000
  H   H271      1.0  0.59754  0.01906  0.29254  1.0000
  H   H272      1.0  0.71852  0.14439  0.08119  1.0000
  H   H273      1.0  0.93469  0.02170  0.32720  1.0000
  S   S38       1.0  0.69013  0.03519  0.13378  1.0000
  Fe  Fe18      1.0  0.97345  0.30442  0.29846  1.0000
  H   H274      1.0  0.87324  0.13853  0.11279  1.0000
  H   H275      1.0  0.77052  0.07750  0.10556  1.0000
  C   C153      1.0  0.89741  0.08125  0.30342  1.0000
  H   H276      1.0  0.88649  0.04173  0.00788  1.0000
  H   H277      1.0  0.89215  0.12833  0.04739  1.0000
  C   C154      1.0  0.81087  0.12074  0.21078  1.0000
  C   C155      1.0  0.81730  0.16002  0.23025  1.0000
  C   C156      1.0  0.86158  0.17098  0.23608  1.0000
  C   C157      1.0  0.89977  0.14304  0.22190  1.0000
  C   C158      1.0  0.89341  0.10359  0.20259  1.0000
  C   C159      1.0  0.84916  0.09222  0.19730  1.0000
  H   H278      1.0  0.78782  0.18223  0.24077  1.0000
  H   H279      1.0  0.86608  0.20140  0.25104  1.0000
  H   H280      1.0  0.92294  0.08160  0.19196  1.0000
  H   H281      1.0  0.84461  0.06180  0.18245  1.0000
  H   H282      1.0  0.92034  0.47421  0.28088  1.0000
  C   C160      1.0  0.57969  0.05211  0.30268  1.0000
  H   H283      1.0  0.97457  0.09787  0.10397  1.0000
  H   H284      1.0  0.74450  0.07112  0.28345  1.0000
  C   C161      1.0  0.85256  0.06139  0.01479  1.0000
  H   H285      1.0  0.92165  0.07909  0.27968  1.0000
  H   H286      1.0  0.81813  0.01793  0.07088  1.0000
  H   H287      1.0  0.54381  0.06794  0.25175  1.0000
  C   C162      1.0  0.94633  0.12571  0.11014  1.0000
  H   H288      1.0  0.92420  0.07455  0.05423  1.0000
  H   H289      1.0  0.59003  0.01188  0.04681  1.0000
  N   N10       1.0  0.85065  0.07512  0.05536  1.0000
  C   C163      1.0  0.84946  0.03287  0.07800  1.0000
  C   C164      1.0  0.80732  0.10827  0.06154  1.0000
  C   C165      1.0  0.91272  0.11465  0.33124  1.0000
  C   C166      1.0  0.89270  0.09676  0.06366  1.0000
  C   C167      1.0  0.89968  0.10999  0.10462  1.0000
  H   H290      1.0  0.57323  0.04997  0.33300  1.0000
  H   H291      1.0  0.75664  0.18108  0.10020  1.0000
  C   C168      1.0  0.78448  0.10946  0.10050  1.0000
  C   C169      1.0  0.74434  0.14792  0.10308  1.0000
  H   H292      1.0  0.94963  0.15504  0.09200  1.0000
  H   H293      1.0  0.72727  0.14705  0.13052  1.0000
  C   C170      1.0  0.95416  0.46802  0.29317  1.0000
  H   H294      1.0  0.89835  0.08120  0.12362  1.0000
  H   H295      1.0  0.84616  0.04044  0.10814  1.0000
  H   H296      1.0  0.81316  0.14316  0.05434  1.0000
  H   H297      1.0  0.77986  0.10065  0.04244  1.0000
  H   H298      1.0  0.71745  0.04397  0.05628  1.0000
  H   H299      1.0  0.90002  0.02376  0.24473  1.0000
  C   C171      1.0  0.53473  0.06539  0.28161  1.0000
  H   H300      1.0  0.92331  0.00760  0.08243  1.0000
  H   H301      1.0  0.82634  0.04298  0.26544  1.0000
  H   H302      1.0  0.51911  0.09920  0.29136  1.0000
  C   C172      1.0  0.79698  0.03555  0.31983  1.0000
  H   H303      1.0  0.60267  0.07786  0.29794  1.0000
  H   H304      1.0  0.82678  0.03845  0.00895  1.0000
  C   C173      1.0  0.72781  0.03153  0.02894  1.0000
  H   H305      1.0  0.72552  0.06210  0.33012  1.0000
  C   C174      1.0  0.82867  0.01650  0.28734  1.0000
  C   C175      1.0  0.89803  0.03388  0.32099  1.0000
  H   H306      1.0  0.73410  0.01554  0.29790  1.0000
  H   H307      1.0  0.80741  0.06713  0.33091  1.0000
  H   H308      1.0  0.91284  0.14780  0.31745  1.0000
  C   C176      1.0  0.74726  0.04675  0.30691  1.0000
  S   S39       1.0  0.69761  0.00421  0.22021  1.0000
  C   C177      1.0  0.89383  0.34281  0.38380  1.0000
  C   C178      1.0  0.98405  0.43952  0.41840  1.0000
  C   C179      1.0  0.99124  0.27493  0.44607  1.0000
  H   H309      1.0  0.99558  0.33701  0.47528  1.0000
  C   C180      1.0  0.98876  0.28329  0.51356  1.0000
  H   H310      1.0  0.87139  0.42786  0.40397  1.0000
  S   S40       1.0  0.00509  0.22558  0.63910  1.0000
  H   H311      1.0  0.83379  0.10005  0.65688  1.0000
  C   C181      1.0  0.92758  0.37232  0.39923  1.0000
  H   H312      1.0  0.98292  0.22278  0.54427  1.0000
  H   H313      1.0  0.86162  0.34741  0.40027  1.0000
  H   H314      1.0  0.94800  0.10266  0.34134  1.0000
  C   C182      1.0  0.98560  0.23733  0.51700  1.0000
  H   H315      1.0  0.90649  0.39647  0.47664  1.0000
  H   H316      1.0  0.90927  0.30673  0.38542  1.0000
  S   S41       1.0  0.98305  0.19530  0.40969  1.0000
  C   C183      1.0  0.98649  0.22937  0.44938  1.0000
  H   H317      1.0  0.91530  0.12511  0.61182  1.0000
  H   H318      1.0  0.99668  0.43312  0.38951  1.0000
  H   H319      1.0  0.92321  0.46855  0.53371  1.0000
  H   H320      1.0  0.91417  0.41144  0.54308  1.0000
  S   S42       1.0  0.96445  0.33258  0.65905  1.0000
  C   C184      1.0  0.92399  0.42532  0.48473  1.0000
  H   H321      1.0  0.88884  0.11955  0.35528  1.0000
  H   H322      1.0  0.99186  0.40637  0.43241  1.0000
  H   H323      1.0  0.86087  0.15971  0.61966  1.0000
  H   H324      1.0  0.88574  0.35123  0.35426  1.0000
  C   C185      1.0  0.90839  0.42328  0.39630  1.0000
  H   H325      1.0  0.86325  0.10870  0.59262  1.0000
  Fe  Fe19      1.0  0.00148  0.29375  0.61121  1.0000
  H   H326      1.0  0.93519  0.36174  0.42812  1.0000
  H   H327      1.0  0.95986  0.36495  0.38289  1.0000
  C   C186      1.0  0.99224  0.30176  0.47804  1.0000
  C   C187      1.0  0.89577  0.04907  0.65016  1.0000
  H   H328      1.0  0.87538  0.47220  0.45499  1.0000
  C   C188      1.0  0.87122  0.09838  0.65242  1.0000
  H   H329      1.0  0.88650  0.03380  0.62349  1.0000
  N   N11       1.0  0.93316  0.45605  0.41777  1.0000
  C   C189      1.0  0.98429  0.21050  0.48494  1.0000
  H   H330      1.0  0.79780  0.01089  0.34282  1.0000
  C   C190      1.0  0.90629  0.44014  0.52342  1.0000
  H   H331      1.0  0.96131  0.41401  0.48753  1.0000
  H   H332      1.0  0.88081  0.03765  0.34859  1.0000
  Fe  Fe20      1.0  0.98826  0.22512  0.35230  1.0000
  H   H333      1.0  0.94503  0.49716  0.37052  1.0000
  H   H334      1.0  0.93287  0.05176  0.64762  1.0000
  H   H335      1.0  0.99346  0.28959  0.41887  1.0000
  H   H336      1.0  0.90916  0.43046  0.36586  1.0000
  H   H337      1.0  0.92478  0.49484  0.46878  1.0000
  C   C191      1.0  0.87822  0.12435  0.61685  1.0000
  H   H338      1.0  0.86855  0.45055  0.52296  1.0000
  C   C192      1.0  0.91340  0.46426  0.45634  1.0000
  S   S43       1.0  0.98625  0.31943  0.55252  1.0000
  H   H339      1.0  0.98082  0.17519  0.48769  1.0000
  H   H340      1.0  0.00217  0.48121  0.46520  1.0000
  H   H341      1.0  0.80994  0.03295  0.63150  1.0000
  H   H342      1.0  0.99448  0.43038  0.58030  1.0000
  C   C193      1.0  0.76042  0.00270  0.66245  1.0000
  H   H343      1.0  0.85870  0.49789  0.37109  1.0000
  C   C194      1.0  0.81030  0.00611  0.65275  1.0000
  C   C195      1.0  0.92618  0.50061  0.39734  1.0000
  S   S44       1.0  0.80103  0.05464  0.83161  1.0000
  S   S45       1.0  0.93437  0.23793  0.73624  1.0000
  H   H344      1.0  0.96897  0.21166  0.81765  1.0000
  H   H345      1.0  0.94007  0.04802  0.71285  1.0000
  Fe  Fe21      1.0  0.75263  0.07577  0.78465  1.0000
  H   H346      1.0  0.93596  0.36407  0.93504  1.0000
  S   S46       1.0  0.76702  0.12426  0.73864  1.0000
  C   C196      1.0  0.84416  0.10029  0.98588  1.0000
  C   C197      1.0  0.95543  0.38011  0.79686  1.0000
  H   H347      1.0  0.58494  0.15851  0.91213  1.0000
  Fe  Fe22      1.0  0.97393  0.26505  0.68862  1.0000
  S   S47       1.0  0.68897  0.08193  0.82069  1.0000
  H   H348      1.0  0.97350  0.38925  0.73820  1.0000
  C   C198      1.0  0.53597  0.01751  0.91083  1.0000
  N   N12       1.0  0.58146  0.01919  0.92958  1.0000
  H   H349      1.0  0.92287  0.37512  0.81085  1.0000
  H   H350      1.0  0.70588  0.09536  0.00194  1.0000
  C   C199      1.0  0.54970  0.03694  0.80229  1.0000
  H   H351      1.0  0.57328  0.06117  0.79901  1.0000
  S   S48       1.0  0.72739  0.08277  0.92468  1.0000
  Fe  Fe23      1.0  0.73752  0.05451  0.86635  1.0000
  H   H352      1.0  0.87191  0.38996  0.75729  1.0000
  C   C200      1.0  0.88907  0.20476  0.73515  1.0000
  C   C201      1.0  0.88194  0.17842  0.76639  1.0000
  C   C202      1.0  0.84494  0.15350  0.76780  1.0000
  C   C203      1.0  0.81412  0.15514  0.73814  1.0000
  C   C204      1.0  0.82101  0.18173  0.70700  1.0000
  C   C205      1.0  0.85860  0.20599  0.70526  1.0000
  H   H353      1.0  0.90492  0.17759  0.78985  1.0000
  H   H354      1.0  0.83972  0.13373  0.79212  1.0000
  H   H355      1.0  0.57519  0.08867  0.94918  1.0000
  H   H356      1.0  0.64191  0.13284  0.89848  1.0000
  H   H357      1.0  0.94791  0.29869  0.80885  1.0000
  H   H358      1.0  0.88919  0.06776  0.94243  1.0000
  C   C206      1.0  0.90538  0.03871  0.71745  1.0000
  H   H359      1.0  0.94604  0.34012  0.74636  1.0000
  C   C207      1.0  0.94659  0.37577  0.75453  1.0000
  C   C208      1.0  0.58877  0.09017  0.88995  1.0000
  H   H360      1.0  0.60023  0.15268  0.86361  1.0000
  H   H361      1.0  0.84369  0.11003  0.92605  1.0000
  H   H362      1.0  0.60877  0.06973  0.86821  1.0000
  C   C209      1.0  0.92346  0.03234  0.78644  1.0000
  C   C210      1.0  0.96814  0.36134  0.91856  1.0000
  H   H363      1.0  0.63631  0.03277  0.99349  1.0000
  C   C211      1.0  0.59459  0.06612  0.92822  1.0000
  C   C212      1.0  0.60495  0.13635  0.89131  1.0000
  H   H364      1.0  0.83086  0.05572  0.94027  1.0000
  H   H365      1.0  0.93793  0.33368  0.87083  1.0000
  H   H366      1.0  0.53849  0.02380  0.88049  1.0000
  H   H367      1.0  0.92396  0.00993  0.81108  1.0000
  H   H368      1.0  0.98631  0.39010  0.92604  1.0000
  H   H369      1.0  0.89613  0.40007  0.71267  1.0000
  H   H370      1.0  0.99326  0.10949  0.75642  1.0000
  C   C213      1.0  0.85260  0.08220  0.94633  1.0000
  C   C214      1.0  0.90081  0.40304  0.74317  1.0000
  C   C215      1.0  0.72134  0.06061  0.99812  1.0000
  C   C216      1.0  0.98549  0.30019  0.80785  1.0000
  H   H371      1.0  0.63116  0.06524  0.93641  1.0000
  C   C217      1.0  0.73474  0.04496  0.96244  1.0000
  H   H372      1.0  0.96015  0.41584  0.80228  1.0000
  H   H373      1.0  0.96916  0.44418  0.68196  1.0000
  H   H374      1.0  0.88356  0.07109  0.72484  1.0000
  C   C218      1.0  0.90679  0.00855  0.75260  1.0000
  H   H375      1.0  0.55228  0.09600  0.88127  1.0000
  H   H376      1.0  0.93318  0.39412  0.87160  1.0000
  H   H377      1.0  0.99581  0.28795  0.77956  1.0000
  H   H378      1.0  0.90016  0.43929  0.75013  1.0000
  C   C219      1.0  0.95672  0.36231  0.87713  1.0000
  H   H379      1.0  0.86714  0.12590  0.99057  1.0000
  H   H380      1.0  0.95854  0.04039  0.78172  1.0000
  H   H381      1.0  0.80815  0.11746  0.98708  1.0000
  H   H382      1.0  0.89997  0.06399  0.79248  1.0000
  C   C220      1.0  0.98969  0.47063  0.68728  1.0000
  H   H383      1.0  0.55304  0.03145  0.98467  1.0000
  N   N13       1.0  0.99516  0.34811  0.81271  1.0000
  H   H384      1.0  0.98922  0.26854  0.86311  1.0000
  H   H385      1.0  0.98994  0.32914  0.92597  1.0000
  H   H386      1.0  0.81928  0.04925  0.69971  1.0000
  H   H387      1.0  0.00595  0.11633  0.70798  1.0000
  C   C221      1.0  0.00053  0.36075  0.85289  1.0000
  Fe  Fe24      1.0  0.68652  0.00900  0.80707  1.0000
  H   H388      1.0  0.74344  0.03477  0.67505  1.0000
  H   H389      1.0  0.86326  0.22654  0.68125  1.0000
  H   H390      1.0  0.79718  0.18350  0.68401  1.0000
  C   C222      1.0  0.83720  0.01712  0.68782  1.0000
  N   N14       1.0  0.88765  0.01930  0.68252  1.0000
  H   H391      1.0  0.88579  0.11618  0.67559  1.0000
  C   C223      1.0  0.00767  0.26431  0.83617  1.0000
  C   C224      1.0  0.00520  0.21646  0.82224  1.0000
  C   C225      1.0  0.57748  0.00571  0.96970  1.0000
  S   S49       1.0  0.74580  0.00481  0.76688  1.0000
  H   H392      1.0  0.91384  0.86295  0.32600  1.0000
  Fe  Fe25      1.0  0.97349  0.70205  0.29102  1.0000
  S   S50       1.0  0.92511  0.72382  0.24310  1.0000
  S   S51       1.0  0.69959  0.92666  0.15589  1.0000
  S   S52       1.0  0.78115  0.90397  0.25077  1.0000
  H   H393      1.0  0.85743  0.95961  0.22827  1.0000
  C   C226      1.0  0.87977  0.95651  0.31898  1.0000
  H   H394      1.0  0.94793  0.73071  0.16374  1.0000
  H   H395      1.0  0.57228  0.91504  0.18860  1.0000
  C   C227      1.0  0.88669  0.77501  0.24521  1.0000
  C   C228      1.0  0.86583  0.79346  0.21243  1.0000
  C   C229      1.0  0.83414  0.83355  0.21344  1.0000
  C   C230      1.0  0.82238  0.85489  0.24741  1.0000
  C   C231      1.0  0.84344  0.83654  0.28008  1.0000
  C   C232      1.0  0.87585  0.79710  0.27898  1.0000
  H   H396      1.0  0.87372  0.77641  0.18622  1.0000
  H   H397      1.0  0.81792  0.84723  0.18813  1.0000
  H   H398      1.0  0.83403  0.85249  0.30651  1.0000
  H   H399      1.0  0.89139  0.78300  0.30442  1.0000
  H   H400      1.0  0.60155  0.95306  0.03295  1.0000
  H   H401      1.0  0.00440  0.84982  0.18741  1.0000
  H   H402      1.0  0.90097  0.92087  0.25076  1.0000
  C   C233      1.0  0.92276  0.95097  0.20107  1.0000
  C   C234      1.0  0.89401  0.95395  0.23655  1.0000
  H   H403      1.0  0.91460  0.92240  0.18379  1.0000
  H   H404      1.0  0.96098  0.53903  0.29680  1.0000
  H   H405      1.0  0.95073  0.92633  0.30396  1.0000
  C   C235      1.0  0.88574  0.95421  0.09737  1.0000
  Fe  Fe26      1.0  0.73750  0.97167  0.12087  1.0000
  C   C236      1.0  0.00677  0.77947  0.20455  1.0000
  H   H406      1.0  0.95761  0.64848  0.17513  1.0000
  H   H407      1.0  0.86085  0.93231  0.30403  1.0000
  H   H408      1.0  0.98041  0.72220  0.12159  1.0000
  C   C237      1.0  0.97713  0.50483  0.30209  1.0000
  S   S53       1.0  0.78835  0.98275  0.16556  1.0000
  C   C238      1.0  0.61470  0.98598  0.03238  1.0000
  H   H409      1.0  0.91683  0.92854  0.09497  1.0000
  C   C239      1.0  0.53210  0.97582  0.16818  1.0000
  H   H410      1.0  0.94707  0.84868  0.23801  1.0000
  S   S54       1.0  0.75938  0.94977  0.06242  1.0000
  Fe  Fe27      1.0  0.74666  0.94333  0.20194  1.0000
  C   C240      1.0  0.53852  0.93091  0.18019  1.0000
  H   H411      1.0  0.55485  0.85977  0.11247  1.0000
  H   H412      1.0  0.64763  0.98213  0.04791  1.0000
  C   C241      1.0  0.54054  0.86250  0.08386  1.0000
  H   H413      1.0  0.93060  0.66391  0.13123  1.0000
  C   C242      1.0  0.74815  0.98669  0.02429  1.0000
  H   H414      1.0  0.99240  0.82885  0.27034  1.0000
  H   H415      1.0  0.85572  0.93868  0.08794  1.0000
  H   H416      1.0  0.95992  0.94512  0.20771  1.0000
  H   H417      1.0  0.56455  0.87812  0.06589  1.0000
  H   H418      1.0  0.97111  0.78245  0.19426  1.0000
  C   C243      1.0  0.98390  0.84863  0.24457  1.0000
  H   H419      1.0  0.00758  0.79405  0.13401  1.0000
  H   H420      1.0  0.91498  0.98272  0.18489  1.0000
  Fe  Fe28      1.0  0.65418  0.99124  0.17117  1.0000
  C   C244      1.0  0.96318  0.66211  0.14702  1.0000
  C   C245      1.0  0.97693  0.70926  0.15018  1.0000
  H   H421      1.0  0.99008  0.88374  0.24983  1.0000
  H   H422      1.0  0.81265  0.98872  0.27458  1.0000
  H   H423      1.0  0.53790  0.82795  0.07363  1.0000
  H   H424      1.0  0.88083  0.96403  0.12694  1.0000
  H   H425      1.0  0.94290  0.98706  0.26785  1.0000
  C   C246      1.0  0.92848  0.93209  0.32881  1.0000
  S   S55       1.0  0.00750  0.75091  0.32483  1.0000
  C   C247      1.0  0.90544  0.99267  0.26193  1.0000
  H   H426      1.0  0.99006  0.63875  0.13233  1.0000
  H   H427      1.0  0.89519  0.98319  0.04444  1.0000
  S   S56       1.0  0.95902  0.65882  0.33960  1.0000
  H   H428      1.0  0.00701  0.76163  0.23177  1.0000
  H   H429      1.0  0.52094  0.99833  0.27404  1.0000
  C   C248      1.0  0.89129  0.99525  0.07356  1.0000
  N   N15       1.0  0.87803  0.99993  0.29737  1.0000
  H   H430      1.0  0.89226  0.56015  0.34070  1.0000
  H   H431      1.0  0.97584  0.51364  0.57028  1.0000
  H   H432      1.0  0.94089  0.52699  0.41321  1.0000
  C   C249      1.0  0.98454  0.73487  0.50336  1.0000
  C   C250      1.0  0.93713  0.60354  0.56587  1.0000
  H   H433      1.0  0.94825  0.74741  0.50492  1.0000
  H   H434      1.0  0.99504  0.63236  0.50684  1.0000
  H   H435      1.0  0.93270  0.60572  0.53532  1.0000
  C   C251      1.0  0.01056  0.51997  0.57876  1.0000
  Fe  Fe29      1.0  0.97389  0.77038  0.67260  1.0000
  H   H436      1.0  0.94526  0.95224  0.34916  1.0000
  H   H437      1.0  0.91877  0.67633  0.57263  1.0000
  C   C252      1.0  0.90749  0.64465  0.58278  1.0000
  C   C253      1.0  0.92648  0.88601  0.34641  1.0000
  S   S57       1.0  0.97018  0.72947  0.42853  1.0000
  H   H438      1.0  0.87112  0.64490  0.57465  1.0000
  H   H439      1.0  0.85793  0.69788  0.65011  1.0000
  S   S58       1.0  0.98036  0.70857  0.63676  1.0000
  C   C254      1.0  0.96487  0.96710  0.67142  1.0000
  H   H440      1.0  0.85573  0.52792  0.41467  1.0000
  H   H441      1.0  0.90978  0.64345  0.61359  1.0000
  H   H442      1.0  0.98404  0.54843  0.51237  1.0000
  H   H443      1.0  0.92341  0.57317  0.57594  1.0000
  H   H444      1.0  0.96140  0.87062  0.35521  1.0000
  H   H445      1.0  0.88959  0.59055  0.38432  1.0000
  C   C255      1.0  0.00492  0.72393  0.46866  1.0000
  C   C256      1.0  0.87579  0.52094  0.38869  1.0000
  H   H446      1.0  0.90375  0.88921  0.37120  1.0000
  H   H447      1.0  0.99898  0.63507  0.56984  1.0000
  H   H448      1.0  0.74144  0.99604  0.63686  1.0000
  C   C257      1.0  0.98583  0.91753  0.66748  1.0000
  H   H449      1.0  0.98016  0.58673  0.45073  1.0000
  H   H450      1.0  0.83763  0.75729  0.65465  1.0000
  H   H451      1.0  0.82541  0.97345  0.64026  1.0000
  H   H452      1.0  0.89945  0.95893  0.64851  1.0000
  C   C258      1.0  0.83615  0.72356  0.66707  1.0000
  Fe  Fe30      1.0  0.99869  0.70420  0.37260  1.0000
  C   C259      1.0  0.87386  0.56553  0.36767  1.0000
  H   H453      1.0  0.97497  0.98494  0.64642  1.0000
  H   H454      1.0  0.80032  0.71619  0.66626  1.0000
  H   H455      1.0  0.83761  0.57971  0.36189  1.0000
  H   H456      1.0  0.98859  0.60125  0.60822  1.0000
  H   H457      1.0  0.86132  0.96278  0.34585  1.0000
  C   C260      1.0  0.98810  0.60207  0.57729  1.0000
  H   H458      1.0  0.00884  0.52270  0.60963  1.0000
  S   S59       1.0  0.91118  0.82306  0.66798  1.0000
  H   H459      1.0  0.99457  0.73838  0.56250  1.0000
  H   H460      1.0  0.97134  0.90194  0.64296  1.0000
  H   H461      1.0  0.80748  0.71851  0.81888  1.0000
  H   H462      1.0  0.78072  0.68442  0.74200  1.0000
  S   S60       1.0  0.73172  0.98231  0.85467  1.0000
  H   H463      1.0  0.93029  0.97640  0.74885  1.0000
  C   C261      1.0  0.75221  0.66346  0.79268  1.0000
  S   S61       1.0  0.85241  0.92980  0.81607  1.0000
  C   C262      1.0  0.90004  0.75006  0.82074  1.0000
  H   H464      1.0  0.68737  0.91304  0.90940  1.0000
  H   H465      1.0  0.65173  0.87161  0.89606  1.0000
  C   C263      1.0  0.89567  0.85389  0.70867  1.0000
  C   C264      1.0  0.85317  0.88173  0.71052  1.0000
  C   C265      1.0  0.83977  0.90581  0.74318  1.0000
  C   C266      1.0  0.86869  0.90188  0.77415  1.0000
  C   C267      1.0  0.91096  0.87378  0.77231  1.0000
  C   C268      1.0  0.92473  0.85030  0.73950  1.0000
  H   H466      1.0  0.72220  0.65316  0.77805  1.0000
  H   H467      1.0  0.80669  0.92655  0.74458  1.0000
  H   H468      1.0  0.93291  0.86986  0.79650  1.0000
  H   H469      1.0  0.95758  0.82890  0.73827  1.0000
  S   S62       1.0  0.96811  0.60779  0.69363  1.0000
  H   H470      1.0  0.98039  0.98073  0.69614  1.0000
  C   C269      1.0  0.65567  0.90785  0.89429  1.0000
  H   H471      1.0  0.65926  0.91651  0.86455  1.0000
  H   H472      1.0  0.74070  0.67717  0.82038  1.0000
  H   H473      1.0  0.52643  0.98298  0.91244  1.0000
  C   C270      1.0  0.53541  0.95979  0.80797  1.0000
  H   H474      1.0  0.56217  0.97397  0.97195  1.0000
  S   S63       1.0  0.99197  0.73111  0.72465  1.0000
  H   H475      1.0  0.77835  0.63310  0.79639  1.0000
  H   H476      1.0  0.96281  0.70191  0.81427  1.0000
  H   H477      1.0  0.61107  0.92505  0.94040  1.0000
  C   C271      1.0  0.74528  0.85846  0.80398  1.0000
  C   C272      1.0  0.61376  0.93666  0.91138  1.0000
  H   H478      1.0  0.84145  0.68261  0.78748  1.0000
  H   H479      1.0  0.00634  0.89905  0.80842  1.0000
  H   H480      1.0  0.90155  0.71523  0.76830  1.0000
  C   C273      1.0  0.81497  0.71324  0.78871  1.0000
  H   H481      1.0  0.54817  0.92406  0.80916  1.0000
  C   C274      1.0  0.56658  0.99086  0.80391  1.0000
  H   H482      1.0  0.77734  0.93644  0.98478  1.0000
  H   H483      1.0  0.74047  0.78819  0.80029  1.0000
  C   C275      1.0  0.88460  0.74812  0.77964  1.0000
  H   H484      1.0  0.83517  0.79184  0.72199  1.0000
  C   C276      1.0  0.96949  0.51627  0.68618  1.0000
  C   C277      1.0  0.61805  0.98767  0.90943  1.0000
  H   H485      1.0  0.75102  0.81492  0.75654  1.0000
  H   H486      1.0  0.85317  0.68770  0.71830  1.0000
  H   H487      1.0  0.88305  0.72689  0.83826  1.0000
  H   H488      1.0  0.89045  0.72762  0.70565  1.0000
  H   H489      1.0  0.74424  0.72801  0.76587  1.0000
  C   C278      1.0  0.85404  0.72199  0.70694  1.0000
  H   H490      1.0  0.75293  0.85779  0.83422  1.0000
  C   C279      1.0  0.76033  0.81208  0.78635  1.0000
  C   C280      1.0  0.77180  0.69920  0.76982  1.0000
  H   H491      1.0  0.97016  0.76047  0.80816  1.0000
  H   H492      1.0  0.90010  0.77434  0.76434  1.0000
  H   H493      1.0  0.89170  0.78496  0.83181  1.0000
  H   H494      1.0  0.70775  0.86851  0.80025  1.0000
  H   H495      1.0  0.78934  0.76057  0.72404  1.0000
  C   C281      1.0  0.95194  0.73692  0.82436  1.0000
  H   H496      1.0  0.83051  0.82500  0.78322  1.0000
  H   H497      1.0  0.81692  0.79390  0.82264  1.0000
  C   C282      1.0  0.82602  0.75892  0.73143  1.0000
  S   S64       1.0  0.62592  0.97027  0.79977  1.0000
  N   N16       1.0  0.83344  0.75375  0.77282  1.0000
  H   H498      1.0  0.96211  0.73878  0.85397  1.0000
  H   H499      1.0  0.61828  0.99633  0.87939  1.0000
  H   H500      1.0  0.64916  0.97435  0.98008  1.0000
  H   H501      1.0  0.76303  0.88451  0.79062  1.0000
  H   H502      1.0  0.58316  0.92958  0.89571  1.0000
  C   C283      1.0  0.81233  0.79675  0.79202  1.0000
  H   H503      1.0  0.65286  0.99228  0.91944  1.0000
  H   H504      1.0  0.76578  0.98772  0.93051  1.0000
  C   C284      1.0  0.99565  0.55109  0.69323  1.0000
  H   H505      1.0  0.93331  0.52464  0.68012  1.0000
  H   H506      1.0  0.83228  0.99115  0.70885  1.0000
  C   C285      1.0  0.76136  0.97104  0.98857  1.0000
  Fe  Fe31      1.0  0.79078  0.98422  0.81580  1.0000
  Fe  Fe32      1.0  0.00441  0.66955  0.68787  1.0000
  H   H507      1.0  0.83045  0.88441  0.68675  1.0000
  H   H508      1.0  0.00620  0.89179  0.75838  1.0000
  C   C286      1.0  0.62265  0.00025  0.99238  1.0000
  C   C287      1.0  0.75460  0.00000  0.95773  1.0000
  H   H509      1.0  0.87211  0.00067  0.75929  1.0000
  H   H510      1.0  0.90337  0.94856  0.69662  1.0000
  H   H511      1.0  0.97904  0.89831  0.69270  1.0000
  C   C288      1.0  0.91189  0.97223  0.67488  1.0000
  H   H512      1.0  0.75860  0.97456  0.68224  1.0000
