data_image0
_chemical_formula_structural       FeSH3C2HC2HCFeC3HFeCHCH6SH3CSH2CHSH5CH3SHC2HFeC2HCH2SCHCHCHCSCHSFeCHCHCSH3CSHC3FeC2SH5NC2H13CH4CH2CHCH2SH3CHCHCH2SH2CNH3CH5CH3CHCNH3SCSH5CH2C2HC2H2C4H6CHCHNH2C2H2CHFeH2C2H3C2FeH2CH3CH4SFeC2HSCSCHCH2CSCSHC2HSCH3FeC2H6CNH3S2HCHCFeH2SHSH2CH2FeC2SC2HC2FeCHFeC4HCH3FeH3CH2CH4C2H2C2HCH3CH3CHCH4C4H5CSFeH6CH4CHNCHC3H8CH2CH7CHCH2CH2C4SNH5CSH2FeSHCHC3H2SHCHCHCHCSH2CS2HC2H2FeH2FeH3FeCHNHC4H3CH2C2HSH6CHCSH2SFeH2CFe2SCHNC2H5CNC2SC2H2CH4CH5CHCH2CH2CHSCHCNH3CH3CH9CH4C2H4CH2NHCHC3HC3HC2H2C2SH4FeH5C2H3CHFeCSFeC3SH2SC2H2C3FeC2HCHCHC2HSCHSH2CHCS2H2FeH2C3H3C2H2CH5SH2SHC2H2SH4NH3CHSC3FeH2CH2C4SH2CHC4H3SH3FeCH4CH2FeH2CH3CH2CH3CH4C2S2CSH2C3H2CHCHCNCHCH2CH3SC2HCH2CHCHCHC2HCHC3HCH2SH2C2FeH3C2HCSHCH2SH2FeH2FeH4FeH2SH2FeSH2CSHCH7C2H3NH13C2HCH3CHC3HCHCHFeS2HC3H2CHC2HCH2C3HCHCHC2HCHCHCHFeSHCH4CH2CH3CH2SH4SHSCSCH6CHCNHCHCH2CHCSCHCHCHCH5C2NHC2SHFeC2H3SHNCHCHCH5CSH4CS2FeCH2S2HCH3C4H4CSFeHCHCHCHC2H2CH2FeHSCH3CH2CHCH6CHSH2CHC2SC3H5FeHC2H4FeH8C3HCH2CH3CSH2CSCNHCH4C2H2FeCSH2CHCHCNH2CHCH4C2HCS2HCH4C2HC2H2CHC2H3CNH5CHC2H6CH3C2SH2CH3C2H2SH4CHSC2H4C3H4FeH2C2HCHCH2CH4CH2CHCFeH2FeH4C2HC2HCHCH2CH2SCHCSH6CH4CHNH2CH4CSCH2CHCHC3H2C2HCH4CH3C2H2CH2C4H8CH6SH2NC3H4C2HNHSH2
_chemical_formula_sum              "Fe48 S96 H768 C432 N24"
_cell_length_a       25.0505
_cell_length_b       27.6802
_cell_length_c       28.4018
_cell_angle_alpha    79.2237
_cell_angle_beta     83.8693
_cell_angle_gamma    96.7456

_space_group_name_H-M_alt    "P 1"
_space_group_IT_number       1

loop_
  _space_group_symop_operation_xyz
  'x, y, z'

loop_
  _atom_site_type_symbol
  _atom_site_label
  _atom_site_symmetry_multiplicity
  _atom_site_fract_x
  _atom_site_fract_y
  _atom_site_fract_z
  _atom_site_occupancy
  Fe  Fe1       1.0  0.28328  0.16718  0.60332  1.0000
  S   S1        1.0  0.39280  0.07914  0.60020  1.0000
  H   H1        1.0  0.51062  0.31372  0.59860  1.0000
  H   H2        1.0  0.32756  0.36137  0.62415  1.0000
  H   H3        1.0  0.50149  0.12445  0.65319  1.0000
  C   C1        1.0  0.08712  0.12276  0.59245  1.0000
  C   C2        1.0  0.07960  0.30601  0.52280  1.0000
  H   H4        1.0  0.24331  0.34816  0.59194  1.0000
  C   C3        1.0  0.25901  0.25261  0.67357  1.0000
  C   C4        1.0  0.26355  0.28987  0.70096  1.0000
  H   H5        1.0  0.44544  0.96871  0.66106  1.0000
  C   C5        1.0  0.51397  0.12445  0.68849  1.0000
  Fe  Fe2       1.0  0.17420  0.42225  0.69798  1.0000
  C   C6        1.0  0.44678  0.39880  0.69918  1.0000
  C   C7        1.0  0.52256  0.98304  0.51801  1.0000
  C   C8        1.0  0.18001  0.33606  0.51751  1.0000
  H   H6        1.0  0.06831  0.34388  0.52127  1.0000
  Fe  Fe3       1.0  0.07128  0.41956  0.65053  1.0000
  C   C9        1.0  0.37128  0.98978  0.50383  1.0000
  H   H7        1.0  0.06302  0.15680  0.73041  1.0000
  C   C10       1.0  0.53348  0.39501  0.72888  1.0000
  H   H8        1.0  0.16575  0.37013  0.52702  1.0000
  H   H9        1.0  0.43095  0.25697  0.52021  1.0000
  H   H10       1.0  0.07917  0.28816  0.56133  1.0000
  H   H11       1.0  0.29161  0.23080  0.66942  1.0000
  H   H12       1.0  0.53148  0.32911  0.65191  1.0000
  H   H13       1.0  0.19879  0.00134  0.69357  1.0000
  S   S2        1.0  0.37120  0.19450  0.60342  1.0000
  H   H14       1.0  0.40184  0.24036  0.69282  1.0000
  H   H15       1.0  0.18167  0.31134  0.55289  1.0000
  H   H16       1.0  0.55734  0.21192  0.60582  1.0000
  C   C11       1.0  0.22290  0.32025  0.70370  1.0000
  S   S3        1.0  0.43187  0.44734  0.61146  1.0000
  H   H17       1.0  0.20409  0.03836  0.73979  1.0000
  H   H18       1.0  0.51139  0.96818  0.62949  1.0000
  C   C12       1.0  0.32675  0.37777  0.58551  1.0000
  H   H19       1.0  0.06402  0.09320  0.57833  1.0000
  S   S4        1.0  0.15877  0.43034  0.62049  1.0000
  H   H20       1.0  0.34615  0.97918  0.64454  1.0000
  H   H21       1.0  0.14474  0.09441  0.69218  1.0000
  H   H22       1.0  0.13043  0.11707  0.58939  1.0000
  H   H23       1.0  0.50035  0.23847  0.69539  1.0000
  H   H24       1.0  0.47871  0.22561  0.64015  1.0000
  C   C13       1.0  0.17604  0.31087  0.68226  1.0000
  H   H25       1.0  0.45377  0.01017  0.55212  1.0000
  H   H26       1.0  0.55477  0.98331  0.69995  1.0000
  H   H27       1.0  0.13540  0.26730  0.63793  1.0000
  S   S5        1.0  0.21042  0.20634  0.60802  1.0000
  H   H28       1.0  0.35730  0.99613  0.54049  1.0000
  C   C14       1.0  0.43198  0.27266  0.67382  1.0000
  C   C15       1.0  0.48907  0.98324  0.65804  1.0000
  H   H29       1.0  0.10560  0.20334  0.57184  1.0000
  Fe  Fe4       1.0  0.30315  0.06205  0.59947  1.0000
  C   C16       1.0  0.51128  0.96706  0.70560  1.0000
  C   C17       1.0  0.46614  0.00036  0.51660  1.0000
  H   H30       1.0  0.41637  0.29070  0.64071  1.0000
  C   C18       1.0  0.52862  0.29858  0.63151  1.0000
  H   H31       1.0  0.25483  0.41129  0.52157  1.0000
  H   H32       1.0  0.32177  0.41750  0.58241  1.0000
  S   S6        1.0  0.23134  0.37253  0.73008  1.0000
  C   C19       1.0  0.12145  0.01653  0.72677  1.0000
  H   H33       1.0  0.25009  0.27326  0.51657  1.0000
  C   C20       1.0  0.47530  0.12439  0.72802  1.0000
  H   H34       1.0  0.09811  0.98229  0.72038  1.0000
  C   C21       1.0  0.47720  0.38284  0.73614  1.0000
  H   H35       1.0  0.28988  0.31186  0.56677  1.0000
  C   C22       1.0  0.27203  0.37750  0.51547  1.0000
  S   S7        1.0  0.08633  0.40492  0.72774  1.0000
  C   C23       1.0  0.08289  0.17217  0.55948  1.0000
  H   H36       1.0  0.14393  0.33326  0.68546  1.0000
  S   S8        1.0  0.29934  0.12822  0.54220  1.0000
  Fe  Fe5       1.0  0.38734  0.14888  0.54733  1.0000
  C   C24       1.0  0.28045  0.35001  0.56634  1.0000
  H   H37       1.0  0.36609  0.37476  0.56512  1.0000
  C   C25       1.0  0.06555  0.12306  0.64565  1.0000
  H   H38       1.0  0.29981  0.29697  0.71757  1.0000
  C   C26       1.0  0.47285  0.42531  0.65424  1.0000
  S   S9        1.0  0.40557  0.12220  0.72560  1.0000
  H   H39       1.0  0.13672  0.05373  0.65175  1.0000
  H   H40       1.0  0.09371  0.15212  0.65634  1.0000
  H   H41       1.0  0.32629  0.44485  0.66033  1.0000
  C   C27       1.0  0.17998  0.00688  0.72905  1.0000
  S   S10       1.0  0.25265  0.99154  0.59439  1.0000
  H   H42       1.0  0.49451  0.02442  0.64761  1.0000
  C   C28       1.0  0.11766  0.06179  0.68620  1.0000
  C   C29       1.0  0.17109  0.27329  0.65563  1.0000
  C   C30       1.0  0.52945  0.43418  0.64561  1.0000
  Fe  Fe6       1.0  0.37152  0.12345  0.65602  1.0000
  C   C31       1.0  0.21354  0.24557  0.64959  1.0000
  C   C32       1.0  0.48634  0.25513  0.66112  1.0000
  S   S11       1.0  0.28225  0.09988  0.66032  1.0000
  H   H43       1.0  0.43625  0.29928  0.69823  1.0000
  H   H44       1.0  0.40294  0.39074  0.70548  1.0000
  H   H45       1.0  0.55188  0.25993  0.55682  1.0000
  H   H46       1.0  0.54973  0.45398  0.61066  1.0000
  H   H47       1.0  0.54908  0.03412  0.56415  1.0000
  N   N1        1.0  0.06121  0.07430  0.68101  1.0000
  C   C33       1.0  0.13558  0.30869  0.49415  1.0000
  C   C34       1.0  0.55981  0.41881  0.68303  1.0000
  H   H48       1.0  0.49077  0.02620  0.74072  1.0000
  H   H49       1.0  0.10049  0.17207  0.52194  1.0000
  H   H50       1.0  0.47911  0.34290  0.49768  1.0000
  H   H51       1.0  0.31228  0.39160  0.49349  1.0000
  H   H52       1.0  0.14372  0.27013  0.49397  1.0000
  H   H53       1.0  0.42951  0.26932  0.80990  1.0000
  H   H54       1.0  0.55732  0.12084  0.81584  1.0000
  H   H55       1.0  0.55792  0.97914  0.87352  1.0000
  H   H56       1.0  0.36113  0.37132  0.81042  1.0000
  H   H57       1.0  0.48358  0.02864  0.82705  1.0000
  H   H58       1.0  0.35043  0.19542  0.80168  1.0000
  H   H59       1.0  0.17759  0.43322  0.81218  1.0000
  H   H60       1.0  0.49213  0.27936  0.76908  1.0000
  C   C35       1.0  0.46342  0.25131  0.79576  1.0000
  H   H61       1.0  0.15153  0.20130  0.92961  1.0000
  H   H62       1.0  0.39079  0.00414  0.90899  1.0000
  H   H63       1.0  0.27364  0.03513  0.94478  1.0000
  H   H64       1.0  0.15064  0.41665  0.87570  1.0000
  C   C36       1.0  0.44420  0.25329  0.95144  1.0000
  H   H65       1.0  0.25073  0.15081  0.95454  1.0000
  H   H66       1.0  0.53467  0.15306  0.88540  1.0000
  C   C37       1.0  0.49276  0.22385  0.94555  1.0000
  H   H67       1.0  0.21814  0.23084  0.90512  1.0000
  C   C38       1.0  0.21293  0.16592  0.96287  1.0000
  H   H68       1.0  0.13157  0.10630  0.91414  1.0000
  H   H69       1.0  0.43189  0.43768  0.78966  1.0000
  S   S12       1.0  0.37257  0.09666  0.95076  1.0000
  H   H70       1.0  0.49758  0.29832  0.86091  1.0000
  H   H71       1.0  0.17723  0.01108  0.90372  1.0000
  H   H72       1.0  0.35423  0.39209  0.91357  1.0000
  C   C39       1.0  0.40238  0.98816  0.83662  1.0000
  H   H73       1.0  0.10874  0.02161  0.89414  1.0000
  C   C40       1.0  0.52259  0.26775  0.85967  1.0000
  H   H74       1.0  0.54964  0.14292  0.94598  1.0000
  C   C41       1.0  0.11100  0.25931  0.79712  1.0000
  H   H75       1.0  0.37584  0.14748  0.84205  1.0000
  H   H76       1.0  0.44135  0.41955  0.91666  1.0000
  S   S13       1.0  0.50617  0.03109  0.95043  1.0000
  H   H77       1.0  0.19897  0.09575  0.91847  1.0000
  H   H78       1.0  0.45692  0.36272  0.77092  1.0000
  C   C42       1.0  0.49230  0.22775  0.83696  1.0000
  N   N2        1.0  0.53994  0.25014  0.90841  1.0000
  H   H79       1.0  0.33729  0.01817  0.87322  1.0000
  H   H80       1.0  0.50685  0.21390  0.98158  1.0000
  H   H81       1.0  0.07027  0.24671  0.81833  1.0000
  C   C43       1.0  0.15531  0.24475  0.82779  1.0000
  H   H82       1.0  0.21671  0.40288  0.85546  1.0000
  H   H83       1.0  0.53793  0.44557  0.93071  1.0000
  H   H84       1.0  0.40577  0.35079  0.85356  1.0000
  H   H85       1.0  0.10776  0.17570  0.86599  1.0000
  H   H86       1.0  0.47137  0.97257  0.87111  1.0000
  C   C44       1.0  0.14892  0.18744  0.84502  1.0000
  H   H87       1.0  0.43647  0.97916  0.74392  1.0000
  H   H88       1.0  0.46125  0.20163  0.86317  1.0000
  H   H89       1.0  0.32780  0.13055  0.80308  1.0000
  C   C45       1.0  0.45017  0.43943  0.87829  1.0000
  H   H90       1.0  0.46910  0.41292  0.85893  1.0000
  C   C46       1.0  0.17173  0.08009  0.85375  1.0000
  N   N3        1.0  0.19101  0.16748  0.87474  1.0000
  H   H91       1.0  0.11628  0.30037  0.78538  1.0000
  H   H92       1.0  0.10583  0.02272  0.76288  1.0000
  H   H93       1.0  0.42703  0.26235  0.91696  1.0000
  S   S14       1.0  0.13792  0.44709  0.98133  1.0000
  C   C47       1.0  0.49149  0.12388  0.77359  1.0000
  S   S15       1.0  0.15324  0.30736  0.98118  1.0000
  H   H94       1.0  0.11349  0.24265  0.76443  1.0000
  H   H95       1.0  0.46179  0.12351  0.80429  1.0000
  H   H96       1.0  0.39003  0.00355  0.80118  1.0000
  H   H97       1.0  0.33037  0.28515  0.85377  1.0000
  H   H98       1.0  0.32775  0.45996  0.94515  1.0000
  C   C48       1.0  0.35624  0.40619  0.87416  1.0000
  H   H99       1.0  0.15234  0.00301  0.84808  1.0000
  H   H100      1.0  0.14857  0.17188  0.81172  1.0000
  C   C49       1.0  0.32296  0.31636  0.87201  1.0000
  C   C50       1.0  0.17276  0.11243  0.89281  1.0000
  H   H101      1.0  0.52221  0.20662  0.82138  1.0000
  C   C51       1.0  0.41106  0.46597  0.80397  1.0000
  C   C52       1.0  0.19287  0.19373  0.91686  1.0000
  H   H102      1.0  0.30856  0.18121  0.88917  1.0000
  H   H103      1.0  0.19471  0.25944  0.80508  1.0000
  C   C53       1.0  0.36504  0.36172  0.84953  1.0000
  C   C54       1.0  0.15127  0.02566  0.87649  1.0000
  C   C55       1.0  0.38185  0.01914  0.87202  1.0000
  C   C56       1.0  0.18806  0.43045  0.84958  1.0000
  H   H104      1.0  0.15212  0.26376  0.85890  1.0000
  H   H105      1.0  0.28135  0.32497  0.86744  1.0000
  H   H106      1.0  0.44674  0.22217  0.77715  1.0000
  H   H107      1.0  0.25767  0.21871  0.83087  1.0000
  H   H108      1.0  0.32584  0.30432  0.91115  1.0000
  H   H109      1.0  0.31484  0.41543  0.86969  1.0000
  C   C57       1.0  0.29317  0.15745  0.86468  1.0000
  H   H110      1.0  0.47604  0.18773  0.93766  1.0000
  C   C58       1.0  0.46459  0.98917  0.83385  1.0000
  H   H111      1.0  0.40109  0.05839  0.86047  1.0000
  N   N4        1.0  0.39868  0.45153  0.85828  1.0000
  H   H112      1.0  0.14436  0.09207  0.82722  1.0000
  H   H113      1.0  0.21304  0.08187  0.83436  1.0000
  C   C59       1.0  0.33971  0.15800  0.82532  1.0000
  C   C60       1.0  0.48010  0.98519  0.74760  1.0000
  H   H114      1.0  0.24047  0.16470  0.80829  1.0000
  H   H115      1.0  0.53568  0.32378  0.92426  1.0000
  C   C61       1.0  0.24467  0.17806  0.84255  1.0000
  H   H116      1.0  0.28257  0.11864  0.88480  1.0000
  Fe  Fe7       1.0  0.06956  0.26621  0.98555  1.0000
  H   H117      1.0  0.32260  0.45701  0.79643  1.0000
  H   H118      1.0  0.55855  0.28491  0.83294  1.0000
  C   C62       1.0  0.26929  0.04784  0.97856  1.0000
  C   C63       1.0  0.54571  0.12263  0.78016  1.0000
  H   H119      1.0  0.18153  0.13456  0.98193  1.0000
  H   H120      1.0  0.25277  0.23330  0.98099  1.0000
  H   H121      1.0  0.38239  0.18901  0.97781  1.0000
  C   C64       1.0  0.06012  0.11922  0.75323  1.0000
  C   C65       1.0  0.55196  0.97308  0.79781  1.0000
  Fe  Fe8       1.0  0.43124  0.05250  0.98631  1.0000
  H   H122      1.0  0.33210  0.37618  0.99273  1.0000
  H   H123      1.0  0.45673  0.28821  0.96342  1.0000
  C   C66       1.0  0.39843  0.22339  0.98914  1.0000
  H   H124      1.0  0.18093  0.97273  0.75646  1.0000
  H   H125      1.0  0.10155  0.11221  0.75969  1.0000
  H   H126      1.0  0.36455  0.24549  0.99276  1.0000
  C   C67       1.0  0.31219  0.07821  0.99068  1.0000
  H   H127      1.0  0.36633  0.45684  0.74364  1.0000
  H   H128      1.0  0.18481  0.21066  0.01250  1.0000
  H   H129      1.0  0.37769  0.43928  0.05252  1.0000
  H   H130      1.0  0.41025  0.28101  0.09226  1.0000
  S   S16       1.0  0.39826  0.97468  0.02349  1.0000
  Fe  Fe9       1.0  0.54296  0.04370  0.01635  1.0000
  C   C68       1.0  0.22071  0.03363  0.01028  1.0000
  C   C69       1.0  0.14821  0.46041  0.11876  1.0000
  H   H131      1.0  0.24344  0.32746  0.02749  1.0000
  S   S17       1.0  0.40615  0.97519  0.16109  1.0000
  C   C70       1.0  0.31478  0.41407  0.11395  1.0000
  S   S18       1.0  0.21325  0.24044  0.10176  1.0000
  C   C71       1.0  0.21471  0.04999  0.05401  1.0000
  H   H132      1.0  0.29443  0.03546  0.16941  1.0000
  C   C72       1.0  0.33005  0.34387  0.02092  1.0000
  H   H133      1.0  0.50004  0.17866  0.20042  1.0000
  H   H134      1.0  0.09050  0.07362  0.22303  1.0000
  C   C73       1.0  0.32347  0.26252  0.09717  1.0000
  S   S19       1.0  0.11283  0.33176  0.08653  1.0000
  C   C74       1.0  0.37711  0.33133  0.03948  1.0000
  S   S20       1.0  0.52917  0.28785  0.09735  1.0000
  H   H135      1.0  0.41283  0.21362  0.02492  1.0000
  C   C75       1.0  0.25839  0.01455  0.19427  1.0000
  C   C76       1.0  0.09011  0.17172  0.21092  1.0000
  H   H136      1.0  0.25094  0.37275  0.19655  1.0000
  S   S21       1.0  0.43877  0.36767  0.01381  1.0000
  C   C77       1.0  0.34999  0.34147  0.19129  1.0000
  H   H137      1.0  0.25368  0.09268  0.10008  1.0000
  H   H138      1.0  0.06840  0.24583  0.21087  1.0000
  H   H139      1.0  0.30955  0.44278  0.03856  1.0000
  Fe  Fe10      1.0  0.11098  0.36551  0.00877  1.0000
  C   C78       1.0  0.27641  0.27527  0.07841  1.0000
  C   C79       1.0  0.51005  0.99407  0.18040  1.0000
  H   H140      1.0  0.46909  0.12132  0.18755  1.0000
  H   H141      1.0  0.22102  0.02664  0.18087  1.0000
  H   H142      1.0  0.31395  0.32009  0.18105  1.0000
  H   H143      1.0  0.38146  0.34770  0.15906  1.0000
  H   H144      1.0  0.51788  0.02004  0.14604  1.0000
  H   H145      1.0  0.41608  0.41477  0.21814  1.0000
  C   C80       1.0  0.37735  0.25613  0.21711  1.0000
  N   N5        1.0  0.33624  0.39056  0.20209  1.0000
  H   H146      1.0  0.06918  0.06749  0.16734  1.0000
  H   H147      1.0  0.18794  0.01025  0.00074  1.0000
  H   H148      1.0  0.32096  0.23048  0.12612  1.0000
  S   S22       1.0  0.51359  0.28113  0.23837  1.0000
  S   S23       1.0  0.49911  0.38962  0.13107  1.0000
  H   H149      1.0  0.08007  0.97685  0.17481  1.0000
  C   C81       1.0  0.10207  0.22818  0.19565  1.0000
  H   H150      1.0  0.40522  0.26101  0.18289  1.0000
  C   C82       1.0  0.07557  0.97528  0.21434  1.0000
  Fe  Fe11      1.0  0.09072  0.98036  0.07330  1.0000
  H   H151      1.0  0.34031  0.11616  0.04496  1.0000
  H   H152      1.0  0.54205  0.07890  0.23406  1.0000
  S   S24       1.0  0.47033  0.07219  0.04866  1.0000
  H   H153      1.0  0.08795  0.42987  0.07979  1.0000
  S   S25       1.0  0.06840  0.22479  0.06150  1.0000
  H   H154      1.0  0.24085  0.17945  0.02925  1.0000
  H   H155      1.0  0.27132  0.41783  0.12163  1.0000
  C   C83       1.0  0.55092  0.98911  0.21024  1.0000
  H   H156      1.0  0.31692  0.37545  0.10976  1.0000
  H   H157      1.0  0.33433  0.46435  0.15985  1.0000
  Fe  Fe12      1.0  0.14889  0.27060  0.05975  1.0000
  C   C84       1.0  0.22353  0.19975  0.99828  1.0000
  C   C85       1.0  0.37267  0.30633  0.23109  1.0000
  S   S26       1.0  0.15372  0.03464  0.09380  1.0000
  C   C86       1.0  0.12741  0.45131  0.07694  1.0000
  C   C87       1.0  0.27975  0.31634  0.04076  1.0000
  H   H158      1.0  0.33694  0.23748  0.21277  1.0000
  C   C88       1.0  0.50699  0.14071  0.19621  1.0000
  C   C89       1.0  0.30697  0.09325  0.03510  1.0000
  Fe  Fe13      1.0  0.44253  0.99297  0.08373  1.0000
  C   C90       1.0  0.45862  0.96657  0.19582  1.0000
  H   H159      1.0  0.53590  0.16763  0.12029  1.0000
  Fe  Fe14      1.0  0.50208  0.35905  0.06330  1.0000
  C   C91       1.0  0.33744  0.44818  0.06556  1.0000
  C   C92       1.0  0.27730  0.38587  0.22211  1.0000
  C   C93       1.0  0.25808  0.07963  0.06646  1.0000
  C   C94       1.0  0.37389  0.29098  0.07803  1.0000
  H   H160      1.0  0.39026  0.43534  0.14100  1.0000
  C   C95       1.0  0.34609  0.42802  0.15490  1.0000
  H   H161      1.0  0.12507  0.44551  0.15394  1.0000
  H   H162      1.0  0.10716  0.23924  0.15574  1.0000
  H   H163      1.0  0.26045  0.02353  0.23052  1.0000
  Fe  Fe15      1.0  0.53483  0.32214  0.16216  1.0000
  H   H164      1.0  0.14020  0.24202  0.20849  1.0000
  H   H165      1.0  0.12643  0.15607  0.19766  1.0000
  H   H166      1.0  0.26621  0.42286  0.22536  1.0000
  C   C96       1.0  0.55004  0.14619  0.15250  1.0000
  H   H167      1.0  0.06109  0.15188  0.99642  1.0000
  H   H168      1.0  0.11564  0.98722  0.22502  1.0000
  C   C97       1.0  0.37312  0.40964  0.23539  1.0000
  H   H169      1.0  0.41386  0.32298  0.23562  1.0000
  H   H170      1.0  0.55694  0.10925  0.14508  1.0000
  H   H171      1.0  0.55881  0.14854  0.02607  1.0000
  H   H172      1.0  0.28159  0.97101  0.12076  1.0000
  C   C98       1.0  0.52572  0.11235  0.24273  1.0000
  C   C99       1.0  0.55548  0.29007  0.42110  1.0000
  H   H173      1.0  0.54744  0.26603  0.33090  1.0000
  H   H174      1.0  0.34407  0.31988  0.48572  1.0000
  C   C100      1.0  0.36213  0.45904  0.25077  1.0000
  C   C101      1.0  0.37685  0.04047  0.46805  1.0000
  H   H175      1.0  0.32146  0.45450  0.27219  1.0000
  C   C102      1.0  0.42905  0.13835  0.34814  1.0000
  H   H176      1.0  0.47893  0.05365  0.35927  1.0000
  H   H177      1.0  0.19498  0.39119  0.29357  1.0000
  H   H178      1.0  0.42652  0.99418  0.32371  1.0000
  C   C103      1.0  0.43550  0.06619  0.27363  1.0000
  H   H179      1.0  0.47287  0.03602  0.48976  1.0000
  H   H180      1.0  0.38897  0.11795  0.34580  1.0000
  H   H181      1.0  0.46856  0.38694  0.28309  1.0000
  C   C104      1.0  0.50863  0.06757  0.32640  1.0000
  H   H182      1.0  0.44916  0.04607  0.24500  1.0000
  C   C105      1.0  0.55418  0.39394  0.29132  1.0000
  H   H183      1.0  0.35917  0.98932  0.26422  1.0000
  H   H184      1.0  0.50317  0.17095  0.30120  1.0000
  H   H185      1.0  0.18996  0.43366  0.36182  1.0000
  H   H186      1.0  0.46267  0.98390  0.43151  1.0000
  C   C106      1.0  0.53636  0.32736  0.44239  1.0000
  C   C107      1.0  0.25916  0.35006  0.27137  1.0000
  C   C108      1.0  0.20015  0.35275  0.28972  1.0000
  C   C109      1.0  0.41943  0.18891  0.35907  1.0000
  H   H187      1.0  0.40434  0.04147  0.43457  1.0000
  H   H188      1.0  0.45827  0.21061  0.36316  1.0000
  H   H189      1.0  0.48877  0.33325  0.31927  1.0000
  H   H190      1.0  0.21768  0.35703  0.41442  1.0000
  H   H191      1.0  0.29176  0.04819  0.48600  1.0000
  C   C110      1.0  0.20876  0.45575  0.38609  1.0000
  S   S27       1.0  0.45083  0.16770  0.48265  1.0000
  Fe  Fe16      1.0  0.52600  0.44698  0.44740  1.0000
  H   H192      1.0  0.44580  0.16424  0.27131  1.0000
  H   H193      1.0  0.40075  0.21050  0.32982  1.0000
  H   H194      1.0  0.37104  0.38224  0.26964  1.0000
  H   H195      1.0  0.18807  0.32749  0.32552  1.0000
  H   H196      1.0  0.54408  0.46496  0.24890  1.0000
  H   H197      1.0  0.32263  0.03175  0.29179  1.0000
  C   C111      1.0  0.40223  0.02494  0.31435  1.0000
  H   H198      1.0  0.48257  0.38754  0.34439  1.0000
  H   H199      1.0  0.39083  0.03883  0.34753  1.0000
  H   H200      1.0  0.40183  0.44725  0.31610  1.0000
  H   H201      1.0  0.55085  0.13052  0.35227  1.0000
  C   C112      1.0  0.32210  0.05231  0.45347  1.0000
  H   H202      1.0  0.44691  0.11882  0.37907  1.0000
  N   N6        1.0  0.48335  0.09752  0.28678  1.0000
  C   C113      1.0  0.35005  0.00312  0.29810  1.0000
  H   H203      1.0  0.32587  0.33324  0.42546  1.0000
  C   C114      1.0  0.20289  0.42500  0.43755  1.0000
  C   C115      1.0  0.31733  0.30660  0.46064  1.0000
  C   C116      1.0  0.33347  0.25707  0.45224  1.0000
  H   H204      1.0  0.30727  0.24084  0.42835  1.0000
  H   H205      1.0  0.32658  0.09116  0.43288  1.0000
  H   H206      1.0  0.23268  0.28271  0.45761  1.0000
  H   H207      1.0  0.17294  0.34128  0.26410  1.0000
  H   H208      1.0  0.39367  0.07036  0.48569  1.0000
  H   H209      1.0  0.08476  0.16269  0.25092  1.0000
  H   H210      1.0  0.34704  0.29956  0.26652  1.0000
  H   H211      1.0  0.28431  0.35926  0.29917  1.0000
  C   C117      1.0  0.46680  0.14442  0.30004  1.0000
  H   H212      1.0  0.32887  0.97154  0.32652  1.0000
  H   H213      1.0  0.54289  0.21261  0.41714  1.0000
  C   C118      1.0  0.55891  0.09472  0.34290  1.0000
  H   H214      1.0  0.40694  0.09030  0.25719  1.0000
  H   H215      1.0  0.39179  0.18354  0.39346  1.0000
  H   H216      1.0  0.15899  0.41288  0.44968  1.0000
  H   H217      1.0  0.21804  0.44965  0.46110  1.0000
  H   H218      1.0  0.27668  0.39522  0.42174  1.0000
  H   H219      1.0  0.26148  0.31123  0.26740  1.0000
  H   H220      1.0  0.37618  0.26281  0.43472  1.0000
  C   C119      1.0  0.23455  0.37993  0.43911  1.0000
  H   H221      1.0  0.30698  0.02690  0.43034  1.0000
  C   C120      1.0  0.49474  0.37447  0.31065  1.0000
  H   H222      1.0  0.54328  0.05884  0.41878  1.0000
  H   H223      1.0  0.52099  0.03374  0.31470  1.0000
  C   C121      1.0  0.52871  0.24120  0.43439  1.0000
  H   H224      1.0  0.33045  0.23063  0.48729  1.0000
  H   H225      1.0  0.13392  0.32740  0.45640  1.0000
  C   C122      1.0  0.48345  0.22918  0.46969  1.0000
  C   C123      1.0  0.46569  0.26596  0.49273  1.0000
  C   C124      1.0  0.49233  0.31497  0.47925  1.0000
  C   C125      1.0  0.25660  0.30094  0.48192  1.0000
  S   S28       1.0  0.43932  0.43114  0.48087  1.0000
  N   N7        1.0  0.23561  0.34850  0.48851  1.0000
  H   H226      1.0  0.39421  0.23186  0.24573  1.0000
  H   H227      1.0  0.53858  0.97687  0.48205  1.0000
  H   H228      1.0  0.54229  0.46364  0.31190  1.0000
  H   H229      1.0  0.19754  0.89291  0.62864  1.0000
  H   H230      1.0  0.32249  0.66103  0.67955  1.0000
  C   C126      1.0  0.24999  0.85412  0.67299  1.0000
  S   S29       1.0  0.17958  0.50409  0.69708  1.0000
  H   H231      1.0  0.34148  0.69435  0.50883  1.0000
  H   H232      1.0  0.36956  0.58798  0.53596  1.0000
  Fe  Fe17      1.0  0.40592  0.79852  0.70098  1.0000
  S   S30       1.0  0.55553  0.48633  0.50394  1.0000
  H   H233      1.0  0.30599  0.60787  0.53444  1.0000
  C   C127      1.0  0.34677  0.61769  0.54441  1.0000
  H   H234      1.0  0.33210  0.69684  0.58748  1.0000
  C   C128      1.0  0.49096  0.60484  0.62200  1.0000
  C   C129      1.0  0.37111  0.66745  0.50935  1.0000
  C   C130      1.0  0.22785  0.55046  0.51083  1.0000
  H   H235      1.0  0.41107  0.67031  0.60470  1.0000
  H   H236      1.0  0.31615  0.80972  0.57558  1.0000
  S   S31       1.0  0.18351  0.56891  0.55419  1.0000
  H   H237      1.0  0.29033  0.48174  0.69412  1.0000
  C   C131      1.0  0.30352  0.47706  0.65701  1.0000
  H   H238      1.0  0.35198  0.87964  0.50628  1.0000
  C   C132      1.0  0.26532  0.71121  0.65929  1.0000
  H   H239      1.0  0.23152  0.71443  0.63706  1.0000
  C   C133      1.0  0.29984  0.85737  0.69092  1.0000
  H   H240      1.0  0.47763  0.57829  0.65691  1.0000
  C   C134      1.0  0.28878  0.66290  0.65741  1.0000
  S   S32       1.0  0.54523  0.75870  0.66200  1.0000
  H   H241      1.0  0.27165  0.65631  0.58614  1.0000
  H   H242      1.0  0.44405  0.89746  0.54689  1.0000
  C   C135      1.0  0.35708  0.88362  0.54374  1.0000
  S   S33       1.0  0.46328  0.63173  0.73796  1.0000
  S   S34       1.0  0.49862  0.80137  0.53302  1.0000
  H   H243      1.0  0.25913  0.49764  0.56227  1.0000
  C   C136      1.0  0.44471  0.60697  0.59108  1.0000
  C   C137      1.0  0.35632  0.83198  0.57429  1.0000
  H   H244      1.0  0.06207  0.48752  0.52375  1.0000
  H   H245      1.0  0.32112  0.89886  0.55824  1.0000
  Fe  Fe18      1.0  0.52691  0.81669  0.70437  1.0000
  H   H246      1.0  0.38780  0.81270  0.55823  1.0000
  H   H247      1.0  0.37296  0.90475  0.69469  1.0000
  Fe  Fe19      1.0  0.15666  0.51058  0.62177  1.0000
  H   H248      1.0  0.25572  0.63202  0.67371  1.0000
  H   H249      1.0  0.52562  0.59150  0.60293  1.0000
  H   H250      1.0  0.36332  0.83436  0.61173  1.0000
  Fe  Fe20      1.0  0.09049  0.48691  0.72267  1.0000
  C   C138      1.0  0.31949  0.94435  0.65219  1.0000
  H   H251      1.0  0.39225  0.54455  0.72616  1.0000
  N   N8        1.0  0.34217  0.61899  0.59748  1.0000
  H   H252      1.0  0.27104  0.56328  0.61420  1.0000
  C   C139      1.0  0.40948  0.91914  0.54534  1.0000
  C   C140      1.0  0.27032  0.94078  0.63306  1.0000
  C   C141      1.0  0.30870  0.65986  0.60463  1.0000
  C   C142      1.0  0.39688  0.62992  0.61395  1.0000
  H   H253      1.0  0.40480  0.93043  0.58107  1.0000
  H   H254      1.0  0.40874  0.68460  0.52038  1.0000
  H   H255      1.0  0.35039  0.51718  0.59054  1.0000
  C   C143      1.0  0.26241  0.51587  0.52499  1.0000
  H   H256      1.0  0.43308  0.56907  0.58564  1.0000
  H   H257      1.0  0.22319  0.81918  0.68094  1.0000
  C   C144      1.0  0.31136  0.57049  0.62661  1.0000
  C   C145      1.0  0.33949  0.52359  0.62751  1.0000
  H   H258      1.0  0.33185  0.48225  0.50294  1.0000
  S   S35       1.0  0.31924  0.80434  0.72434  1.0000
  H   H259      1.0  0.46111  0.62970  0.55487  1.0000
  H   H260      1.0  0.50880  0.92609  0.71345  1.0000
  H   H261      1.0  0.55790  0.72266  0.57256  1.0000
  H   H262      1.0  0.26741  0.46780  0.63956  1.0000
  H   H263      1.0  0.30332  0.57252  0.66524  1.0000
  H   H264      1.0  0.37620  0.52723  0.64587  1.0000
  C   C146      1.0  0.23556  0.89570  0.64345  1.0000
  H   H265      1.0  0.29709  0.74375  0.64596  1.0000
  C   C147      1.0  0.33468  0.90234  0.68046  1.0000
  S   S36       1.0  0.41521  0.74070  0.65711  1.0000
  H   H266      1.0  0.39347  0.61928  0.65409  1.0000
  H   H267      1.0  0.50479  0.64212  0.62905  1.0000
  S   S37       1.0  0.47326  0.85236  0.65361  1.0000
  Fe  Fe21      1.0  0.48725  0.79076  0.61421  1.0000
  H   H268      1.0  0.24954  0.71219  0.69702  1.0000
  H   H269      1.0  0.52070  0.94840  0.54546  1.0000
  C   C148      1.0  0.51951  0.75038  0.51092  1.0000
  Fe  Fe22      1.0  0.47159  0.71282  0.70769  1.0000
  Fe  Fe23      1.0  0.46803  0.47449  0.53457  1.0000
  S   S38       1.0  0.06788  0.50046  0.64770  1.0000
  C   C149      1.0  0.54916  0.71773  0.53730  1.0000
  H   H270      1.0  0.33713  0.96536  0.49451  1.0000
  N   N9        1.0  0.42158  0.96449  0.50493  1.0000
  C   C150      1.0  0.12209  0.72987  0.92472  1.0000
  C   C151      1.0  0.45670  0.65319  0.86774  1.0000
  H   H271      1.0  0.14780  0.60196  0.79844  1.0000
  H   H272      1.0  0.25733  0.66840  0.82829  1.0000
  H   H273      1.0  0.11017  0.65476  0.96469  1.0000
  H   H274      1.0  0.12240  0.76831  0.93097  1.0000
  H   H275      1.0  0.23182  0.54679  0.91696  1.0000
  C   C152      1.0  0.54377  0.57565  0.75633  1.0000
  N   N10       1.0  0.53858  0.64078  0.97944  1.0000
  C   C153      1.0  0.42462  0.76101  0.93329  1.0000
  C   C154      1.0  0.50255  0.63805  0.89634  1.0000
  S   S39       1.0  0.49151  0.89374  0.95205  1.0000
  C   C155      1.0  0.26685  0.64516  0.80172  1.0000
  C   C156      1.0  0.47320  0.90753  0.81187  1.0000
  H   H276      1.0  0.49925  0.59720  0.90335  1.0000
  H   H277      1.0  0.33816  0.69718  0.76732  1.0000
  C   C157      1.0  0.17455  0.52008  0.84862  1.0000
  H   H278      1.0  0.39826  0.47433  0.95122  1.0000
  H   H279      1.0  0.53797  0.54126  0.96911  1.0000
  H   H280      1.0  0.46597  0.69293  0.84959  1.0000
  H   H281      1.0  0.43028  0.87687  0.75831  1.0000
  C   C158      1.0  0.09786  0.59459  0.86767  1.0000
  H   H282      1.0  0.54622  0.69611  0.76716  1.0000
  H   H283      1.0  0.41827  0.81122  0.83447  1.0000
  H   H284      1.0  0.13727  0.50465  0.87450  1.0000
  H   H285      1.0  0.54140  0.65322  0.87262  1.0000
  H   H286      1.0  0.43302  0.73703  0.90844  1.0000
  C   C159      1.0  0.36203  0.47458  0.77562  1.0000
  H   H287      1.0  0.28235  0.57369  0.84077  1.0000
  C   C160      1.0  0.32775  0.65724  0.78469  1.0000
  H   H288      1.0  0.16280  0.52041  0.81182  1.0000
  H   H289      1.0  0.45252  0.63067  0.83961  1.0000
  C   C161      1.0  0.24941  0.58855  0.82153  1.0000
  H   H290      1.0  0.16849  0.64481  0.83410  1.0000
  H   H291      1.0  0.36485  0.55168  0.78527  1.0000
  C   C162      1.0  0.45753  0.80659  0.92842  1.0000
  H   H292      1.0  0.45818  0.65107  0.96159  1.0000
  S   S40       1.0  0.45851  0.76755  0.75446  1.0000
  C   C163      1.0  0.50093  0.65866  0.94365  1.0000
  H   H293      1.0  0.19568  0.65012  0.90543  1.0000
  C   C164      1.0  0.49463  0.48413  0.87586  1.0000
  N   N11       1.0  0.19537  0.57236  0.85333  1.0000
  H   H294      1.0  0.34027  0.63482  0.75802  1.0000
  H   H295      1.0  0.32124  0.55188  0.92723  1.0000
  H   H296      1.0  0.46714  0.54883  0.97274  1.0000
  C   C165      1.0  0.39106  0.84003  0.82915  1.0000
  H   H297      1.0  0.22497  0.47563  0.89416  1.0000
  H   H298      1.0  0.46890  0.89585  0.85190  1.0000
  H   H299      1.0  0.16275  0.72730  0.90639  1.0000
  C   C166      1.0  0.42017  0.88669  0.79404  1.0000
  H   H300      1.0  0.07888  0.55554  0.87229  1.0000
  H   H301      1.0  0.39050  0.91309  0.78929  1.0000
  H   H302      1.0  0.40703  0.52930  0.86240  1.0000
  H   H303      1.0  0.24500  0.65712  0.77051  1.0000
  H   H304      1.0  0.25157  0.49210  0.83099  1.0000
  H   H305      1.0  0.24955  0.57219  0.78848  1.0000
  H   H306      1.0  0.31998  0.53454  0.74411  1.0000
  H   H307      1.0  0.35474  0.82477  0.81464  1.0000
  H   H308      1.0  0.35102  0.64981  0.81582  1.0000
  C   C167      1.0  0.35962  0.52969  0.75687  1.0000
  H   H309      1.0  0.48081  0.50910  0.89944  1.0000
  H   H310      1.0  0.37754  0.84895  0.86470  1.0000
  H   H311      1.0  0.44146  0.49988  0.79302  1.0000
  H   H312      1.0  0.49164  0.81716  0.90004  1.0000
  C   C168      1.0  0.15411  0.60500  0.83616  1.0000
  C   C169      1.0  0.52622  0.62173  0.75557  1.0000
  H   H313      1.0  0.41720  0.64717  0.89132  1.0000
  H   H314      1.0  0.10199  0.60269  0.90392  1.0000
  H   H315      1.0  0.33985  0.50206  0.86174  1.0000
  H   H316      1.0  0.16358  0.55409  0.92946  1.0000
  C   C170      1.0  0.36476  0.48754  0.93206  1.0000
  H   H317      1.0  0.50519  0.88664  0.79878  1.0000
  H   H318      1.0  0.50997  0.69978  0.93125  1.0000
  N   N12       1.0  0.49128  0.96288  0.79762  1.0000
  H   H319      1.0  0.26412  0.63496  0.90264  1.0000
  C   C171      1.0  0.20188  0.57138  0.90564  1.0000
  H   H320      1.0  0.34136  0.53086  0.98562  1.0000
  C   C172      1.0  0.22128  0.62187  0.91858  1.0000
  C   C173      1.0  0.10968  0.69224  0.97265  1.0000
  C   C174      1.0  0.35386  0.53655  0.94611  1.0000
  H   H321      1.0  0.51805  0.54583  0.74674  1.0000
  C   C175      1.0  0.21400  0.48093  0.85693  1.0000
  C   C176      1.0  0.37805  0.49451  0.87645  1.0000
  C   C177      1.0  0.44658  0.83841  0.96006  1.0000
  H   H322      1.0  0.39083  0.56438  0.93649  1.0000
  C   C178      1.0  0.50231  0.54674  0.99306  1.0000
  C   C179      1.0  0.38248  0.74558  0.97142  1.0000
  H   H323      1.0  0.38154  0.94973  0.85047  1.0000
  H   H324      1.0  0.50548  0.50585  0.83857  1.0000
  C   C180      1.0  0.54628  0.46675  0.89277  1.0000
  C   C181      1.0  0.21969  0.61786  0.97312  1.0000
  S   S41       1.0  0.35098  0.68355  0.98214  1.0000
  H   H325      1.0  0.26383  0.92918  0.97393  1.0000
  H   H326      1.0  0.22720  0.65561  0.98127  1.0000
  H   H327      1.0  0.07462  0.66730  0.84063  1.0000
  H   H328      1.0  0.09138  0.72268  0.90051  1.0000
  Fe  Fe24      1.0  0.47627  0.95405  0.99264  1.0000
  H   H329      1.0  0.25229  0.59721  0.98644  1.0000
  H   H330      1.0  0.17982  0.59905  0.99285  1.0000
  H   H331      1.0  0.40724  0.84276  0.16535  1.0000
  H   H332      1.0  0.50658  0.48514  0.14370  1.0000
  H   H333      1.0  0.52467  0.49312  0.05108  1.0000
  C   C182      1.0  0.51472  0.74101  0.05773  1.0000
  C   C183      1.0  0.23541  0.88163  0.09882  1.0000
  H   H334      1.0  0.46863  0.70541  0.01174  1.0000
  H   H335      1.0  0.09882  0.55080  0.17063  1.0000
  H   H336      1.0  0.26742  0.53099  0.06639  1.0000
  C   C184      1.0  0.13672  0.79147  0.05297  1.0000
  H   H337      1.0  0.31243  0.80413  0.16482  1.0000
  Fe  Fe25      1.0  0.33351  0.65442  0.06220  1.0000
  C   C185      1.0  0.37017  0.77810  0.00213  1.0000
  S   S42       1.0  0.35660  0.70272  0.11366  1.0000
  Fe  Fe26      1.0  0.38511  0.63539  0.15462  1.0000
  C   C186      1.0  0.19913  0.48846  0.11494  1.0000
  C   C187      1.0  0.06142  0.59767  0.11703  1.0000
  C   C188      1.0  0.24007  0.90514  0.00701  1.0000
  S   S43       1.0  0.21031  0.71463  0.18144  1.0000
  H   H338      1.0  0.47795  0.75022  0.07774  1.0000
  H   H339      1.0  0.32952  0.89005  0.17810  1.0000
  S   S44       1.0  0.51796  0.96529  0.05637  1.0000
  C   C189      1.0  0.54983  0.68072  0.00834  1.0000
  C   C190      1.0  0.22496  0.85554  0.18730  1.0000
  H   H340      1.0  0.14344  0.84506  0.16744  1.0000
  H   H341      1.0  0.41371  0.86601  0.10086  1.0000
  C   C191      1.0  0.16352  0.85874  0.19609  1.0000
  C   C192      1.0  0.31548  0.88537  0.14322  1.0000
  C   C193      1.0  0.18466  0.77117  0.04511  1.0000
  Fe  Fe27      1.0  0.06975  0.88546  0.03385  1.0000
  C   C194      1.0  0.49929  0.69577  0.03580  1.0000
  C   C195      1.0  0.07826  0.63810  0.07025  1.0000
  H   H342      1.0  0.21108  0.95432  0.13806  1.0000
  C   C196      1.0  0.22849  0.50850  0.06943  1.0000
  H   H343      1.0  0.10545  0.66907  0.07931  1.0000
  C   C197      1.0  0.44847  0.93277  0.23996  1.0000
  H   H344      1.0  0.47991  0.66501  0.06581  1.0000
  C   C198      1.0  0.20911  0.49671  0.02799  1.0000
  C   C199      1.0  0.26885  0.91098  0.05075  1.0000
  H   H345      1.0  0.53198  0.77379  0.02890  1.0000
  S   S45       1.0  0.46846  0.64569  0.17683  1.0000
  C   C200      1.0  0.25763  0.95873  0.19750  1.0000
  H   H346      1.0  0.20622  0.77696  0.00895  1.0000
  S   S46       1.0  0.08427  0.96613  0.99899  1.0000
  H   H347      1.0  0.36447  0.48994  0.21930  1.0000
  H   H348      1.0  0.44623  0.54254  0.16975  1.0000
  C   C201      1.0  0.11127  0.58163  0.13876  1.0000
  H   H349      1.0  0.47630  0.46791  0.01681  1.0000
  C   C202      1.0  0.48851  0.50030  0.03294  1.0000
  S   S47       1.0  0.30519  0.61030  0.20206  1.0000
  S   S48       1.0  0.11303  0.82877  0.00491  1.0000
  H   H350      1.0  0.53597  0.58608  0.04497  1.0000
  H   H351      1.0  0.45473  0.50427  0.06002  1.0000
  Fe  Fe28      1.0  0.28412  0.56820  0.14519  1.0000
  H   H352      1.0  0.24305  0.85912  0.22084  1.0000
  H   H353      1.0  0.27621  0.95120  0.05065  1.0000
  C   C203      1.0  0.13026  0.75742  0.13886  1.0000
  C   C204      1.0  0.51219  0.59402  0.01429  1.0000
  C   C205      1.0  0.18020  0.74038  0.13149  1.0000
  H   H354      1.0  0.10897  0.75201  0.17506  1.0000
  H   H355      1.0  0.47179  0.59926  0.03138  1.0000
  H   H356      1.0  0.10451  0.62137  0.04570  1.0000
  C   C206      1.0  0.48867  0.55561  0.15727  1.0000
  C   C207      1.0  0.50973  0.60472  0.15696  1.0000
  H   H357      1.0  0.29577  0.94851  0.21032  1.0000
  H   H358      1.0  0.19896  0.91632  0.01123  1.0000
  C   C208      1.0  0.40199  0.82478  0.99621  1.0000
  H   H359      1.0  0.33610  0.76736  0.03034  1.0000
  H   H360      1.0  0.23685  0.86619  0.00211  1.0000
  H   H361      1.0  0.30837  0.89723  0.04524  1.0000
  H   H362      1.0  0.39277  0.84965  0.02012  1.0000
  H   H363      1.0  0.54442  0.73311  0.08354  1.0000
  S   S49       1.0  0.36627  0.58803  0.10073  1.0000
  H   H364      1.0  0.24579  0.73385  0.07853  1.0000
  H   H365      1.0  0.13835  0.56840  0.11184  1.0000
  S   S50       1.0  0.08243  0.90002  0.10680  1.0000
  H   H366      1.0  0.22356  0.93952  0.22533  1.0000
  C   C209      1.0  0.20680  0.74624  0.08444  1.0000
  C   C210      1.0  0.10878  0.78334  0.09968  1.0000
  H   H367      1.0  0.19347  0.89054  0.09829  1.0000
  H   H368      1.0  0.23216  0.84153  0.09802  1.0000
  S   S51       1.0  0.24998  0.62942  0.10091  1.0000
  H   H369      1.0  0.06276  0.73465  0.01092  1.0000
  H   H370      1.0  0.31852  0.82604  0.10052  1.0000
  H   H371      1.0  0.13404  0.61313  0.15074  1.0000
  H   H372      1.0  0.07057  0.79717  0.10568  1.0000
  N   N13       1.0  0.25651  0.89169  0.14432  1.0000
  H   H373      1.0  0.34185  0.48761  0.06903  1.0000
  H   H374      1.0  0.15495  0.89713  0.19579  1.0000
  H   H375      1.0  0.34061  0.91502  0.11515  1.0000
  C   C211      1.0  0.52286  0.52303  0.14257  1.0000
  H   H376      1.0  0.22802  0.81686  0.18322  1.0000
  S   S52       1.0  0.22739  0.49734  0.16669  1.0000
  C   C212      1.0  0.33119  0.83487  0.13452  1.0000
  C   C213      1.0  0.39278  0.83612  0.13115  1.0000
  C   C214      1.0  0.25098  0.94475  0.14781  1.0000
  Fe  Fe29      1.0  0.27483  0.67299  0.15543  1.0000
  H   H377      1.0  0.40418  0.80023  0.12456  1.0000
  H   H378      1.0  0.06141  0.93606  0.23271  1.0000
  C   C215      1.0  0.15875  0.46782  0.03177  1.0000
  H   H379      1.0  0.14327  0.69924  0.99414  1.0000
  H   H380      1.0  0.23427  0.50788  0.99358  1.0000
  C   C216      1.0  0.13722  0.82621  0.24438  1.0000
  C   C217      1.0  0.10232  0.52047  0.45297  1.0000
  C   C218      1.0  0.48266  0.90126  0.40268  1.0000
  C   C219      1.0  0.30342  0.50707  0.49129  1.0000
  S   S53       1.0  0.51453  0.51714  0.39774  1.0000
  H   H381      1.0  0.48243  0.89971  0.30251  1.0000
  H   H382      1.0  0.39924  0.94629  0.43773  1.0000
  C   C220      1.0  0.55789  0.67290  0.47156  1.0000
  H   H383      1.0  0.40892  0.91087  0.25135  1.0000
  C   C221      1.0  0.53467  0.76924  0.30369  1.0000
  C   C222      1.0  0.54049  0.95578  0.25470  1.0000
  C   C223      1.0  0.48980  0.92673  0.26900  1.0000
  C   C224      1.0  0.23247  0.57414  0.46219  1.0000
  H   H384      1.0  0.55024  0.54602  0.29267  1.0000
  H   H385      1.0  0.50315  0.76222  0.33575  1.0000
  H   H386      1.0  0.09713  0.52215  0.41438  1.0000
  S   S54       1.0  0.35605  0.51597  0.40016  1.0000
  H   H387      1.0  0.27357  0.58015  0.39010  1.0000
  H   H388      1.0  0.39661  0.69726  0.43296  1.0000
  H   H389      1.0  0.14417  0.78703  0.24590  1.0000
  Fe  Fe30      1.0  0.42987  0.50394  0.43619  1.0000
  C   C225      1.0  0.27066  0.56234  0.42779  1.0000
  H   H390      1.0  0.51390  0.93321  0.38507  1.0000
  H   H391      1.0  0.18837  0.48925  0.38592  1.0000
  H   H392      1.0  0.39509  0.51092  0.29242  1.0000
  H   H393      1.0  0.44758  0.90067  0.38188  1.0000
  C   C226      1.0  0.30682  0.52945  0.44249  1.0000
  H   H394      1.0  0.15411  0.83990  0.27482  1.0000
  H   H395      1.0  0.49982  0.90452  0.47437  1.0000
  Fe  Fe31      1.0  0.53678  0.55552  0.45729  1.0000
  H   H396      1.0  0.09279  0.82735  0.24844  1.0000
  H   H397      1.0  0.50041  0.86642  0.40226  1.0000
  C   C227      1.0  0.43612  0.95197  0.45593  1.0000
  H   H398      1.0  0.20659  0.60166  0.45109  1.0000
  H   H399      1.0  0.34682  0.64241  0.44533  1.0000
  H   H400      1.0  0.53100  0.80511  0.27985  1.0000
  C   C228      1.0  0.46412  0.90494  0.45461  1.0000
  H   H401      1.0  0.48464  0.76840  0.44479  1.0000
  H   H402      1.0  0.51776  0.69949  0.41049  1.0000
  C   C229      1.0  0.38343  0.66052  0.45738  1.0000
  H   H403      1.0  0.41663  0.63776  0.45413  1.0000
  H   H404      1.0  0.52715  0.73905  0.28333  1.0000
  H   H405      1.0  0.10915  0.55878  0.45990  1.0000
  C   C230      1.0  0.50797  0.74353  0.46524  1.0000
  H   H406      1.0  0.13875  0.50276  0.46067  1.0000
  H   H407      1.0  0.44538  0.48188  0.26224  1.0000
  H   H408      1.0  0.25218  0.46845  0.37171  1.0000
  H   H409      1.0  0.43552  0.87078  0.47104  1.0000
  C   C231      1.0  0.52657  0.70449  0.44586  1.0000
  C   C232      1.0  0.40380  0.47546  0.28229  1.0000
  S   S55       1.0  0.45132  0.54641  0.49249  1.0000
  S   S56       1.0  0.78230  0.25963  0.54112  1.0000
  C   C233      1.0  0.71322  0.96807  0.62419  1.0000
  S   S57       1.0  0.77488  0.46306  0.61131  1.0000
  H   H410      1.0  0.95129  0.46576  0.66241  1.0000
  H   H411      1.0  0.83196  0.29015  0.70150  1.0000
  C   C234      1.0  0.56890  0.12365  0.69512  1.0000
  C   C235      1.0  0.60525  0.35977  0.54446  1.0000
  C   C236      1.0  0.92906  0.24158  0.63824  1.0000
  H   H412      1.0  0.97325  0.41849  0.53178  1.0000
  H   H413      1.0  0.60256  0.00818  0.53450  1.0000
  C   C237      1.0  0.60822  0.26198  0.66117  1.0000
  H   H414      1.0  0.65011  0.25494  0.65037  1.0000
  C   C238      1.0  0.63200  0.23787  0.55833  1.0000
  H   H415      1.0  0.63930  0.32818  0.68838  1.0000
  C   C239      1.0  0.97254  0.04281  0.64945  1.0000
  N   N14       1.0  0.58403  0.28538  0.61744  1.0000
  C   C240      1.0  0.94982  0.21587  0.67782  1.0000
  H   H416      1.0  0.62287  0.35981  0.61626  1.0000
  C   C241      1.0  0.62109  0.19561  0.53132  1.0000
  H   H417      1.0  0.68674  0.38359  0.50636  1.0000
  H   H418      1.0  0.57144  0.05644  0.50060  1.0000
  C   C242      1.0  0.01248  0.28993  0.67778  1.0000
  H   H419      1.0  0.67698  0.25552  0.73224  1.0000
  H   H420      1.0  0.88804  0.45439  0.60436  1.0000
  H   H421      1.0  0.99142  0.08943  0.72416  1.0000
  S   S58       1.0  0.01182  0.37850  0.61372  1.0000
  C   C243      1.0  0.78598  0.40522  0.54396  1.0000
  C   C244      1.0  0.76153  0.36039  0.62639  1.0000
  H   H422      1.0  0.89635  0.22356  0.62325  1.0000
  C   C245      1.0  0.56368  0.02288  0.53009  1.0000
  H   H423      1.0  0.89777  0.34353  0.50548  1.0000
  H   H424      1.0  0.02145  0.99852  0.69260  1.0000
  C   C246      1.0  0.03223  0.07941  0.72874  1.0000
  H   H425      1.0  0.79296  0.43972  0.51770  1.0000
  C   C247      1.0  0.77366  0.40553  0.59319  1.0000
  H   H426      1.0  0.59875  0.12351  0.66483  1.0000
  C   C248      1.0  0.94978  0.29117  0.61847  1.0000
  H   H427      1.0  0.75350  0.28100  0.63663  1.0000
  C   C249      1.0  0.65115  0.40049  0.51865  1.0000
  C   C250      1.0  0.94532  0.99960  0.63002  1.0000
  H   H428      1.0  0.90479  0.38678  0.70329  1.0000
  C   C251      1.0  0.77804  0.31517  0.56195  1.0000
  H   H429      1.0  0.56845  0.37745  0.55158  1.0000
  C   C252      1.0  0.76391  0.31541  0.61086  1.0000
  C   C253      1.0  0.61236  0.29235  0.70166  1.0000
  C   C254      1.0  0.02909  0.03279  0.66385  1.0000
  H   H430      1.0  0.75652  0.97564  0.68441  1.0000
  C   C255      1.0  0.94010  0.43691  0.51670  1.0000
  H   H431      1.0  0.04858  0.28390  0.50734  1.0000
  H   H432      1.0  0.97547  0.07675  0.62098  1.0000
  S   S59       1.0  0.78350  0.19420  0.67756  1.0000
  H   H433      1.0  0.57203  0.30012  0.71563  1.0000
  H   H434      1.0  0.60344  0.42524  0.67631  1.0000
  C   C256      1.0  0.86024  0.31236  0.71951  1.0000
  C   C257      1.0  0.57843  0.24839  0.58473  1.0000
  Fe  Fe32      1.0  0.71852  0.12854  0.69418  1.0000
  H   H435      1.0  0.83370  0.38468  0.69650  1.0000
  H   H436      1.0  0.70014  0.03170  0.50274  1.0000
  H   H437      1.0  0.90485  0.00756  0.62056  1.0000
  C   C258      1.0  0.78824  0.36020  0.52840  1.0000
  C   C259      1.0  0.99207  0.23987  0.69727  1.0000
  H   H438      1.0  0.59713  0.33447  0.51941  1.0000
  C   C260      1.0  0.99095  0.31559  0.63857  1.0000
  S   S60       1.0  0.77794  0.07384  0.69817  1.0000
  H   H439      1.0  0.58543  0.22477  0.67772  1.0000
  C   C261      1.0  0.58473  0.12302  0.74115  1.0000
  H   H440      1.0  0.75048  0.36000  0.66406  1.0000
  H   H441      1.0  0.83360  0.18717  0.49582  1.0000
  S   S61       1.0  0.92055  0.15474  0.70384  1.0000
  H   H442      1.0  0.04410  0.30884  0.69355  1.0000
  H   H443      1.0  0.65226  0.27114  0.53149  1.0000
  Fe  Fe33      1.0  0.84227  0.13997  0.67397  1.0000
  H   H444      1.0  0.60222  0.16086  0.55689  1.0000
  H   H445      1.0  0.90330  0.42039  0.54275  1.0000
  Fe  Fe34      1.0  0.77158  0.07888  0.61915  1.0000
  H   H446      1.0  0.89936  0.29794  0.71604  1.0000
  H   H447      1.0  0.00758  0.22046  0.72843  1.0000
  H   H448      1.0  0.93511  0.18705  0.51613  1.0000
  H   H449      1.0  0.65980  0.18868  0.51276  1.0000
  Fe  Fe35      1.0  0.74987  0.46208  0.69036  1.0000
  H   H450      1.0  0.66295  0.42601  0.54289  1.0000
  H   H451      1.0  0.94496  0.04729  0.68112  1.0000
  S   S62       1.0  0.75904  0.01347  0.58341  1.0000
  H   H452      1.0  0.88005  0.36643  0.65218  1.0000
  H   H453      1.0  0.66319  0.32414  0.58555  1.0000
  Fe  Fe36      1.0  0.77800  0.19189  0.59989  1.0000
  S   S63       1.0  0.70843  0.12999  0.61665  1.0000
  H   H454      1.0  0.97016  0.99446  0.59698  1.0000
  H   H455      1.0  0.66069  0.22687  0.58409  1.0000
  C   C262      1.0  0.62100  0.33214  0.59249  1.0000
  S   S64       1.0  0.84055  0.14071  0.59526  1.0000
  H   H456      1.0  0.93270  0.31104  0.58842  1.0000
  C   C263      1.0  0.86998  0.36592  0.69133  1.0000
  H   H457      1.0  0.03980  0.17821  0.55957  1.0000
  H   H458      1.0  0.59384  0.20546  0.50377  1.0000
  H   H459      1.0  0.02579  0.13745  0.64666  1.0000
  H   H460      1.0  0.87541  0.11307  0.50095  1.0000
  H   H461      1.0  0.76701  0.11409  0.49901  1.0000
  H   H462      1.0  0.05299  0.02227  0.63291  1.0000
  H   H463      1.0  0.97244  0.14200  0.49436  1.0000
  C   C264      1.0  0.76503  0.24832  0.87046  1.0000
  C   C265      1.0  0.02737  0.11975  0.80162  1.0000
  H   H464      1.0  0.91495  0.34242  0.84142  1.0000
  H   H465      1.0  0.98465  0.12449  0.79699  1.0000
  H   H466      1.0  0.60919  0.22868  0.76076  1.0000
  N   N15       1.0  0.85338  0.26719  0.80893  1.0000
  H   H467      1.0  0.79347  0.21254  0.79147  1.0000
  H   H468      1.0  0.96736  0.17852  0.87856  1.0000
  H   H469      1.0  0.76807  0.23422  0.94821  1.0000
  H   H470      1.0  0.74137  0.26932  0.84490  1.0000
  H   H471      1.0  0.99838  0.30765  0.85955  1.0000
  H   H472      1.0  0.93617  0.26530  0.77763  1.0000
  H   H473      1.0  0.92516  0.24930  0.84081  1.0000
  H   H474      1.0  0.64746  0.14201  0.91690  1.0000
  H   H475      1.0  0.83088  0.98802  0.95858  1.0000
  H   H476      1.0  0.85857  0.24836  0.97247  1.0000
  H   H477      1.0  0.85779  0.21811  0.75799  1.0000
  H   H478      1.0  0.81386  0.99137  0.87362  1.0000
  H   H479      1.0  0.91710  0.28162  0.93129  1.0000
  C   C266      1.0  0.78682  0.97946  0.97251  1.0000
  C   C267      1.0  0.58365  0.21722  0.90459  1.0000
  H   H480      1.0  0.74590  0.29277  0.92443  1.0000
  C   C268      1.0  0.89382  0.27792  0.96761  1.0000
  H   H481      1.0  0.89677  0.17048  0.82025  1.0000
  H   H482      1.0  0.56690  0.01341  0.78410  1.0000
  H   H483      1.0  0.91214  0.35479  0.96926  1.0000
  C   C269      1.0  0.61911  0.32318  0.89748  1.0000
  H   H484      1.0  0.61423  0.34057  0.86015  1.0000
  C   C270      1.0  0.01556  0.17122  0.93718  1.0000
  C   C271      1.0  0.74394  0.25307  0.92165  1.0000
  C   C272      1.0  0.85265  0.17208  0.82821  1.0000
  H   H485      1.0  0.82380  0.40658  0.96203  1.0000
  C   C273      1.0  0.01331  0.08736  0.98230  1.0000
  H   H486      1.0  0.83110  0.30680  0.86531  1.0000
  C   C274      1.0  0.75458  0.00150  0.93183  1.0000
  H   H487      1.0  0.02802  0.08474  0.82798  1.0000
  Fe  Fe37      1.0  0.65114  0.42642  0.76524  1.0000
  S   S65       1.0  0.72598  0.39297  0.74809  1.0000
  S   S66       1.0  0.65159  0.12306  0.75450  1.0000
  H   H488      1.0  0.60901  0.21892  0.93424  1.0000
  C   C275      1.0  0.76949  0.98252  0.88564  1.0000
  C   C276      1.0  0.82161  0.12390  0.82045  1.0000
  C   C277      1.0  0.91447  0.45312  0.87060  1.0000
  H   H489      1.0  0.84421  0.34434  0.78400  1.0000
  H   H490      1.0  0.60340  0.09577  0.89718  1.0000
  C   C278      1.0  0.82912  0.13700  0.97276  1.0000
  H   H491      1.0  0.61592  0.39310  0.92176  1.0000
  C   C279      1.0  0.61545  0.13630  0.89349  1.0000
  C   C280      1.0  0.90366  0.44818  0.78793  1.0000
  H   H492      1.0  0.83551  0.09167  0.84295  1.0000
  C   C281      1.0  0.83372  0.08162  0.98541  1.0000
  H   H493      1.0  0.93858  0.35424  0.77758  1.0000
  H   H494      1.0  0.75723  0.20836  0.86901  1.0000
  C   C282      1.0  0.56392  0.29552  0.92574  1.0000
  C   C283      1.0  0.03247  0.13830  0.97436  1.0000
  C   C284      1.0  0.97643  0.06943  0.95369  1.0000
  H   H495      1.0  0.89810  0.44649  0.90827  1.0000
  C   C285      1.0  0.99660  0.33080  0.82360  1.0000
  H   H496      1.0  0.70140  0.23495  0.93144  1.0000
  C   C286      1.0  0.64267  0.36394  0.92193  1.0000
  H   H497      1.0  0.65011  0.29812  0.89534  1.0000
  C   C287      1.0  0.83756  0.21816  0.79480  1.0000
  C   C288      1.0  0.74277  0.46554  0.96821  1.0000
  H   H498      1.0  0.85218  0.33908  0.94236  1.0000
  C   C289      1.0  0.56630  0.16093  0.90818  1.0000
  H   H499      1.0  0.79755  0.14359  0.94859  1.0000
  C   C290      1.0  0.87515  0.32749  0.97291  1.0000
  H   H500      1.0  0.68331  0.38105  0.90258  1.0000
  C   C291      1.0  0.93832  0.32856  0.81264  1.0000
  H   H501      1.0  0.74826  0.00086  0.85633  1.0000
  Fe  Fe38      1.0  0.76379  0.43768  0.79731  1.0000
  S   S67       1.0  0.56839  0.38186  0.77888  1.0000
  H   H502      1.0  0.63268  0.15202  0.85526  1.0000
  C   C292      1.0  0.88201  0.43945  0.83668  1.0000
  H   H503      1.0  0.64774  0.34826  0.95973  1.0000
  H   H504      1.0  0.93206  0.08876  0.89361  1.0000
  H   H505      1.0  0.61149  0.23126  0.87015  1.0000
  H   H506      1.0  0.70568  0.43838  0.97080  1.0000
  C   C293      1.0  0.97981  0.15320  0.90780  1.0000
  H   H507      1.0  0.82888  0.12075  0.78198  1.0000
  H   H508      1.0  0.76364  0.04259  0.92242  1.0000
  C   C294      1.0  0.83588  0.30786  0.77314  1.0000
  H   H509      1.0  0.79112  0.30210  0.77384  1.0000
  H   H510      1.0  0.84572  0.06987  0.95113  1.0000
  H   H511      1.0  0.02186  0.31765  0.79545  1.0000
  C   C295      1.0  0.91396  0.27522  0.80962  1.0000
  H   H512      1.0  0.84673  0.24698  0.88711  1.0000
  H   H513      1.0  0.71025  0.99113  0.94311  1.0000
  S   S68       1.0  0.95040  0.00610  0.96408  1.0000
  H   H514      1.0  0.56987  0.28522  0.96441  1.0000
  H   H515      1.0  0.63974  0.28698  0.77216  1.0000
  H   H516      1.0  0.87893  0.43743  0.76170  1.0000
  H   H517      1.0  0.84374  0.17326  0.86687  1.0000
  S   S69       1.0  0.68607  0.46431  0.82033  1.0000
  H   H518      1.0  0.77736  0.12256  0.83107  1.0000
  S   S70       1.0  0.81469  0.41097  0.85489  1.0000
  C   C296      1.0  0.82635  0.26823  0.85881  1.0000
  S   S71       1.0  0.04003  0.23477  0.92421  1.0000
  C   C297      1.0  0.95993  0.10245  0.91627  1.0000
  H   H519      1.0  0.86861  0.15798  0.95426  1.0000
  H   H520      1.0  0.01312  0.36971  0.82417  1.0000
  H   H521      1.0  0.64948  0.00742  0.82724  1.0000
  H   H522      1.0  0.04484  0.15143  0.81643  1.0000
  H   H523      1.0  0.02408  0.04319  0.75485  1.0000
  H   H524      1.0  0.76176  0.37199  0.99193  1.0000
  C   C298      1.0  0.63602  0.26398  0.74425  1.0000
  H   H525      1.0  0.56281  0.44290  0.86896  1.0000
  C   C299      1.0  0.63478  0.96731  0.84157  1.0000
  N   N16       1.0  0.77553  0.99570  0.01997  1.0000
  H   H526      1.0  0.57944  0.23500  0.03672  1.0000
  C   C300      1.0  0.78953  0.36043  0.08404  1.0000
  H   H527      1.0  0.97886  0.13437  0.11608  1.0000
  C   C301      1.0  0.64099  0.13379  0.02714  1.0000
  H   H528      1.0  0.77603  0.27871  0.10487  1.0000
  H   H529      1.0  0.90148  0.41816  0.00286  1.0000
  C   C302      1.0  0.66413  0.23147  0.04020  1.0000
  H   H530      1.0  0.77404  0.06265  0.04803  1.0000
  C   C303      1.0  0.97217  0.09431  0.13330  1.0000
  S   S72       1.0  0.02765  0.32735  0.00756  1.0000
  C   C304      1.0  0.71852  0.97361  0.04291  1.0000
  H   H531      1.0  0.74636  0.35962  0.07812  1.0000
  C   C305      1.0  0.81666  0.97862  0.05206  1.0000
  H   H532      1.0  0.85836  0.99498  0.03483  1.0000
  C   C306      1.0  0.87565  0.18023  0.08858  1.0000
  H   H533      1.0  0.00955  0.17741  0.18908  1.0000
  C   C307      1.0  0.79769  0.39712  0.99745  1.0000
  H   H534      1.0  0.02711  0.06205  0.01058  1.0000
  H   H535      1.0  0.71298  0.30785  0.16269  1.0000
  H   H536      1.0  0.95293  0.22646  0.06822  1.0000
  H   H537      1.0  0.62622  0.44423  0.20791  1.0000
  H   H538      1.0  0.67593  0.19788  0.22443  1.0000
  C   C308      1.0  0.75613  0.30772  0.16819  1.0000
  C   C309      1.0  0.03394  0.00809  0.22815  1.0000
  N   N17       1.0  0.01332  0.09914  0.21296  1.0000
  H   H539      1.0  0.94245  0.05010  0.20435  1.0000
  C   C310      1.0  0.59952  0.16313  0.02981  1.0000
  C   C311      1.0  0.92238  0.07023  0.11523  1.0000
  S   S73       1.0  0.73787  0.99598  0.23023  1.0000
  H   H540      1.0  0.72501  0.12973  0.03288  1.0000
  Fe  Fe39      1.0  0.75057  0.07770  0.19855  1.0000
  C   C312      1.0  0.65319  0.45216  0.23521  1.0000
  C   C313      1.0  0.82998  0.16552  0.12355  1.0000
  H   H541      1.0  0.78756  0.18037  0.18810  1.0000
  H   H542      1.0  0.76969  0.33891  0.18554  1.0000
  H   H543      1.0  0.00754  0.07768  0.12041  1.0000
  S   S74       1.0  0.00198  0.98258  0.09135  1.0000
  H   H544      1.0  0.99460  0.39674  0.09635  1.0000
  N   N18       1.0  0.82677  0.37056  0.03629  1.0000
  C   C314      1.0  0.70448  0.97609  0.09701  1.0000
  H   H545      1.0  0.86221  0.24233  0.19994  1.0000
  C   C315      1.0  0.96342  0.08814  0.18915  1.0000
  H   H546      1.0  0.89601  0.37148  0.11147  1.0000
  C   C316      1.0  0.60763  0.23864  0.22821  1.0000
  H   H547      1.0  0.68842  0.99232  0.02279  1.0000
  H   H548      1.0  0.80012  0.29915  0.01994  1.0000
  H   H549      1.0  0.85840  0.99279  0.22878  1.0000
  H   H550      1.0  0.81196  0.99312  0.08612  1.0000
  H   H551      1.0  0.05493  0.15267  0.15042  1.0000
  C   C317      1.0  0.96790  0.41598  0.07253  1.0000
  S   S75       1.0  0.58574  0.39763  0.03347  1.0000
  H   H552      1.0  0.81814  0.15126  0.00595  1.0000
  H   H553      1.0  0.60382  0.24263  0.19015  1.0000
  H   H554      1.0  0.86674  0.07712  0.00833  1.0000
  H   H555      1.0  0.83309  0.30777  0.12761  1.0000
  C   C318      1.0  0.91301  0.23746  0.13552  1.0000
  S   S76       1.0  0.96630  0.27971  0.14499  1.0000
  S   S77       1.0  0.62025  0.35861  0.13944  1.0000
  Fe  Fe40      1.0  0.58484  0.42398  0.10334  1.0000
  C   C319      1.0  0.61115  0.21207  0.03614  1.0000
  H   H556      1.0  0.95840  0.44928  0.08643  1.0000
  H   H557      1.0  0.91660  0.02944  0.12740  1.0000
  S   S78       1.0  0.78409  0.11310  0.12211  1.0000
  S   S79       1.0  0.68154  0.29372  0.04292  1.0000
  H   H558      1.0  0.59032  0.01129  0.19898  1.0000
  C   C320      1.0  0.77847  0.44647  0.00607  1.0000
  H   H559      1.0  0.74591  0.21574  0.04408  1.0000
  H   H560      1.0  0.85821  0.29981  0.04990  1.0000
  H   H561      1.0  0.92702  0.07936  0.07510  1.0000
  C   C321      1.0  0.91711  0.21624  0.09459  1.0000
  C   C322      1.0  0.73603  0.45243  0.17484  1.0000
  C   C323      1.0  0.87798  0.40384  0.03931  1.0000
  C   C324      1.0  0.82430  0.18934  0.16269  1.0000
  H   H562      1.0  0.74931  0.42094  0.19894  1.0000
  H   H563      1.0  0.88062  0.16171  0.05848  1.0000
  H   H564      1.0  0.71315  0.01457  0.10290  1.0000
  H   H565      1.0  0.88551  0.08354  0.12986  1.0000
  C   C325      1.0  0.83882  0.32257  0.02196  1.0000
  S   S80       1.0  0.63010  0.07451  0.01378  1.0000
  Fe  Fe41      1.0  0.03271  0.28898  0.08335  1.0000
  H   H566      1.0  0.79681  0.39141  0.10357  1.0000
  C   C326      1.0  0.91615  0.38046  0.07363  1.0000
  H   H567      1.0  0.99584  0.99486  0.21530  1.0000
  C   C327      1.0  0.69343  0.15277  0.03298  1.0000
  H   H568      1.0  0.93338  0.11322  0.19728  1.0000
  C   C328      1.0  0.77957  0.05139  0.01266  1.0000
  H   H569      1.0  0.75455  0.44202  0.04218  1.0000
  C   C329      1.0  0.86629  0.22457  0.16923  1.0000
  C   C330      1.0  0.70508  0.20145  0.03959  1.0000
  H   H570      1.0  0.86795  0.43767  0.05215  1.0000
  H   H571      1.0  0.75935  0.27233  0.19295  1.0000
  C   C331      1.0  0.79132  0.31114  0.12001  1.0000
  H   H572      1.0  0.58909  0.16623  0.15835  1.0000
  H   H573      1.0  0.92852  0.34635  0.06341  1.0000
  Fe  Fe42      1.0  0.61288  0.32864  0.07228  1.0000
  H   H574      1.0  0.99017  0.42726  0.03531  1.0000
  S   S81       1.0  0.66902  0.08937  0.23147  1.0000
  C   C332      1.0  0.04002  0.15097  0.18907  1.0000
  H   H575      1.0  0.61934  0.98478  0.09837  1.0000
  H   H576      1.0  0.71001  0.43785  0.14990  1.0000
  H   H577      1.0  0.92092  0.26669  0.99487  1.0000
  C   C333      1.0  0.05369  0.06370  0.20624  1.0000
  H   H578      1.0  0.74569  0.06467  0.99386  1.0000
  H   H579      1.0  0.97542  0.04546  0.36301  1.0000
  C   C334      1.0  0.94479  0.16975  0.48452  1.0000
  H   H580      1.0  0.90934  0.07480  0.27946  1.0000
  C   C335      1.0  0.71043  0.03667  0.46304  1.0000
  H   H581      1.0  0.92087  0.22418  0.28275  1.0000
  H   H582      1.0  0.69301  0.11113  0.44929  1.0000
  H   H583      1.0  0.56431  0.38009  0.25765  1.0000
  H   H584      1.0  0.94773  0.02399  0.28734  1.0000
  H   H585      1.0  0.87356  0.21744  0.44161  1.0000
  H   H586      1.0  0.90283  0.03749  0.36531  1.0000
  C   C336      1.0  0.92974  0.36312  0.47565  1.0000
  H   H587      1.0  0.87397  0.23609  0.35934  1.0000
  S   S82       1.0  0.56891  0.38850  0.42106  1.0000
  H   H588      1.0  0.03204  0.09027  0.28665  1.0000
  H   H589      1.0  0.96606  0.19890  0.45377  1.0000
  C   C337      1.0  0.57598  0.25194  0.30755  1.0000
  H   H590      1.0  0.91482  0.18759  0.36978  1.0000
  C   C338      1.0  0.99755  0.09847  0.26615  1.0000
  C   C339      1.0  0.77908  0.11330  0.46018  1.0000
  S   S83       1.0  0.69866  0.02813  0.33296  1.0000
  C   C340      1.0  0.85124  0.18073  0.46023  1.0000
  C   C341      1.0  0.76456  0.19895  0.43321  1.0000
  C   C342      1.0  0.61762  0.22819  0.32654  1.0000
  H   H591      1.0  0.80775  0.08548  0.46022  1.0000
  H   H592      1.0  0.79172  0.25587  0.36773  1.0000
  H   H593      1.0  0.79429  0.16347  0.35895  1.0000
  H   H594      1.0  0.89204  0.42864  0.45763  1.0000
  H   H595      1.0  0.59045  0.29916  0.39358  1.0000
  Fe  Fe43      1.0  0.71363  0.10665  0.29166  1.0000
  H   H596      1.0  0.75031  0.32390  0.39503  1.0000
  C   C343      1.0  0.65243  0.20709  0.29714  1.0000
  C   C344      1.0  0.78251  0.25366  0.40723  1.0000
  H   H597      1.0  0.98900  0.13593  0.27139  1.0000
  H   H598      1.0  0.62150  0.22433  0.36453  1.0000
  H   H599      1.0  0.70995  0.44255  0.39253  1.0000
  H   H600      1.0  0.02787  0.00204  0.26818  1.0000
  Fe  Fe44      1.0  0.66084  0.00975  0.26978  1.0000
  H   H601      1.0  0.58256  0.02611  0.38101  1.0000
  H   H602      1.0  0.64673  0.42396  0.33197  1.0000
  H   H603      1.0  0.93976  0.09914  0.35448  1.0000
  H   H604      1.0  0.66343  0.41538  0.25240  1.0000
  H   H605      1.0  0.83847  0.12242  0.38091  1.0000
  H   H606      1.0  0.57869  0.37695  0.31837  1.0000
  H   H607      1.0  0.04811  0.45243  0.47802  1.0000
  H   H608      1.0  0.96947  0.35226  0.48424  1.0000
  C   C345      1.0  0.73684  0.28490  0.41427  1.0000
  C   C346      1.0  0.57036  0.25653  0.25866  1.0000
  C   C347      1.0  0.64821  0.21309  0.24765  1.0000
  H   H609      1.0  0.81818  0.27075  0.42125  1.0000
  C   C348      1.0  0.72787  0.09155  0.44048  1.0000
  H   H610      1.0  0.72960  0.18636  0.41550  1.0000
  H   H611      1.0  0.72571  0.28478  0.45322  1.0000
  C   C349      1.0  0.82729  0.16007  0.38188  1.0000
  H   H612      1.0  0.61340  0.08221  0.39685  1.0000
  H   H613      1.0  0.73535  0.09502  0.40076  1.0000
  H   H614      1.0  0.70035  0.27027  0.39943  1.0000
  C   C350      1.0  0.93133  0.41946  0.46897  1.0000
  S   S84       1.0  0.79584  0.09769  0.25796  1.0000
  H   H615      1.0  0.96426  0.43691  0.43936  1.0000
  H   H616      1.0  0.92069  0.35095  0.44190  1.0000
  C   C351      1.0  0.94100  0.06123  0.34720  1.0000
  S   S85       1.0  0.82741  0.96724  0.33233  1.0000
  C   C352      1.0  0.87732  0.19760  0.35529  1.0000
  N   N19       1.0  0.80654  0.16396  0.43286  1.0000
  H   H617      1.0  0.84862  0.20855  0.28491  1.0000
  C   C353      1.0  0.57543  0.06327  0.38769  1.0000
  H   H618      1.0  0.89077  0.15990  0.29495  1.0000
  H   H619      1.0  0.90430  0.12766  0.43874  1.0000
  H   H620      1.0  0.74315  0.01444  0.45491  1.0000
  H   H621      1.0  0.59408  0.10186  0.31419  1.0000
  C   C354      1.0  0.94656  0.06238  0.29281  1.0000
  C   C355      1.0  0.89308  0.14415  0.47047  1.0000
  H   H622      1.0  0.67383  0.02271  0.44808  1.0000
  H   H623      1.0  0.74793  0.19876  0.47123  1.0000
  Fe  Fe45      1.0  0.77605  0.01723  0.29245  1.0000
  C   C356      1.0  0.88485  0.19741  0.30121  1.0000
  S   S86       1.0  0.69757  0.17119  0.32559  1.0000
  H   H624      1.0  0.63821  0.42252  0.48620  1.0000
  H   H625      1.0  0.56100  0.13691  0.24981  1.0000
  C   C357      1.0  0.64535  0.46435  0.32048  1.0000
  H   H626      1.0  0.79770  0.36030  0.49032  1.0000
  C   C358      1.0  0.56461  0.45179  0.28093  1.0000
  H   H627      1.0  0.59600  0.88929  0.63111  1.0000
  C   C359      1.0  0.66904  0.68588  0.62136  1.0000
  N   N20       1.0  0.95141  0.49230  0.51351  1.0000
  H   H628      1.0  0.79044  0.75033  0.56471  1.0000
  H   H629      1.0  0.86565  0.49705  0.52083  1.0000
  C   C360      1.0  0.92612  0.49514  0.65108  1.0000
  H   H630      1.0  0.63878  0.70677  0.60392  1.0000
  C   C361      1.0  0.70605  0.79129  0.60274  1.0000
  H   H631      1.0  0.60391  0.63269  0.66604  1.0000
  H   H632      1.0  0.78675  0.69243  0.60772  1.0000
  H   H633      1.0  0.73360  0.82771  0.67913  1.0000
  H   H634      1.0  0.66884  0.61011  0.66102  1.0000
  C   C362      1.0  0.56899  0.67948  0.51739  1.0000
  C   C363      1.0  0.63083  0.90838  0.64276  1.0000
  H   H635      1.0  0.79321  0.73355  0.67475  1.0000
  C   C364      1.0  0.64128  0.63269  0.64126  1.0000
  S   S87       1.0  0.67315  0.49341  0.70560  1.0000
  S   S88       1.0  0.59255  0.85705  0.73549  1.0000
  H   H636      1.0  0.66263  0.79645  0.60990  1.0000
  C   C365      1.0  0.68359  0.92345  0.70649  1.0000
  H   H637      1.0  0.70250  0.68473  0.59306  1.0000
  H   H638      1.0  0.67546  0.87037  0.54229  1.0000
  H   H639      1.0  0.70818  0.77104  0.57261  1.0000
  H   H640      1.0  0.72718  0.84706  0.50666  1.0000
  C   C366      1.0  0.63828  0.89907  0.69163  1.0000
  C   C367      1.0  0.66829  0.94310  0.60901  1.0000
  H   H641      1.0  0.88306  0.51990  0.59244  1.0000
  C   C368      1.0  0.68886  0.71079  0.66227  1.0000
  C   C369      1.0  0.86459  0.73679  0.59252  1.0000
  H   H642      1.0  0.73608  0.86849  0.60772  1.0000
  H   H643      1.0  0.74155  0.90650  0.52330  1.0000
  C   C370      1.0  0.96127  0.50136  0.56288  1.0000
  H   H644      1.0  0.66216  0.95101  0.57141  1.0000
  C   C371      1.0  0.71955  0.86814  0.53569  1.0000
  C   C372      1.0  0.73954  0.84325  0.58195  1.0000
  H   H645      1.0  0.88324  0.77638  0.58277  1.0000
  H   H646      1.0  0.87800  0.71806  0.56288  1.0000
  H   H647      1.0  0.91958  0.58369  0.52669  1.0000
  C   C373      1.0  0.72109  0.95767  0.67280  1.0000
  N   N21       1.0  0.72296  0.76165  0.64766  1.0000
  H   H648      1.0  0.71072  0.68407  0.68457  1.0000
  H   H649      1.0  0.97479  0.47570  0.73582  1.0000
  H   H650      1.0  0.80737  0.79371  0.63818  1.0000
  H   H651      1.0  0.99032  0.47723  0.57798  1.0000
  H   H652      1.0  0.78305  0.84039  0.57276  1.0000
  C   C374      1.0  0.78250  0.75684  0.64160  1.0000
  H   H653      1.0  0.98134  0.53992  0.56081  1.0000
  C   C375      1.0  0.71193  0.78918  0.68814  1.0000
  C   C376      1.0  0.80275  0.73263  0.59942  1.0000
  H   H654      1.0  0.94869  0.53221  0.65085  1.0000
  H   H655      1.0  0.67613  0.73830  0.50094  1.0000
  H   H656      1.0  0.59354  0.65541  0.53721  1.0000
  H   H657      1.0  0.62972  0.61496  0.61115  1.0000
  H   H658      1.0  0.88894  0.48886  0.67758  1.0000
  H   H659      1.0  0.65105  0.71237  0.68612  1.0000
  C   C377      1.0  0.91056  0.49189  0.60137  1.0000
  H   H660      1.0  0.66796  0.79309  0.69364  1.0000
  H   H661      1.0  0.87914  0.71853  0.62612  1.0000
  H   H662      1.0  0.93948  0.96471  0.65781  1.0000
  C   C378      1.0  0.90342  0.51548  0.49694  1.0000
  C   C379      1.0  0.72912  0.76610  0.73744  1.0000
  S   S89       1.0  0.79329  0.50496  0.73862  1.0000
  H   H663      1.0  0.77367  0.77543  0.73637  1.0000
  H   H664      1.0  0.82147  0.57226  0.51745  1.0000
  C   C380      1.0  0.90721  0.57240  0.49359  1.0000
  H   H665      1.0  0.57281  0.71502  0.98426  1.0000
  H   H666      1.0  0.71186  0.82753  0.77217  1.0000
  H   H667      1.0  0.61137  0.67046  0.92958  1.0000
  C   C381      1.0  0.98953  0.48503  0.80669  1.0000
  C   C382      1.0  0.63433  0.61442  0.98531  1.0000
  H   H668      1.0  0.60947  0.53340  0.76706  1.0000
  H   H669      1.0  0.75721  0.94172  0.89167  1.0000
  S   S90       1.0  0.05607  0.51459  0.78709  1.0000
  H   H670      1.0  0.56030  0.91731  0.86160  1.0000
  H   H671      1.0  0.63890  0.68406  0.78496  1.0000
  H   H672      1.0  0.57353  0.95293  0.77294  1.0000
  H   H673      1.0  0.64836  0.95644  0.87753  1.0000
  C   C383      1.0  0.96790  0.47677  0.85547  1.0000
  H   H674      1.0  0.03193  0.61199  0.96246  1.0000
  S   S91       1.0  0.70057  0.60408  0.77481  1.0000
  C   C384      1.0  0.95776  0.46985  0.77321  1.0000
  C   C385      1.0  0.59613  0.56902  0.76647  1.0000
  H   H675      1.0  0.77763  0.93832  0.97785  1.0000
  H   H676      1.0  0.67457  0.57800  0.93241  1.0000
  H   H677      1.0  0.73014  0.50118  0.97448  1.0000
  H   H678      1.0  0.71477  0.59270  0.97813  1.0000
  C   C386      1.0  0.57295  0.95755  0.84698  1.0000
  C   C387      1.0  0.68498  0.60627  0.95433  1.0000
  C   C388      1.0  0.59217  0.63438  0.95312  1.0000
  H   H679      1.0  0.65273  0.94508  0.81686  1.0000
  H   H680      1.0  0.58661  0.60864  0.92790  1.0000
  H   H681      1.0  0.01888  0.61956  0.86852  1.0000
  H   H682      1.0  0.71563  0.77019  0.81329  1.0000
  Fe  Fe46      1.0  0.71341  0.52922  0.75952  1.0000
  H   H683      1.0  0.99264  0.48796  0.88159  1.0000
  H   H684      1.0  0.05165  0.61925  0.80907  1.0000
  C   C389      1.0  0.70166  0.78648  0.77876  1.0000
  C   C390      1.0  0.63158  0.60889  0.77408  1.0000
  H   H685      1.0  0.76524  0.47180  0.93116  1.0000
  C   C391      1.0  0.56014  0.66063  0.76682  1.0000
  H   H686      1.0  0.65689  0.77665  0.78240  1.0000
  C   C392      1.0  0.05853  0.62737  0.84500  1.0000
  H   H687      1.0  0.57741  0.49939  0.89083  1.0000
  H   H688      1.0  0.70414  0.64155  0.92975  1.0000
  C   C393      1.0  0.61261  0.65393  0.77677  1.0000
  H   H689      1.0  0.71947  0.72515  0.74604  1.0000
  H   H690      1.0  0.99587  0.52374  0.96700  1.0000
  H   H691      1.0  0.02435  0.70184  0.97544  1.0000
  H   H692      1.0  0.94300  0.56191  0.97318  1.0000
  C   C394      1.0  0.97644  0.54617  0.99079  1.0000
  H   H693      1.0  0.68973  0.91593  0.74413  1.0000
  H   H694      1.0  0.60761  0.53638  0.21925  1.0000
  C   C395      1.0  0.81685  0.92157  0.06409  1.0000
  H   H695      1.0  0.95932  0.52132  0.02577  1.0000
  C   C396      1.0  0.57780  0.53986  0.12609  1.0000
  Fe  Fe47      1.0  0.99508  0.96379  0.01853  1.0000
  H   H696      1.0  0.97337  0.59218  0.06683  1.0000
  H   H697      1.0  0.74858  0.88999  0.20864  1.0000
  Fe  Fe48      1.0  0.99307  0.90050  0.11858  1.0000
  H   H698      1.0  0.64110  0.60248  0.11277  1.0000
  H   H699      1.0  0.02990  0.70774  0.09670  1.0000
  H   H700      1.0  0.70949  0.93411  0.03977  1.0000
  H   H701      1.0  0.73332  0.49914  0.22708  1.0000
  C   C397      1.0  0.64464  0.95774  0.11517  1.0000
  C   C398      1.0  0.70524  0.48342  0.20466  1.0000
  H   H702      1.0  0.77243  0.47593  0.15281  1.0000
  C   C399      1.0  0.91745  0.88813  0.22826  1.0000
  C   C400      1.0  0.00130  0.68300  0.08122  1.0000
  H   H703      1.0  0.90908  0.95004  0.17287  1.0000
  C   C401      1.0  0.90069  0.93377  0.21085  1.0000
  H   H704      1.0  0.64753  0.64099  0.00795  1.0000
  C   C402      1.0  0.74815  0.85905  0.23990  1.0000
  H   H705      1.0  0.58113  0.65949  0.14080  1.0000
  H   H706      1.0  0.63214  0.92078  0.10678  1.0000
  C   C403      1.0  0.99392  0.61825  0.03343  1.0000
  H   H707      1.0  0.85151  0.86640  0.11194  1.0000
  H   H708      1.0  0.92458  0.69046  0.05056  1.0000
  S   S92       1.0  0.97956  0.88128  0.04696  1.0000
  C   C404      1.0  0.87221  0.95796  0.24256  1.0000
  H   H709      1.0  0.58640  0.62282  0.23334  1.0000
  C   C405      1.0  0.84911  0.90687  0.10578  1.0000
  S   S93       1.0  0.95002  0.85524  0.18932  1.0000
  H   H710      1.0  0.97922  0.65481  0.11243  1.0000
  H   H711      1.0  0.91330  0.71274  0.13210  1.0000
  H   H712      1.0  0.89091  0.92721  0.09731  1.0000
  H   H713      1.0  0.83599  0.90930  0.03202  1.0000
  H   H714      1.0  0.96062  0.63450  0.01601  1.0000
  H   H715      1.0  0.61752  0.57819  0.00929  1.0000
  C   C406      1.0  0.56477  0.62145  0.14110  1.0000
  H   H716      1.0  0.69415  0.51498  0.17896  1.0000
  H   H717      1.0  0.57590  0.66897  0.03646  1.0000
  H   H718      1.0  0.63747  0.95442  0.15496  1.0000
  H   H719      1.0  0.72821  0.95224  0.12006  1.0000
  C   C407      1.0  0.01854  0.58769  0.99841  1.0000
  H   H720      1.0  0.05313  0.57040  0.01210  1.0000
  N   N22       1.0  0.03258  0.65856  0.04584  1.0000
  H   H721      1.0  0.77549  0.90068  0.07456  1.0000
  H   H722      1.0  0.96488  0.76617  0.11037  1.0000
  C   C408      1.0  0.93319  0.74032  0.09956  1.0000
  H   H723      1.0  0.03806  0.56415  0.10914  1.0000
  H   H724      1.0  0.90229  0.76237  0.08471  1.0000
  H   H725      1.0  0.03692  0.61143  0.14524  1.0000
  H   H726      1.0  0.74076  0.82340  0.22749  1.0000
  C   C409      1.0  0.95801  0.71439  0.06121  1.0000
  S   S94       1.0  0.62208  0.50138  0.10542  1.0000
  C   C410      1.0  0.59867  0.58920  0.12537  1.0000
  H   H727      1.0  0.97548  0.74388  0.02938  1.0000
  H   H728      1.0  0.82907  0.91537  0.13948  1.0000
  C   C411      1.0  0.05498  0.69779  0.00111  1.0000
  H   H729      1.0  0.81389  0.47553  0.00308  1.0000
  C   C412      1.0  0.00123  0.51514  0.47823  1.0000
  H   H730      1.0  0.72624  0.80786  0.43780  1.0000
  C   C413      1.0  0.70275  0.82005  0.32499  1.0000
  C   C414      1.0  0.66006  0.77241  0.40436  1.0000
  C   C415      1.0  0.62502  0.53026  0.25397  1.0000
  H   H731      1.0  0.61753  0.94183  0.41767  1.0000
  H   H732      1.0  0.74621  0.73038  0.48775  1.0000
  C   C416      1.0  0.59456  0.55856  0.28813  1.0000
  C   C417      1.0  0.70702  0.73122  0.47292  1.0000
  H   H733      1.0  0.60926  0.55297  0.32393  1.0000
  C   C418      1.0  0.63365  0.91560  0.44544  1.0000
  H   H734      1.0  0.74653  0.76485  0.40157  1.0000
  H   H735      1.0  0.65482  0.73772  0.38992  1.0000
  H   H736      1.0  0.74293  0.82686  0.33783  1.0000
  H   H737      1.0  0.66460  0.85995  0.26501  1.0000
  C   C419      1.0  0.66467  0.86451  0.38475  1.0000
  H   H738      1.0  0.85636  0.63088  0.48284  1.0000
  H   H739      1.0  0.68591  0.50075  0.39738  1.0000
  H   H740      1.0  0.91998  0.83200  0.29140  1.0000
  C   C420      1.0  0.70286  0.48989  0.32328  1.0000
  C   C421      1.0  0.90700  0.86731  0.27775  1.0000
  H   H741      1.0  0.58584  0.85159  0.43178  1.0000
  H   H742      1.0  0.89707  0.50916  0.46030  1.0000
  C   C422      1.0  0.60319  0.61449  0.26803  1.0000
  H   H743      1.0  0.65525  0.89605  0.35785  1.0000
  H   H744      1.0  0.93736  0.59232  0.46244  1.0000
  C   C423      1.0  0.60274  0.81178  0.34819  1.0000
  C   C424      1.0  0.86236  0.93736  0.29209  1.0000
  C   C425      1.0  0.05291  0.49033  0.48605  1.0000
  C   C426      1.0  0.59133  0.77019  0.31922  1.0000
  H   H745      1.0  0.87270  0.87627  0.34801  1.0000
  H   H746      1.0  0.70781  0.87545  0.38914  1.0000
  H   H747      1.0  0.78853  0.86241  0.25270  1.0000
  H   H748      1.0  0.01182  0.55491  0.48010  1.0000
  H   H749      1.0  0.69435  0.69432  0.46435  1.0000
  H   H750      1.0  0.75644  0.49982  0.37721  1.0000
  H   H751      1.0  0.70218  0.78383  0.31324  1.0000
  H   H752      1.0  0.58164  0.63340  0.29402  1.0000
  C   C427      1.0  0.85253  0.58997  0.48609  1.0000
  H   H753      1.0  0.70818  0.53038  0.30858  1.0000
  H   H754      1.0  0.59574  0.84729  0.32560  1.0000
  H   H755      1.0  0.61718  0.47355  0.34950  1.0000
  H   H756      1.0  0.99332  0.51585  0.44032  1.0000
  H   H757      1.0  0.73350  0.47253  0.30358  1.0000
  H   H758      1.0  0.59348  0.73308  0.34124  1.0000
  S   S95       1.0  0.58881  0.95132  0.29446  1.0000
  H   H759      1.0  0.71197  0.89859  0.29014  1.0000
  H   H760      1.0  0.64696  0.62962  0.26254  1.0000
  N   N23       1.0  0.65768  0.81714  0.36552  1.0000
  C   C428      1.0  0.88028  0.89230  0.30974  1.0000
  C   C429      1.0  0.71341  0.77207  0.42750  1.0000
  C   C430      1.0  0.71440  0.48274  0.37582  1.0000
  H   H761      1.0  0.62067  0.77610  0.28587  1.0000
  H   H762      1.0  0.62546  0.76768  0.43354  1.0000
  H   H763      1.0  0.83873  0.58059  0.45258  1.0000
  H   H764      1.0  0.57006  0.80431  0.37934  1.0000
  C   C431      1.0  0.70363  0.86190  0.28011  1.0000
  C   C432      1.0  0.62919  0.86396  0.43323  1.0000
  H   H765      1.0  0.64231  0.83847  0.46346  1.0000
  N   N24       1.0  0.62343  0.47522  0.27267  1.0000
  H   H766      1.0  0.67661  0.92975  0.44722  1.0000
  S   S96       1.0  0.58916  0.62991  0.44377  1.0000
  H   H767      1.0  0.60966  0.91371  0.48113  1.0000
  H   H768      1.0  0.66720  0.54960  0.24510  1.0000
