data_image0
_chemical_formula_structural       H4C2H2C2H3CHCNHC3H3CH3CH4C2HCH2CH2SH2CHFeS2FeS2FeSFeS3C2HCH2C3H5C2H2NC12H18CH3CH4CH2C2H2CH2C2H2CHFeSHFeSCSFeSFeS2Fe2NS2HCHC6H5C2H2CH2CHCHSNH4CSCH3CHC2H2C4H6CH8CHC2HFeCHCH3SCHCHCH5NHCH4CHC2H2CH3C2H2CH3C2H3CHCH2CNH3CHCH2CHSH2CH3CHSH2CHNCHC2H2CS2H2CH3C2HC5H4CH2CH2C2FeHCHCH7CH3CHSH2CH3CHC2H4CFeSHFeSHFeHFeS3HCH9CH2C3H3NC7H3CH2C2SH4CH3CHSHFeS2FeS2FeSFeS3HCH3CHC2H2CHC2HCHC2H2CHC3H10NC6H2C2H6CH5CH2CH3NH3CH2C4H4CH3CH2CH3CH2C2H2CH2CHCNH2CH7C2HCH3SH5C3HC2HC6H6CH5C2H2C2HCHCH7CSH3C3H6CHC2NHCH3CH2CH3CHFeSH2SFeSFeSHFeS2H2FeS2HC6H6CH3C5HCH3CH3SH3CNHCFeH7SHCHCH3CHCH2C2HCH2CHCH3SH3CHFeSHFeSCFeHFeS3HCHCH2CH2CHSHNC4H7C2SH9C5HCH3CH9CH2S2C2HCSCFeC2H4CH3C3HCH2NHCHCH8NHC2HCHC2HC2HCH3C2H2CHC2HCH2SH2FeCH2CH5CH8CH5CHC2
_chemical_formula_sum              "H512 C288 N16 S64 Fe32"
_cell_length_a       28.9815
_cell_length_b       31.9193
_cell_length_c       32.0869
_cell_angle_alpha    90.7856
_cell_angle_beta     89.7129
_cell_angle_gamma    90.1169

_space_group_name_H-M_alt    "P 1"
_space_group_IT_number       1

loop_
  _space_group_symop_operation_xyz
  'x, y, z'

loop_
  _atom_site_type_symbol
  _atom_site_label
  _atom_site_symmetry_multiplicity
  _atom_site_fract_x
  _atom_site_fract_y
  _atom_site_fract_z
  _atom_site_occupancy
  H   H1        1.0  0.07771  0.17251  0.39366  1.0000
  H   H2        1.0  0.01293  0.14551  0.34722  1.0000
  H   H3        1.0  0.20828  0.07559  0.49973  1.0000
  H   H4        1.0  0.31201  0.31187  0.44024  1.0000
  C   C1        1.0  0.10037  0.24541  0.44919  1.0000
  C   C2        1.0  0.48665  0.32151  0.27606  1.0000
  H   H5        1.0  0.20127  0.08633  0.44514  1.0000
  H   H6        1.0  0.15042  0.19690  0.44659  1.0000
  C   C3        1.0  0.41152  0.33716  0.15652  1.0000
  C   C4        1.0  0.13347  0.28054  0.46230  1.0000
  H   H7        1.0  0.09306  0.09744  0.45364  1.0000
  H   H8        1.0  0.03976  0.10276  0.40663  1.0000
  H   H9        1.0  0.06575  0.25328  0.46156  1.0000
  C   C5        1.0  0.05739  0.15943  0.49917  1.0000
  H   H10       1.0  0.17642  0.14593  0.48977  1.0000
  C   C6        1.0  0.49277  0.07432  0.01492  1.0000
  N   N1        1.0  0.08559  0.16498  0.45996  1.0000
  H   H11       1.0  0.03459  0.19810  0.42347  1.0000
  C   C7        1.0  0.11775  0.20230  0.46442  1.0000
  C   C8        1.0  0.11482  0.12620  0.45349  1.0000
  C   C9        1.0  0.18250  0.08083  0.47484  1.0000
  H   H12       1.0  0.27127  0.24575  0.45800  1.0000
  H   H13       1.0  0.13208  0.12698  0.42236  1.0000
  H   H14       1.0  0.30961  0.35145  0.28380  1.0000
  C   C10       1.0  0.02125  0.13250  0.41336  1.0000
  H   H15       1.0  0.03876  0.12897  0.49827  1.0000
  H   H16       1.0  0.12106  0.31097  0.45034  1.0000
  H   H17       1.0  0.38666  0.33248  0.13062  1.0000
  C   C11       1.0  0.29474  0.30903  0.47003  1.0000
  H   H18       1.0  0.45498  0.26543  0.25114  1.0000
  H   H19       1.0  0.36007  0.34685  0.20378  1.0000
  H   H20       1.0  0.44350  0.35203  0.14443  1.0000
  H   H21       1.0  0.16864  0.27464  0.44956  1.0000
  C   C12       1.0  0.05553  0.16911  0.42191  1.0000
  C   C13       1.0  0.29498  0.34289  0.49820  1.0000
  H   H22       1.0  0.12850  0.20622  0.49754  1.0000
  C   C14       1.0  0.27155  0.27153  0.48022  1.0000
  H   H23       1.0  0.13561  0.28291  0.49684  1.0000
  H   H24       1.0  0.16092  0.05223  0.47155  1.0000
  C   C15       1.0  0.15283  0.11879  0.48646  1.0000
  H   H25       1.0  0.09855  0.24522  0.41459  1.0000
  H   H26       1.0  0.46318  0.09238  0.02522  1.0000
  S   S1        1.0  0.43780  0.33398  0.30751  1.0000
  H   H27       1.0  0.46958  0.04495  0.11304  1.0000
  H   H28       1.0  0.42082  0.30601  0.16905  1.0000
  C   C16       1.0  0.48547  0.28505  0.25092  1.0000
  H   H29       1.0  0.32819  0.03041  0.06274  1.0000
  Fe  Fe1       1.0  0.11102  0.13255  0.61704  1.0000
  S   S2        1.0  0.18368  0.12403  0.59389  1.0000
  S   S3        1.0  0.04624  0.09575  0.59758  1.0000
  Fe  Fe2       1.0  0.13801  0.20565  0.67487  1.0000
  S   S4        1.0  0.21286  0.20247  0.65477  1.0000
  S   S5        1.0  0.12326  0.25500  0.72572  1.0000
  Fe  Fe3       1.0  0.18660  0.19462  0.58955  1.0000
  S   S6        1.0  0.21890  0.21940  0.52918  1.0000
  Fe  Fe4       1.0  0.20522  0.13261  0.66076  1.0000
  S   S7        1.0  0.26683  0.09538  0.68456  1.0000
  S   S8        1.0  0.11207  0.20280  0.60870  1.0000
  S   S9        1.0  0.13230  0.13604  0.68487  1.0000
  C   C17       1.0  0.03788  0.06206  0.55363  1.0000
  C   C18       1.0  0.29913  0.19057  0.74436  1.0000
  H   H30       1.0  0.10965  0.04841  0.54336  1.0000
  C   C19       1.0  0.24940  0.30081  0.54715  1.0000
  H   H31       1.0  0.20086  0.06657  0.74747  1.0000
  H   H32       1.0  0.23181  0.29809  0.57681  1.0000
  C   C20       1.0  0.23535  0.05897  0.75759  1.0000
  C   C21       1.0  0.31784  0.05936  0.74617  1.0000
  C   C22       1.0  0.27325  0.07003  0.73293  1.0000
  H   H33       1.0  0.08011  0.12235  0.77458  1.0000
  H   H34       1.0  0.47799  0.03325  0.78760  1.0000
  H   H35       1.0  0.10375  0.31901  0.78685  1.0000
  H   H36       1.0  0.27046  0.08582  0.93377  1.0000
  H   H37       1.0  0.08024  0.15735  0.52680  1.0000
  C   C23       1.0  0.07040  0.27141  0.74931  1.0000
  C   C24       1.0  0.07125  0.30414  0.77918  1.0000
  H   H38       1.0  0.23080  0.06101  0.89822  1.0000
  H   H39       1.0  0.02676  0.22748  0.71669  1.0000
  N   N2        1.0  0.20273  0.16891  0.82805  1.0000
  C   C25       1.0  0.16281  0.16306  0.79837  1.0000
  C   C26       1.0  0.24821  0.16766  0.80461  1.0000
  C   C27       1.0  0.20176  0.13248  0.85778  1.0000
  C   C28       1.0  0.19832  0.20876  0.85360  1.0000
  C   C29       1.0  0.19561  0.25002  0.82901  1.0000
  C   C30       1.0  0.11382  0.16560  0.81805  1.0000
  C   C31       1.0  0.24513  0.12680  0.88552  1.0000
  C   C32       1.0  0.24955  0.18657  0.76033  1.0000
  C   C33       1.0  0.02807  0.25254  0.73969  1.0000
  C   C34       1.0  0.18198  0.28683  0.85742  1.0000
  C   C35       1.0  0.07667  0.15525  0.78589  1.0000
  C   C36       1.0  0.23838  0.09055  0.91562  1.0000
  H   H40       1.0  0.16621  0.13242  0.78154  1.0000
  H   H41       1.0  0.16322  0.18673  0.77344  1.0000
  H   H42       1.0  0.27587  0.18279  0.82359  1.0000
  H   H43       1.0  0.25954  0.13463  0.79954  1.0000
  H   H44       1.0  0.19686  0.10247  0.84019  1.0000
  H   H45       1.0  0.17188  0.13505  0.87951  1.0000
  H   H46       1.0  0.16767  0.20707  0.87458  1.0000
  H   H47       1.0  0.22822  0.21253  0.87485  1.0000
  H   H48       1.0  0.16974  0.24820  0.80388  1.0000
  H   H49       1.0  0.22990  0.25746  0.81543  1.0000
  H   H50       1.0  0.10942  0.14328  0.84387  1.0000
  H   H51       1.0  0.10702  0.19783  0.83005  1.0000
  H   H52       1.0  0.25243  0.15536  0.90437  1.0000
  H   H53       1.0  0.45350  0.03651  0.97113  1.0000
  H   H54       1.0  0.23073  0.16545  0.73847  1.0000
  H   H55       1.0  0.23328  0.21780  0.75890  1.0000
  H   H56       1.0  0.20966  0.09732  0.93773  1.0000
  H   H57       1.0  0.01329  0.17948  0.57534  1.0000
  C   C37       1.0  0.24214  0.03722  0.79501  1.0000
  H   H58       1.0  0.18158  0.31610  0.83907  1.0000
  H   H59       1.0  0.14681  0.28195  0.87048  1.0000
  H   H60       1.0  0.31890  0.21309  0.76404  1.0000
  C   C38       1.0  0.27209  0.33851  0.53674  1.0000
  H   H61       1.0  0.04197  0.15937  0.80016  1.0000
  H   H62       1.0  0.07938  0.17653  0.75893  1.0000
  H   H63       1.0  0.21264  0.02839  0.81373  1.0000
  H   H64       1.0  0.31661  0.15961  0.74431  1.0000
  C   C39       1.0  0.03034  0.31822  0.79891  1.0000
  H   H65       1.0  0.04094  0.22369  0.51858  1.0000
  H   H66       1.0  0.35911  0.03030  0.79380  1.0000
  C   C40       1.0  0.48716  0.04259  0.98436  1.0000
  C   C41       1.0  0.32462  0.03792  0.78372  1.0000
  H   H67       1.0  0.03157  0.34358  0.82159  1.0000
  H   H68       1.0  0.27614  0.11936  0.86637  1.0000
  C   C42       1.0  0.07485  0.04336  0.53237  1.0000
  H   H69       1.0  0.20703  0.29075  0.88328  1.0000
  H   H70       1.0  0.34735  0.06782  0.72724  1.0000
  C   C43       1.0  0.24882  0.26708  0.51883  1.0000
  C   C44       1.0  0.28672  0.02621  0.80803  1.0000
  H   H71       1.0  0.29898  0.20217  0.71189  1.0000
  H   H72       1.0  0.13685  0.11285  0.51714  1.0000
  C   C45       1.0  0.02232  0.19454  0.50974  1.0000
  H   H73       1.0  0.19054  0.60732  0.30665  1.0000
  Fe  Fe5       1.0  0.08945  0.64174  0.10442  1.0000
  S   S10       1.0  0.15995  0.61484  0.09398  1.0000
  H   H74       1.0  0.36020  0.47647  0.12694  1.0000
  Fe  Fe6       1.0  0.16981  0.62327  0.16334  1.0000
  S   S11       1.0  0.19059  0.56743  0.20341  1.0000
  C   C46       1.0  0.06094  0.58386  0.26274  1.0000
  S   S12       1.0  0.09710  0.64651  0.17407  1.0000
  Fe  Fe7       1.0  0.36855  0.40999  0.43157  1.0000
  S   S13       1.0  0.44053  0.38479  0.42339  1.0000
  Fe  Fe8       1.0  0.38180  0.47447  0.36129  1.0000
  S   S14       1.0  0.45480  0.45322  0.34911  1.0000
  S   S15       1.0  0.36061  0.53157  0.32351  1.0000
  Fe  Fe9       1.0  0.42698  0.38790  0.35430  1.0000
  Fe  Fe10      1.0  0.46251  0.45254  0.41872  1.0000
  N   N3        1.0  0.36389  0.44122  0.20720  1.0000
  S   S16       1.0  0.35303  0.40901  0.36276  1.0000
  S   S17       1.0  0.39168  0.47784  0.43091  1.0000
  H   H75       1.0  0.06622  0.63880  0.32805  1.0000
  C   C47       1.0  0.08921  0.64839  0.30206  1.0000
  H   H76       1.0  0.34459  0.40141  0.15458  1.0000
  C   C48       1.0  0.23712  0.55933  0.23815  1.0000
  C   C49       1.0  0.27406  0.58737  0.24154  1.0000
  C   C50       1.0  0.31121  0.57852  0.26824  1.0000
  C   C51       1.0  0.31181  0.54174  0.29195  1.0000
  C   C52       1.0  0.27428  0.51421  0.28936  1.0000
  C   C53       1.0  0.23732  0.52290  0.26240  1.0000
  H   H77       1.0  0.27439  0.61548  0.22307  1.0000
  H   H78       1.0  0.33996  0.60012  0.27018  1.0000
  H   H79       1.0  0.27389  0.48612  0.30784  1.0000
  H   H80       1.0  0.20874  0.50113  0.26013  1.0000
  H   H81       1.0  0.07235  0.55506  0.24581  1.0000
  C   C54       1.0  0.30302  0.51930  0.13177  1.0000
  C   C55       1.0  0.34409  0.49686  0.15120  1.0000
  H   H82       1.0  0.40224  0.41927  0.15322  1.0000
  H   H83       1.0  0.43828  0.42437  0.26357  1.0000
  C   C56       1.0  0.01678  0.56914  0.04948  1.0000
  H   H84       1.0  0.26825  0.42765  0.23972  1.0000
  H   H85       1.0  0.46575  0.54541  0.46685  1.0000
  C   C57       1.0  0.37499  0.40774  0.17486  1.0000
  H   H86       1.0  0.47526  0.49639  0.26981  1.0000
  C   C58       1.0  0.40630  0.46658  0.21811  1.0000
  H   H87       1.0  0.06732  0.66638  0.28012  1.0000
  S   S18       1.0  0.02260  0.61870  0.07456  1.0000
  N   N4        1.0  0.12807  0.67582  0.31789  1.0000
  H   H88       1.0  0.36699  0.40048  0.26101  1.0000
  H   H89       1.0  0.22888  0.61911  0.39525  1.0000
  H   H90       1.0  0.46192  0.42040  0.21142  1.0000
  H   H91       1.0  0.24974  0.58344  0.35549  1.0000
  C   C59       1.0  0.15648  0.65318  0.34999  1.0000
  S   S19       1.0  0.32231  0.39153  0.48665  1.0000
  C   C60       1.0  0.10310  0.60674  0.28038  1.0000
  H   H92       1.0  0.28626  0.54057  0.15501  1.0000
  H   H93       1.0  0.36906  0.52162  0.16064  1.0000
  H   H94       1.0  0.22686  0.64912  0.32358  1.0000
  C   C61       1.0  0.28244  0.37526  0.27834  1.0000
  H   H95       1.0  0.12730  0.61221  0.25434  1.0000
  C   C62       1.0  0.05379  0.54128  0.04573  1.0000
  C   C63       1.0  0.44791  0.44223  0.23549  1.0000
  H   H96       1.0  0.39705  0.49196  0.24096  1.0000
  H   H97       1.0  0.07745  0.48208  0.02043  1.0000
  C   C64       1.0  0.34351  0.42352  0.24667  1.0000
  C   C65       1.0  0.19887  0.62772  0.33369  1.0000
  C   C66       1.0  0.21864  0.59996  0.36764  1.0000
  C   C67       1.0  0.32874  0.47111  0.18955  1.0000
  H   H98       1.0  0.19295  0.57600  0.37713  1.0000
  H   H99       1.0  0.35649  0.54879  0.49342  1.0000
  H   H100      1.0  0.34005  0.44867  0.27092  1.0000
  H   H101      1.0  0.03707  0.57471  0.28824  1.0000
  H   H102      1.0  0.08668  0.54928  0.05953  1.0000
  H   H103      1.0  0.31749  0.49408  0.21394  1.0000
  C   C68       1.0  0.29511  0.40294  0.24158  1.0000
  H   H104      1.0  0.27706  0.49635  0.12014  1.0000
  H   H105      1.0  0.04216  0.60389  0.24047  1.0000
  H   H106      1.0  0.27745  0.39478  0.30688  1.0000
  H   H107      1.0  0.29319  0.38364  0.21265  1.0000
  H   H108      1.0  0.42025  0.48245  0.19018  1.0000
  H   H109      1.0  0.11914  0.58536  0.30306  1.0000
  H   H110      1.0  0.31496  0.53842  0.10513  1.0000
  H   H111      1.0  0.24947  0.35870  0.27180  1.0000
  C   C69       1.0  0.48725  0.47214  0.24708  1.0000
  H   H112      1.0  0.13403  0.63164  0.36816  1.0000
  C   C70       1.0  0.00633  0.49285  0.00435  1.0000
  C   C71       1.0  0.39022  0.36415  0.19125  1.0000
  H   H113      1.0  0.29709  0.45386  0.17985  1.0000
  Fe  Fe11      1.0  0.18404  0.68205  0.08858  1.0000
  C   C72       1.0  0.04842  0.50315  0.02360  1.0000
  H   H114      1.0  0.17055  0.67565  0.37360  1.0000
  C   C73       1.0  0.49594  0.54938  0.48621  1.0000
  H   H115      1.0  0.17502  0.66410  0.26572  1.0000
  H   H116      1.0  0.41569  0.36638  0.21669  1.0000
  H   H117      1.0  0.08140  0.68275  0.39464  1.0000
  S   S20       1.0  0.19979  0.68817  0.15721  1.0000
  C   C74       1.0  0.15657  0.69046  0.28129  1.0000
  H   H118      1.0  0.39988  0.53190  0.58121  1.0000
  C   C75       1.0  0.36555  0.41572  0.59854  1.0000
  H   H119      1.0  0.35801  0.39456  0.66262  1.0000
  C   C76       1.0  0.47539  0.51939  0.62116  1.0000
  H   H120      1.0  0.05425  0.61898  0.97819  1.0000
  H   H121      1.0  0.42350  0.52118  0.53103  1.0000
  H   H122      1.0  0.04733  0.53423  0.94381  1.0000
  H   H123      1.0  0.09685  0.52129  0.85898  1.0000
  H   H124      1.0  0.31173  0.37929  0.62831  1.0000
  N   N5        1.0  0.42777  0.46923  0.57309  1.0000
  H   H125      1.0  0.44968  0.51383  0.64621  1.0000
  C   C77       1.0  0.04796  0.53737  0.90952  1.0000
  H   H126      1.0  0.14000  0.46753  0.89656  1.0000
  H   H127      1.0  0.42571  0.43618  0.63188  1.0000
  H   H128      1.0  0.10672  0.47747  0.94326  1.0000
  H   H129      1.0  0.09871  0.58136  0.96633  1.0000
  C   C78       1.0  0.10593  0.47804  0.90865  1.0000
  H   H130      1.0  0.38354  0.47561  0.62732  1.0000
  C   C79       1.0  0.43574  0.43855  0.53754  1.0000
  C   C80       1.0  0.12102  0.64523  0.96725  1.0000
  H   H131      1.0  0.33425  0.56670  0.54342  1.0000
  H   H132      1.0  0.06347  0.57885  0.83556  1.0000
  C   C81       1.0  0.09577  0.52227  0.89354  1.0000
  H   H133      1.0  0.46567  0.39328  0.58234  1.0000
  H   H134      1.0  0.40269  0.42746  0.52425  1.0000
  H   H135      1.0  0.02966  0.65035  0.84028  1.0000
  C   C82       1.0  0.40301  0.50716  0.55669  1.0000
  C   C83       1.0  0.08423  0.61214  0.95761  1.0000
  H   H136      1.0  0.47053  0.60546  0.51685  1.0000
  H   H137      1.0  0.34204  0.42483  0.57324  1.0000
  C   C84       1.0  0.40155  0.45044  0.60922  1.0000
  H   H138      1.0  0.32982  0.49326  0.56738  1.0000
  H   H139      1.0  0.10198  0.60942  0.89167  1.0000
  H   H140      1.0  0.10799  0.67714  0.96062  1.0000
  C   C85       1.0  0.07011  0.61281  0.91091  1.0000
  C   C86       1.0  0.49882  0.58348  0.51447  1.0000
  H   H141      1.0  0.12388  0.54298  0.90497  1.0000
  H   H142      1.0  0.05763  0.64510  0.90494  1.0000
  H   H143      1.0  0.31545  0.43272  0.64680  1.0000
  C   C87       1.0  0.33600  0.40507  0.63654  1.0000
  H   H144      1.0  0.00865  0.55494  0.83936  1.0000
  C   C88       1.0  0.35314  0.50050  0.54088  1.0000
  H   H145      1.0  0.07912  0.45567  0.89742  1.0000
  H   H146      1.0  0.15286  0.63924  0.94872  1.0000
  C   C89       1.0  0.33476  0.54019  0.52064  1.0000
  N   N6        1.0  0.03415  0.58108  0.89764  1.0000
  H   H147      1.0  0.35093  0.47503  0.51731  1.0000
  H   H148      1.0  0.49416  0.45690  0.60120  1.0000
  H   H149      1.0  0.03655  0.61431  0.77069  1.0000
  C   C90       1.0  0.02915  0.58230  0.85090  1.0000
  H   H150      1.0  0.02230  0.51407  0.89785  1.0000
  C   C91       1.0  0.47478  0.48356  0.58790  1.0000
  H   H151      1.0  0.46768  0.54985  0.60635  1.0000
  H   H152      1.0  0.13012  0.64416  0.00084  1.0000
  C   C92       1.0  0.00756  0.62277  0.83321  1.0000
  H   H153      1.0  0.45267  0.45455  0.51081  1.0000
  S   S21       1.0  0.00319  0.44723  0.97232  1.0000
  H   H154      1.0  0.38300  0.38645  0.58826  1.0000
  H   H155      1.0  0.27163  0.36456  0.55862  1.0000
  C   C93       1.0  0.46373  0.39851  0.54832  1.0000
  H   H156      1.0  0.44562  0.37066  0.53494  1.0000
  H   H157      1.0  0.49598  0.49448  0.56110  1.0000
  H   H158      1.0  0.29902  0.53454  0.50951  1.0000
  C   C94       1.0  0.00244  0.61935  0.78589  1.0000
  H   H159      1.0  0.35041  0.02152  0.01048  1.0000
  S   S22       1.0  0.11088  0.76988  0.20254  1.0000
  H   H160      1.0  0.13364  0.70274  0.25656  1.0000
  H   H161      1.0  0.36400  0.89038  0.15751  1.0000
  C   C95       1.0  0.06318  0.81587  0.26139  1.0000
  H   H162      1.0  0.21084  0.74262  0.22858  1.0000
  N   N7        1.0  0.45050  0.95865  0.07835  1.0000
  C   C96       1.0  0.06522  0.77785  0.23877  1.0000
  H   H163      1.0  0.42601  0.01100  0.04293  1.0000
  C   C97       1.0  0.46273  0.93360  0.03956  1.0000
  C   C98       1.0  0.03155  0.95084  0.26264  1.0000
  H   H164      1.0  0.46846  0.95492  0.01281  1.0000
  H   H165      1.0  0.30108  0.99246  0.02854  1.0000
  C   C99       1.0  0.05826  0.74686  0.39633  1.0000
  S   S23       1.0  0.11242  0.70838  0.09469  1.0000
  S   S24       1.0  0.01405  0.97685  0.43830  1.0000
  H   H166      1.0  0.09559  0.00282  0.48122  1.0000
  H   H167      1.0  0.09028  0.73427  0.31403  1.0000
  C   C100      1.0  0.36611  0.97183  0.05428  1.0000
  H   H168      1.0  0.17407  0.75609  0.29551  1.0000
  H   H169      1.0  0.13369  0.73430  0.35277  1.0000
  H   H170      1.0  0.30682  0.83057  0.07156  1.0000
  C   C101      1.0  0.27066  0.77365  0.05460  1.0000
  C   C102      1.0  0.02794  0.82335  0.29099  1.0000
  H   H171      1.0  0.21061  0.71913  0.32109  1.0000
  C   C103      1.0  0.33466  0.00633  0.03809  1.0000
  C   C104      1.0  0.06957  0.70652  0.37216  1.0000
  C   C105      1.0  0.40957  0.89008  0.10320  1.0000
  C   C106      1.0  0.48660  0.01678  0.12593  1.0000
  C   C107      1.0  0.26040  0.74494  0.02259  1.0000
  H   H172      1.0  0.03262  0.71800  0.22870  1.0000
  H   H173      1.0  0.41778  0.86238  0.16453  1.0000
  H   H174      1.0  0.02721  0.85244  0.30865  1.0000
  H   H175      1.0  0.37235  0.83973  0.13325  1.0000
  C   C108      1.0  0.19214  0.72556  0.29169  1.0000
  H   H176      1.0  0.25412  0.75426  0.26687  1.0000
  H   H177      1.0  0.25770  0.76828  0.08574  1.0000
  C   C109      1.0  0.02169  0.00934  0.48318  1.0000
  H   H178      1.0  0.03738  0.92855  0.28836  1.0000
  H   H179      1.0  0.03590  0.90343  0.21505  1.0000
  C   C110      1.0  0.29859  0.80895  0.04645  1.0000
  C   C111      1.0  0.22783  0.73085  0.25703  1.0000
  Fe  Fe12      1.0  0.12597  0.71073  0.16369  1.0000
  H   H180      1.0  0.41370  0.94982  0.13643  1.0000
  C   C112      1.0  0.38984  0.86954  0.14218  1.0000
  H   H181      1.0  0.00848  0.95130  0.19949  1.0000
  C   C113      1.0  0.10662  0.71433  0.33805  1.0000
  H   H182      1.0  0.38067  0.89504  0.08154  1.0000
  H   H183      1.0  0.04633  0.90286  0.49632  1.0000
  H   H184      1.0  0.46604  0.92172  0.13296  1.0000
  H   H185      1.0  0.43375  0.91323  0.02939  1.0000
  H   H186      1.0  0.08923  0.83958  0.25619  1.0000
  H   H187      1.0  0.03688  0.69559  0.35762  1.0000
  H   H188      1.0  0.34833  0.95768  0.08141  1.0000
  C   C114      1.0  0.03158  0.74729  0.24604  1.0000
  H   H189      1.0  0.36958  0.94795  0.02922  1.0000
  H   H190      1.0  0.04645  0.77156  0.37477  1.0000
  H   H191      1.0  0.00025  0.85963  0.17211  1.0000
  C   C115      1.0  0.41338  0.98987  0.06784  1.0000
  H   H192      1.0  0.43320  0.86713  0.08805  1.0000
  S   S25       1.0  0.22779  0.69851  0.03147  1.0000
  H   H193      1.0  0.00538  0.86056  0.49190  1.0000
  H   H194      1.0  0.06527  0.96497  0.25407  1.0000
  C   C116      1.0  0.43566  0.93141  0.11428  1.0000
  H   H195      1.0  0.47922  0.85420  0.00545  1.0000
  H   H196      1.0  0.08895  0.75841  0.41364  1.0000
  H   H197      1.0  0.24555  0.70073  0.24989  1.0000
  C   C117      1.0  0.31599  0.81636  0.00615  1.0000
  H   H198      1.0  0.40534  0.01046  0.09510  1.0000
  C   C118      1.0  0.06675  0.01729  0.49733  1.0000
  C   C119      1.0  0.01106  0.92814  0.22478  1.0000
  H   H199      1.0  0.03005  0.74083  0.41905  1.0000
  H   H200      1.0  0.46526  0.00466  0.15193  1.0000
  H   H201      1.0  0.00817  0.97626  0.27371  1.0000
  H   H202      1.0  0.00971  0.79314  0.13181  1.0000
  C   C120      1.0  0.49310  0.98315  0.09101  1.0000
  Fe  Fe13      1.0  0.37639  0.88822  0.93630  1.0000
  S   S26       1.0  0.44834  0.87963  0.91057  1.0000
  H   H203      1.0  0.29457  0.91679  0.80381  1.0000
  Fe  Fe14      1.0  0.35436  0.95758  0.87341  1.0000
  S   S27       1.0  0.42505  0.95492  0.84446  1.0000
  H   H204      1.0  0.27019  0.73037  0.95736  1.0000
  Fe  Fe15      1.0  0.41672  0.88486  0.84710  1.0000
  H   H205      1.0  0.45214  0.97533  0.70684  1.0000
  Fe  Fe16      1.0  0.45170  0.95016  0.91025  1.0000
  S   S28       1.0  0.29333  0.99858  0.85515  1.0000
  S   S29       1.0  0.34405  0.88758  0.87279  1.0000
  S   S30       1.0  0.38180  0.95869  0.93903  1.0000
  H   H206      1.0  0.21590  0.94800  0.81259  1.0000
  C   C121      1.0  0.48738  0.79874  0.73722  1.0000
  H   H207      1.0  0.44097  0.93589  0.74533  1.0000
  H   H208      1.0  0.23766  0.96978  0.67819  1.0000
  H   H209      1.0  0.39387  0.92502  0.68183  1.0000
  H   H210      1.0  0.36488  0.78859  0.71973  1.0000
  H   H211      1.0  0.31835  0.79318  0.94292  1.0000
  H   H212      1.0  0.19051  0.89779  0.79895  1.0000
  H   H213      1.0  0.46117  0.80265  0.71376  1.0000
  H   H214      1.0  0.26820  0.86723  0.78993  1.0000
  H   H215      1.0  0.33227  0.96149  0.75204  1.0000
  C   C122      1.0  0.35886  0.79998  0.68760  1.0000
  H   H216      1.0  0.32379  0.92062  0.65128  1.0000
  H   H217      1.0  0.32289  0.85190  0.74689  1.0000
  C   C123      1.0  0.27777  0.75243  0.98229  1.0000
  C   C124      1.0  0.30508  0.78806  0.97400  1.0000
  C   C125      1.0  0.42591  0.96297  0.72884  1.0000
  H   H218      1.0  0.37052  0.97650  0.68734  1.0000
  H   H219      1.0  0.35179  0.85752  0.65485  1.0000
  H   H220      1.0  0.22489  0.90364  0.84544  1.0000
  N   N8        1.0  0.30477  0.90947  0.71584  1.0000
  C   C126      1.0  0.29350  0.92350  0.67230  1.0000
  C   C127      1.0  0.31445  0.86296  0.71509  1.0000
  C   C128      1.0  0.26208  0.91652  0.74238  1.0000
  C   C129      1.0  0.34476  0.93323  0.73500  1.0000
  C   C130      1.0  0.35539  0.84778  0.68767  1.0000
  C   C131      1.0  0.27472  0.96894  0.66907  1.0000
  C   C132      1.0  0.26480  0.90175  0.78811  1.0000
  H   H221      1.0  0.28299  0.84538  0.70513  1.0000
  H   H222      1.0  0.38834  0.85989  0.70052  1.0000
  H   H223      1.0  0.03729  0.86848  0.53974  1.0000
  C   C133      1.0  0.38302  0.94909  0.70491  1.0000
  H   H224      1.0  0.32688  0.78546  0.67502  1.0000
  H   H225      1.0  0.26702  0.90236  0.65816  1.0000
  C   C134      1.0  0.48127  0.81722  0.77692  1.0000
  C   C135      1.0  0.22123  0.91357  0.81256  1.0000
  S   S31       1.0  0.43161  0.84839  0.78683  1.0000
  H   H226      1.0  0.23153  0.90107  0.72773  1.0000
  H   H227      1.0  0.25386  0.95056  0.74461  1.0000
  H   H228      1.0  0.36137  0.91405  0.75954  1.0000
  H   H229      1.0  0.38840  0.78983  0.66773  1.0000
  C   C136      1.0  0.27838  0.98538  0.62469  1.0000
  H   H230      1.0  0.25925  0.96466  0.60266  1.0000
  H   H231      1.0  0.29350  0.99080  0.69008  1.0000
  H   H232      1.0  0.31508  0.98750  0.61480  1.0000
  C   C137      1.0  0.02002  0.88446  0.51357  1.0000
  H   H233      1.0  0.41703  0.98805  0.75180  1.0000
  S   S32       1.0  0.35262  0.86041  0.99809  1.0000
  H   H234      1.0  0.26320  0.01730  0.62352  1.0000
  Fe  Fe17      1.0  0.70075  0.18862  0.09819  1.0000
  S   S33       1.0  0.62937  0.21446  0.08982  1.0000
  S   S34       1.0  0.76512  0.20662  0.06088  1.0000
  Fe  Fe18      1.0  0.67381  0.13806  0.17584  1.0000
  S   S35       1.0  0.60019  0.16041  0.17207  1.0000
  S   S36       1.0  0.68914  0.10145  0.23535  1.0000
  Fe  Fe19      1.0  0.60579  0.14833  0.10288  1.0000
  S   S37       1.0  0.54080  0.12220  0.07174  1.0000
  Fe  Fe20      1.0  0.62843  0.22429  0.15954  1.0000
  S   S38       1.0  0.61131  0.28650  0.19259  1.0000
  S   S39       1.0  0.67753  0.12135  0.10718  1.0000
  S   S40       1.0  0.70180  0.20295  0.16700  1.0000
  H   H235      1.0  0.67081  0.30111  0.26625  1.0000
  C   C138      1.0  0.73656  0.06835  0.24801  1.0000
  H   H236      1.0  0.73771  0.29659  0.15172  1.0000
  H   H237      1.0  0.73003  0.28996  0.27863  1.0000
  H   H238      1.0  0.56523  0.32399  0.39732  1.0000
  C   C139      1.0  0.56390  0.33560  0.24946  1.0000
  H   H239      1.0  0.51512  0.18781  0.28849  1.0000
  C   C140      1.0  0.56272  0.29906  0.22441  1.0000
  C   C141      1.0  0.52616  0.34676  0.27526  1.0000
  H   H240      1.0  0.66704  0.32403  0.13165  1.0000
  H   H241      1.0  0.60703  0.29078  0.33917  1.0000
  C   C142      1.0  0.53634  0.08295  0.03224  1.0000
  H   H242      1.0  0.80910  0.32332  0.19173  1.0000
  C   C143      1.0  0.73786  0.04988  0.28763  1.0000
  C   C144      1.0  0.54486  0.17196  0.27312  1.0000
  H   H243      1.0  0.53536  0.27578  0.40838  1.0000
  C   C145      1.0  0.81288  0.26914  0.02130  1.0000
  H   H244      1.0  0.77249  0.28960  0.10715  1.0000
  C   C146      1.0  0.76791  0.31001  0.13525  1.0000
  C   C147      1.0  0.52325  0.27384  0.22526  1.0000
  H   H245      1.0  0.52151  0.24603  0.20567  1.0000
  H   H246      1.0  0.78362  0.25041  0.19861  1.0000
  C   C148      1.0  0.81312  0.25768  0.17771  1.0000
  H   H247      1.0  0.55406  0.11292  0.23853  1.0000
  C   C149      1.0  0.67897  0.32428  0.09905  1.0000
  C   C150      1.0  0.81052  0.30308  0.16340  1.0000
  C   C151      1.0  0.80915  0.03323  0.23133  1.0000
  H   H248      1.0  0.97011  0.17000  0.38095  1.0000
  H   H249      1.0  0.96744  0.11455  0.36984  1.0000
  H   H250      1.0  0.69079  0.29212  0.09090  1.0000
  H   H251      1.0  0.84554  0.25276  0.19526  1.0000
  H   H252      1.0  0.65286  0.11748  0.34190  1.0000
  H   H253      1.0  0.71211  0.33952  0.19855  1.0000
  H   H254      1.0  0.60803  0.06569  0.03179  1.0000
  H   H255      1.0  0.84292  0.30962  0.14607  1.0000
  H   H256      1.0  0.55072  0.21260  0.36380  1.0000
  H   H257      1.0  0.73228  0.11451  0.36738  1.0000
  N   N9        1.0  0.60888  0.19972  0.32312  1.0000
  C   C152      1.0  0.63887  0.18353  0.35769  1.0000
  C   C153      1.0  0.57325  0.22945  0.34123  1.0000
  C   C154      1.0  0.58338  0.16235  0.30492  1.0000
  C   C155      1.0  0.63635  0.22060  0.28893  1.0000
  C   C156      1.0  0.68082  0.24466  0.30236  1.0000
  C   C157      1.0  0.67224  0.14747  0.34482  1.0000
  H   H258      1.0  0.55015  0.24110  0.31636  1.0000
  H   H259      1.0  0.50858  0.11221  0.27722  1.0000
  C   C158      1.0  0.76923  0.25153  0.02914  1.0000
  C   C159      1.0  0.69661  0.27566  0.26937  1.0000
  H   H260      1.0  0.69463  0.13416  0.40807  1.0000
  H   H261      1.0  0.77220  0.07383  0.18939  1.0000
  H   H262      1.0  0.61691  0.17160  0.38360  1.0000
  H   H263      1.0  0.65959  0.20889  0.37225  1.0000
  H   H264      1.0  0.83668  0.02697  0.20928  1.0000
  H   H265      1.0  0.60998  0.31045  0.07688  1.0000
  C   C160      1.0  0.77259  0.05992  0.21993  1.0000
  H   H266      1.0  0.60797  0.14088  0.28848  1.0000
  H   H267      1.0  0.64769  0.19728  0.26477  1.0000
  H   H268      1.0  0.61382  0.24249  0.27173  1.0000
  H   H269      1.0  0.70938  0.22214  0.30717  1.0000
  H   H270      1.0  0.67638  0.26264  0.33175  1.0000
  C   C161      1.0  0.73024  0.27013  0.01186  1.0000
  H   H271      1.0  0.68899  0.15341  0.31432  1.0000
  H   H272      1.0  0.55832  0.19234  0.24818  1.0000
  C   C162      1.0  0.71002  0.14123  0.37717  1.0000
  H   H273      1.0  0.61680  0.26311  0.38736  1.0000
  H   H274      1.0  0.81277  0.23572  0.15049  1.0000
  H   H275      1.0  0.52519  0.30259  0.35999  1.0000
  N   N10       1.0  0.75917  0.35455  0.12198  1.0000
  H   H276      1.0  0.73199  0.16969  0.37982  1.0000
  H   H277      1.0  0.70126  0.25961  0.23879  1.0000
  H   H278      1.0  0.56724  0.14363  0.33023  1.0000
  C   C163      1.0  0.59132  0.26990  0.36276  1.0000
  H   H279      1.0  0.69649  0.25663  0.01725  1.0000
  H   H280      1.0  0.64746  0.33308  0.03819  1.0000
  C   C164      1.0  0.55179  0.29440  0.38333  1.0000
  C   C165      1.0  0.63751  0.33410  0.07166  1.0000
  C   C166      1.0  0.57437  0.05947  0.01863  1.0000
  C   C167      1.0  0.52595  0.13160  0.25331  1.0000
  H   H281      1.0  0.55618  0.04213  0.11842  1.0000
  H   H282      1.0  0.52758  0.05749  0.16610  1.0000
  H   H283      1.0  0.59421  0.35542  0.24896  1.0000
  H   H284      1.0  0.81224  0.34537  0.07513  1.0000
  C   C168      1.0  0.53301  0.03108  0.14370  1.0000
  H   H285      1.0  0.50043  0.13949  0.22893  1.0000
  H   H286      1.0  0.84325  0.25502  0.03461  1.0000
  H   H287      1.0  0.71016  0.05592  0.30957  1.0000
  C   C169      1.0  0.71877  0.35608  0.09228  1.0000
  H   H288      1.0  0.73062  0.34983  0.05979  1.0000
  H   H289      1.0  0.99897  0.20069  0.48332  1.0000
  C   C170      1.0  0.99119  0.14139  0.37549  1.0000
  H   H290      1.0  0.99776  0.12773  0.44029  1.0000
  H   H291      1.0  0.83083  0.31501  0.88853  1.0000
  H   H292      1.0  0.79302  0.25554  0.92222  1.0000
  C   C171      1.0  0.77834  0.32464  0.98071  1.0000
  H   H293      1.0  0.74414  0.31180  0.88806  1.0000
  H   H294      1.0  0.78426  0.22955  0.87348  1.0000
  C   C172      1.0  0.92051  0.16225  0.80971  1.0000
  C   C173      1.0  0.51251  0.04340  0.79880  1.0000
  H   H295      1.0  0.77167  0.17600  0.91457  1.0000
  H   H296      1.0  0.95471  0.25168  0.75184  1.0000
  C   C174      1.0  0.92907  0.23600  0.94123  1.0000
  H   H297      1.0  0.95439  0.29438  0.96869  1.0000
  H   H298      1.0  0.87397  0.27903  0.93432  1.0000
  C   C175      1.0  0.84469  0.19079  0.92794  1.0000
  H   H299      1.0  0.98215  0.27955  0.91987  1.0000
  C   C176      1.0  0.80528  0.15966  0.91696  1.0000
  N   N11       1.0  0.85408  0.22503  0.89694  1.0000
  H   H300      1.0  0.89219  0.13984  0.80250  1.0000
  H   H301      1.0  0.83181  0.10842  0.95439  1.0000
  C   C177      1.0  0.99268  0.05370  0.53982  1.0000
  H   H302      1.0  0.83592  0.20520  0.95887  1.0000
  H   H303      1.0  0.90655  0.27259  0.88801  1.0000
  H   H304      1.0  0.96380  0.06797  0.55606  1.0000
  H   H305      1.0  0.77110  0.10511  0.94270  1.0000
  H   H306      1.0  0.94491  0.20786  0.92681  1.0000
  H   H307      1.0  0.95373  0.14497  0.80881  1.0000
  H   H308      1.0  0.70445  0.32074  0.97461  1.0000
  C   C178      1.0  0.89028  0.25489  0.91390  1.0000
  C   C179      1.0  0.91351  0.18224  0.85285  1.0000
  H   H309      1.0  0.87585  0.17160  0.93334  1.0000
  C   C180      1.0  0.86827  0.20776  0.85477  1.0000
  H   H310      1.0  0.81264  0.14289  0.88716  1.0000
  H   H311      1.0  0.94339  0.20342  0.85831  1.0000
  H   H312      1.0  0.91462  0.22680  0.97195  1.0000
  S   S41       1.0  0.93545  0.31485  0.81396  1.0000
  H   H313      1.0  0.87355  0.23367  0.83242  1.0000
  H   H314      1.0  0.85095  0.32001  0.99324  1.0000
  H   H315      1.0  0.91362  0.15672  0.87590  1.0000
  H   H316      1.0  0.99577  0.25254  0.96723  1.0000
  H   H317      1.0  0.84008  0.18846  0.84100  1.0000
  C   C181      1.0  0.56873  0.02767  0.98808  1.0000
  C   C182      1.0  0.80952  0.24889  0.89135  1.0000
  C   C183      1.0  0.81299  0.29146  0.86863  1.0000
  H   H318      1.0  0.83212  0.28893  0.83876  1.0000
  C   C184      1.0  0.98460  0.02773  0.50461  1.0000
  C   C185      1.0  0.81740  0.30575  0.99755  1.0000
  H   H319      1.0  0.92170  0.18673  0.78542  1.0000
  C   C186      1.0  0.98802  0.29937  0.78926  1.0000
  C   C187      1.0  0.79965  0.12690  0.95096  1.0000
  C   C188      1.0  0.98724  0.26631  0.75974  1.0000
  C   C189      1.0  0.76493  0.30846  0.85903  1.0000
  C   C190      1.0  0.73486  0.30637  0.98759  1.0000
  C   C191      1.0  0.96761  0.26768  0.94961  1.0000
  H   H320      1.0  0.50756  0.06848  0.82276  1.0000
  H   H321      1.0  0.97321  0.15311  0.54069  1.0000
  H   H322      1.0  0.74666  0.28728  0.83686  1.0000
  H   H323      1.0  0.79101  0.14230  0.98133  1.0000
  H   H324      1.0  0.96632  0.20806  0.55303  1.0000
  H   H325      1.0  0.53262  0.05652  0.77246  1.0000
  C   C192      1.0  0.99199  0.18291  0.54692  1.0000
  H   H326      1.0  0.76796  0.33979  0.84467  1.0000
  H   H327      1.0  0.85930  0.03123  0.53367  1.0000
  H   H328      1.0  0.69814  0.02594  0.74266  1.0000
  H   H329      1.0  0.83887  0.45232  0.03647  1.0000
  H   H330      1.0  0.66614  0.56452  0.46750  1.0000
  C   C193      1.0  0.69483  0.66428  0.42565  1.0000
  C   C194      1.0  0.79785  0.41188  0.07616  1.0000
  H   H331      1.0  0.67752  0.37824  0.17256  1.0000
  H   H332      1.0  0.56991  0.56135  0.41096  1.0000
  C   C195      1.0  0.97417  0.55808  0.03161  1.0000
  C   C196      1.0  0.62451  0.60651  0.39790  1.0000
  H   H333      1.0  0.87217  0.42389  0.07398  1.0000
  C   C197      1.0  0.75142  0.38360  0.15883  1.0000
  H   H334      1.0  0.52755  0.37489  0.29442  1.0000
  C   C198      1.0  0.69408  0.58516  0.47943  1.0000
  H   H335      1.0  0.59190  0.66032  0.42450  1.0000
  H   H336      1.0  0.59474  0.61780  0.45934  1.0000
  H   H337      1.0  0.65187  0.58323  0.40359  1.0000
  H   H338      1.0  0.74435  0.41589  0.14804  1.0000
  H   H339      1.0  0.84937  0.39735  0.02822  1.0000
  H   H340      1.0  0.70372  0.38817  0.09195  1.0000
  H   H341      1.0  0.55221  0.60455  0.37883  1.0000
  C   C199      1.0  0.71133  0.40001  0.22768  1.0000
  S   S42       1.0  0.52860  0.47565  0.45008  1.0000
  H   H342      1.0  0.78670  0.65886  0.39718  1.0000
  H   H343      1.0  0.58759  0.56312  0.35722  1.0000
  H   H344      1.0  0.72166  0.58794  0.45562  1.0000
  C   C200      1.0  0.96901  0.52026  0.00887  1.0000
  C   C201      1.0  0.53187  0.52032  0.48338  1.0000
  C   C202      1.0  0.58080  0.58256  0.38556  1.0000
  H   H345      1.0  0.79163  0.43789  0.09874  1.0000
  H   H346      1.0  0.70898  0.43366  0.21956  1.0000
  H   H347      1.0  0.76953  0.41160  0.05301  1.0000
  H   H348      1.0  0.63532  0.62555  0.37078  1.0000
  H   H349      1.0  0.70646  0.63518  0.40964  1.0000
  H   H350      1.0  0.62335  0.36550  0.07971  1.0000
  C   C203      1.0  0.84236  0.42181  0.05240  1.0000
  H   H351      1.0  0.94529  0.57932  0.03467  1.0000
  C   C204      1.0  0.67404  0.62841  0.49211  1.0000
  C   C205      1.0  0.61559  0.63568  0.43623  1.0000
  N   N12       1.0  0.65725  0.65548  0.45717  1.0000
  H   H352      1.0  0.75431  0.66840  0.46859  1.0000
  C   C206      1.0  0.80176  0.36931  0.09891  1.0000
  H   H353      1.0  0.68123  0.39198  0.24765  1.0000
  H   H354      1.0  0.78341  0.38662  0.17764  1.0000
  H   H355      1.0  0.74332  0.39465  0.24577  1.0000
  C   C207      1.0  0.73891  0.68624  0.44272  1.0000
  H   H356      1.0  0.51577  0.45423  0.26141  1.0000
  H   H357      1.0  0.68086  0.68433  0.40048  1.0000
  C   C208      1.0  0.71085  0.37249  0.18834  1.0000
  H   H358      1.0  0.83149  0.37268  0.12051  1.0000
  H   H359      1.0  0.51118  0.39771  0.49551  1.0000
  H   H360      1.0  0.57068  0.67925  0.49289  1.0000
  C   C209      1.0  0.77572  0.69027  0.40872  1.0000
  H   H361      1.0  0.50081  0.48790  0.21889  1.0000
  Fe  Fe21      1.0  0.94394  0.43207  0.92832  1.0000
  S   S43       1.0  0.87367  0.46138  0.92945  1.0000
  H   H362      1.0  0.76286  0.50537  0.86384  1.0000
  H   H363      1.0  0.56263  0.62312  0.91706  1.0000
  S   S44       1.0  0.84845  0.39920  0.85035  1.0000
  Fe  Fe22      1.0  0.88076  0.46259  0.85941  1.0000
  S   S45       1.0  0.86555  0.52422  0.82673  1.0000
  Fe  Fe23      1.0  0.84694  0.39554  0.92042  1.0000
  S   S46       1.0  0.95341  0.43694  0.85875  1.0000
  H   H364      1.0  0.55306  0.53007  0.76303  1.0000
  Fe  Fe24      1.0  0.68059  0.62159  0.67098  1.0000
  S   S47       1.0  0.60679  0.63992  0.68368  1.0000
  S   S48       1.0  0.70463  0.55903  0.69676  1.0000
  H   H365      1.0  0.58038  0.58600  0.95558  1.0000
  H   H366      1.0  0.93637  0.51253  0.99452  1.0000
  Fe  Fe25      1.0  0.60152  0.65078  0.61475  1.0000
  S   S49       1.0  0.53872  0.63143  0.57630  1.0000
  S   S50       1.0  0.67298  0.62794  0.60178  1.0000
  H   H367      1.0  0.71249  0.55177  0.81307  1.0000
  C   C210      1.0  0.82216  0.53254  0.78888  1.0000
  C   C211      1.0  0.79183  0.50073  0.77627  1.0000
  C   C212      1.0  0.75673  0.50918  0.74731  1.0000
  C   C213      1.0  0.75147  0.54946  0.73073  1.0000
  C   C214      1.0  0.78239  0.58104  0.74267  1.0000
  C   C215      1.0  0.81735  0.57265  0.77179  1.0000
  H   H368      1.0  0.79525  0.46968  0.78900  1.0000
  H   H369      1.0  0.73320  0.48444  0.73803  1.0000
  H   H370      1.0  0.77907  0.61202  0.72975  1.0000
  H   H371      1.0  0.84081  0.59739  0.78116  1.0000
  H   H372      1.0  0.73056  0.62464  0.79617  1.0000
  H   H373      1.0  0.66738  0.64345  0.89003  1.0000
  C   C216      1.0  0.64072  0.59778  0.79685  1.0000
  H   H374      1.0  0.60421  0.56440  0.55590  1.0000
  H   H375      1.0  0.52295  0.55117  0.66316  1.0000
  H   H376      1.0  0.94136  0.56564  0.87208  1.0000
  C   C217      1.0  0.57891  0.55552  0.75957  1.0000
  C   C218      1.0  0.57426  0.56068  0.53623  1.0000
  C   C219      1.0  0.75395  0.52713  0.88996  1.0000
  C   C220      1.0  0.60424  0.56257  0.80080  1.0000
  C   C221      1.0  0.73898  0.56965  0.87338  1.0000
  H   H377      1.0  0.61075  0.63510  0.95110  1.0000
  C   C222      1.0  0.70743  0.63765  0.82084  1.0000
  H   H378      1.0  0.66177  0.59094  0.76848  1.0000
  H   H379      1.0  0.61084  0.68034  0.53536  1.0000
  H   H380      1.0  0.76924  0.58356  0.85717  1.0000
  C   C223      1.0  0.69807  0.56523  0.84254  1.0000
  H   H381      1.0  0.53146  0.37044  0.54045  1.0000
  H   H382      1.0  0.73026  0.64604  0.84749  1.0000
  H   H383      1.0  0.78506  0.53112  0.90972  1.0000
  S   S51       1.0  0.78187  0.37219  0.95306  1.0000
  H   H384      1.0  0.72607  0.51298  0.90905  1.0000
  H   H385      1.0  0.61635  0.64177  0.86027  1.0000
  H   H386      1.0  0.72998  0.59031  0.90028  1.0000
  C   C224      1.0  0.90269  0.58168  0.92683  1.0000
  N   N13       1.0  0.67224  0.60516  0.83362  1.0000
  H   H387      1.0  0.61998  0.53224  0.80915  1.0000
  C   C225      1.0  0.53780  0.58916  0.53984  1.0000
  Fe  Fe26      1.0  0.92060  0.37286  0.85489  1.0000
  H   H388      1.0  0.67469  0.54053  0.85431  1.0000
  H   H389      1.0  0.64522  0.62171  0.51401  1.0000
  H   H390      1.0  0.62073  0.62655  0.78981  1.0000
  H   H391      1.0  0.67276  0.67422  0.77276  1.0000
  H   H392      1.0  0.95105  0.53203  0.91558  1.0000
  H   H393      1.0  0.57782  0.57162  0.82433  1.0000
  H   H394      1.0  0.65444  0.57497  0.91975  1.0000
  S   S52       1.0  0.91667  0.36595  0.92456  1.0000
  H   H395      1.0  0.56060  0.58446  0.75029  1.0000
  C   C226      1.0  0.94678  0.56512  0.90618  1.0000
  H   H396      1.0  0.68831  0.55669  0.54070  1.0000
  C   C227      1.0  0.68792  0.67936  0.80413  1.0000
  H   H397      1.0  0.89558  0.61415  0.91669  1.0000
  H   H398      1.0  0.53165  0.49531  0.65903  1.0000
  H   H399      1.0  0.87308  0.56155  0.91751  1.0000
  C   C228      1.0  0.62599  0.58927  0.90183  1.0000
  H   H400      1.0  0.60723  0.56353  0.88591  1.0000
  C   C229      1.0  0.59296  0.60979  0.93325  1.0000
  H   H401      1.0  0.54986  0.52922  0.61725  1.0000
  H   H402      1.0  0.90568  0.58122  0.96130  1.0000
  C   C230      1.0  0.57136  0.52653  0.50803  1.0000
  C   C231      1.0  0.64552  0.62191  0.87086  1.0000
  H   H403      1.0  0.74290  0.58266  0.53102  1.0000
  C   C232      1.0  0.52290  0.52385  0.64132  1.0000
  H   H404      1.0  0.70002  0.64553  0.51131  1.0000
  H   H405      1.0  0.60359  0.54622  0.73446  1.0000
  C   C233      1.0  0.71514  0.56316  0.51681  1.0000
  H   H406      1.0  0.73030  0.53277  0.50659  1.0000
  C   C234      1.0  0.51260  0.39865  0.53008  1.0000
  H   H407      1.0  0.97266  0.62868  0.84628  1.0000
  H   H408      1.0  0.97900  0.59297  0.77743  1.0000
  H   H409      1.0  0.99277  0.58756  0.95352  1.0000
  S   S53       1.0  0.70825  0.68699  0.67930  1.0000
  H   H410      1.0  0.98090  0.62546  0.91586  1.0000
  H   H411      1.0  0.98736  0.64874  0.77385  1.0000
  H   H412      1.0  0.53218  0.42689  0.54012  1.0000
  C   C235      1.0  0.98932  0.59169  0.91941  1.0000
  H   H413      1.0  0.59944  0.50429  0.50596  1.0000
  Fe  Fe27      1.0  0.87581  0.94624  0.34323  1.0000
  S   S54       1.0  0.95078  0.92726  0.34462  1.0000
  H   H414      1.0  0.90923  0.81263  0.24073  1.0000
  Fe  Fe28      1.0  0.85656  0.90031  0.42538  1.0000
  S   S55       1.0  0.92981  0.87853  0.43159  1.0000
  C   C236      1.0  0.97566  0.78231  0.14368  1.0000
  Fe  Fe29      1.0  0.94931  0.94418  0.41299  1.0000
  H   H415      1.0  0.63435  0.71953  0.45049  1.0000
  Fe  Fe30      1.0  0.92617  0.86362  0.36288  1.0000
  S   S56       1.0  0.80148  0.88833  0.47526  1.0000
  S   S57       1.0  0.87616  0.96753  0.41068  1.0000
  S   S58       1.0  0.85099  0.88101  0.35783  1.0000
  H   H416      1.0  0.87238  0.90208  0.22713  1.0000
  C   C237      1.0  0.96700  0.84946  0.18623  1.0000
  H   H417      1.0  0.94106  0.93356  0.24957  1.0000
  C   C238      1.0  0.91113  0.95899  0.17270  1.0000
  H   H418      1.0  0.54112  0.85442  0.01125  1.0000
  H   H419      1.0  0.91198  0.90052  0.13864  1.0000
  C   C239      1.0  0.51036  0.87456  0.00697  1.0000
  H   H420      1.0  0.90382  0.85477  0.27828  1.0000
  H   H421      1.0  0.81756  0.73670  0.50135  1.0000
  C   C240      1.0  0.83988  0.82786  0.25818  1.0000
  H   H422      1.0  0.73111  0.71847  0.45400  1.0000
  S   S59       1.0  0.85725  0.98068  0.28307  1.0000
  H   H423      1.0  0.50694  0.88862  0.07271  1.0000
  N   N14       1.0  0.93881  0.88705  0.19971  1.0000
  C   C241      1.0  0.89126  0.87440  0.21428  1.0000
  C   C242      1.0  0.88951  0.84127  0.24909  1.0000
  C   C243      1.0  0.99642  0.75473  0.27577  1.0000
  C   C244      1.0  0.78630  0.83952  0.49789  1.0000
  H   H424      1.0  0.93739  0.83602  0.12436  1.0000
  H   H425      1.0  0.67111  0.71170  0.49409  1.0000
  H   H426      1.0  0.86999  0.86304  0.18763  1.0000
  H   H427      1.0  0.97060  0.73088  0.28127  1.0000
  H   H428      1.0  0.81850  0.85543  0.26719  1.0000
  H   H429      1.0  0.91117  0.80661  0.16579  1.0000
  H   H430      1.0  0.77481  0.00923  0.32956  1.0000
  C   C245      1.0  0.93364  0.91574  0.16306  1.0000
  C   C246      1.0  0.90822  0.98539  0.13344  1.0000
  S   S60       1.0  0.94972  0.80049  0.33570  1.0000
  H   H431      1.0  0.82456  0.81209  0.23045  1.0000
  H   H432      1.0  0.88684  0.96931  0.10942  1.0000
  H   H433      1.0  0.57226  0.75684  0.48990  1.0000
  H   H434      1.0  0.83897  0.80326  0.46678  1.0000
  H   H435      1.0  0.83961  0.80552  0.28445  1.0000
  H   H436      1.0  0.87548  0.95519  0.18483  1.0000
  H   H437      1.0  0.93121  0.97724  0.19605  1.0000
  H   H438      1.0  0.53800  0.92606  0.04191  1.0000
  H   H439      1.0  0.52048  0.96155  0.10189  1.0000
  C   C247      1.0  0.94418  0.81950  0.15388  1.0000
  C   C248      1.0  0.50660  0.90602  0.04304  1.0000
  C   C249      1.0  0.64257  0.69716  0.47580  1.0000
  C   C250      1.0  0.81041  0.01466  0.27091  1.0000
  C   C251      1.0  0.99422  0.79288  0.29820  1.0000
  H   H440      1.0  0.94324  0.99140  0.12059  1.0000
  C   C252      1.0  0.96329  0.90874  0.23533  1.0000
  H   H441      1.0  0.98117  0.76316  0.17184  1.0000
  H   H442      1.0  0.50819  0.99940  0.06359  1.0000
  H   H443      1.0  0.96761  0.92120  0.14768  1.0000
  C   C253      1.0  0.81059  0.80267  0.48881  1.0000
  H   H444      1.0  0.96936  0.88631  0.26088  1.0000
  H   H445      1.0  0.95949  0.76203  0.11941  1.0000
  H   H446      1.0  0.97718  0.83066  0.21362  1.0000
  H   H447      1.0  0.80640  0.70674  0.42167  1.0000
  H   H448      1.0  0.83699  0.99775  0.49235  1.0000
  H   H449      1.0  0.55008  0.00507  0.16027  1.0000
  H   H450      1.0  0.76244  0.70880  0.38230  1.0000
  H   H451      1.0  0.94983  0.02244  0.49364  1.0000
  H   H452      1.0  0.96861  0.93127  0.50315  1.0000
  C   C254      1.0  0.77452  0.02329  0.29908  1.0000
  H   H453      1.0  0.89191  0.01601  0.14125  1.0000
  H   H454      1.0  0.92623  0.86936  0.52710  1.0000
  S   S61       1.0  0.74829  0.71478  0.56114  1.0000
  S   S62       1.0  0.61600  0.74705  0.74500  1.0000
  C   C255      1.0  0.56249  0.77158  0.75692  1.0000
  C   C256      1.0  0.98237  0.91392  0.53001  1.0000
  H   H455      1.0  0.56766  0.93569  0.70875  1.0000
  C   C257      1.0  0.83593  0.82281  0.62218  1.0000
  S   S63       1.0  0.62256  0.71895  0.61984  1.0000
  C   C258      1.0  0.72607  0.71211  0.79934  1.0000
  Fe  Fe31      1.0  0.63340  0.70601  0.68803  1.0000
  C   C259      1.0  0.63958  0.99077  0.76616  1.0000
  C   C260      1.0  0.92954  0.93409  0.61267  1.0000
  H   H456      1.0  0.54062  0.88767  0.76900  1.0000
  H   H457      1.0  0.53231  0.76252  0.69636  1.0000
  H   H458      1.0  0.57026  0.94809  0.86360  1.0000
  H   H459      1.0  0.79861  0.01860  0.53161  1.0000
  C   C261      1.0  0.55587  0.78921  0.79692  1.0000
  H   H460      1.0  0.71057  0.97183  0.75323  1.0000
  H   H461      1.0  0.55296  0.86710  0.90623  1.0000
  H   H462      1.0  0.58232  0.78542  0.82021  1.0000
  C   C262      1.0  0.83390  0.00623  0.52593  1.0000
  C   C263      1.0  0.54408  0.96973  0.78640  1.0000
  C   C264      1.0  0.51547  0.81182  0.80697  1.0000
  H   H463      1.0  0.80739  0.84175  0.63589  1.0000
  C   C265      1.0  0.60088  0.88763  0.85804  1.0000
  H   H464      1.0  0.89056  0.99060  0.62849  1.0000
  H   H465      1.0  0.82411  0.80821  0.59250  1.0000
  N   N15       1.0  0.90690  0.91539  0.57441  1.0000
  H   H466      1.0  0.70886  0.79960  0.56840  1.0000
  C   C266      1.0  0.76158  0.76341  0.53730  1.0000
  H   H467      1.0  0.90097  0.98921  0.70408  1.0000
  C   C267      1.0  0.84178  0.96770  0.55271  1.0000
  H   H468      1.0  0.53250  0.90980  0.84160  1.0000
  H   H469      1.0  0.59710  0.85776  0.84055  1.0000
  H   H470      1.0  0.62816  0.98297  0.73419  1.0000
  H   H471      1.0  0.83834  0.90401  0.60002  1.0000
  H   H472      1.0  0.59660  0.84310  0.70456  1.0000
  H   H473      1.0  0.53945  0.86365  0.69489  1.0000
  H   H474      1.0  0.51451  0.89148  0.97721  1.0000
  H   H475      1.0  0.58687  0.87700  0.66110  1.0000
  N   N16       1.0  0.58016  0.93773  0.79742  1.0000
  H   H476      1.0  0.63688  0.96909  0.82898  1.0000
  C   C268      1.0  0.57619  0.90093  0.76750  1.0000
  C   C269      1.0  0.56865  0.92193  0.84049  1.0000
  H   H477      1.0  0.59342  0.90697  0.92333  1.0000
  C   C270      1.0  0.62856  0.95551  0.79769  1.0000
  H   H478      1.0  0.99919  0.93682  0.55126  1.0000
  C   C271      1.0  0.73714  0.80022  0.54630  1.0000
  C   C272      1.0  0.58774  0.90921  0.72119  1.0000
  H   H479      1.0  0.81508  0.94420  0.54410  1.0000
  C   C273      1.0  0.53809  0.00665  0.81802  1.0000
  C   C274      1.0  0.89850  0.95994  0.64265  1.0000
  H   H480      1.0  0.71131  0.74117  0.78624  1.0000
  C   C275      1.0  0.89074  0.94915  0.54521  1.0000
  H   H481      1.0  0.95974  0.86719  0.57332  1.0000
  H   H482      1.0  0.59975  0.87520  0.77638  1.0000
  H   H483      1.0  0.89075  0.86187  0.64515  1.0000
  C   C276      1.0  0.58909  0.87841  0.90350  1.0000
  C   C277      1.0  0.58505  0.74040  0.51784  1.0000
  H   H484      1.0  0.51730  0.99618  0.84506  1.0000
  H   H485      1.0  0.65403  0.92978  0.79269  1.0000
  C   C278      1.0  0.92338  0.96953  0.68362  1.0000
  H   H486      1.0  0.90531  0.82900  0.60075  1.0000
  C   C279      1.0  0.74962  0.83806  0.52681  1.0000
  C   C280      1.0  0.52769  0.77590  0.72726  1.0000
  H   H487      1.0  0.88969  0.93671  0.51252  1.0000
  C   C281      1.0  0.57695  0.87083  0.69393  1.0000
  H   H488      1.0  0.63758  0.89745  0.85665  1.0000
  H   H489      1.0  0.62521  0.91558  0.71765  1.0000
  S   S64       1.0  0.51963  0.97825  0.93307  1.0000
  H   H490      1.0  0.95786  0.95574  0.60368  1.0000
  H   H491      1.0  0.55073  0.98307  0.75526  1.0000
  Fe  Fe32      1.0  0.69512  0.69526  0.61044  1.0000
  C   C282      1.0  0.94286  0.88927  0.55168  1.0000
  H   H492      1.0  0.86604  0.94335  0.65037  1.0000
  H   H493      1.0  0.73063  0.86639  0.53412  1.0000
  C   C283      1.0  0.86725  0.88665  0.58514  1.0000
  H   H494      1.0  0.84445  0.79730  0.64403  1.0000
  H   H495      1.0  0.94675  0.90916  0.63085  1.0000
  H   H496      1.0  0.85245  0.87303  0.55591  1.0000
  H   H497      1.0  0.55652  0.73871  0.54103  1.0000
  H   H498      1.0  0.83538  0.97683  0.58548  1.0000
  C   C284      1.0  0.87860  0.84989  0.61448  1.0000
  H   H499      1.0  0.93137  0.94010  0.70018  1.0000
  H   H500      1.0  0.91596  0.97549  0.54505  1.0000
  H   H501      1.0  0.61235  0.85369  0.91527  1.0000
  H   H502      1.0  0.70420  0.00932  0.79582  1.0000
  H   H503      1.0  0.61393  0.75866  0.53181  1.0000
  H   H504      1.0  0.51098  0.82540  0.83779  1.0000
  H   H505      1.0  0.62206  0.02031  0.77560  1.0000
  H   H506      1.0  0.95596  0.98698  0.67769  1.0000
  C   C285      1.0  0.69134  0.99990  0.76449  1.0000
  H   H507      1.0  0.74169  0.71991  0.83002  1.0000
  H   H508      1.0  0.50971  0.95428  0.78365  1.0000
  H   H509      1.0  0.57165  0.01806  0.83018  1.0000
  H   H510      1.0  0.59832  0.00960  0.97786  1.0000
  H   H511      1.0  0.75328  0.70038  0.77764  1.0000
  C   C286      1.0  0.52510  0.01896  0.97095  1.0000
  H   H512      1.0  0.66096  0.69247  0.82522  1.0000
  C   C287      1.0  0.60081  0.69607  0.50622  1.0000
  C   C288      1.0  0.79831  0.76493  0.50845  1.0000
