data_image0
_chemical_formula_structural       CSH2SFeSHC2FeH5C4H6C2HCSHC2HCSH2CH3SH7CHCH5C2H2NHSHNCH2CH3CH4FeCH2CH2C2HSCHC3HC4SH3SH3FeH6CHC2HCH4NH2CFeCH5CFeC2H3SH2FeS2FeS2FeSFeS3FeSCFeS2FeSFeS3FeS2FeS2FeSFeS5C6H4C4H3C6H4C6H4C6H4C6H4C5H5NC2H2CH2C4H2C3HCH5CH6CHC2HCH2S2H2CH6NCHC2H7NC9HC2H19SCSH3C2H3CH2CH3CH2S2H4NC5HC2H2CH11CH2FeH7SH5CH2C2H3C2H2CHC5H12C2SHCH3CNC9H3SH14C3HCFeH4CH2CHC2H2FeH2C3HNCHCNCHC2H4CH5CHC2FeHNH2CH5CH5C3H5CH3CSH2CHCHCH2CH3C2HCH2FeHCH4CH2FeH4SC2HC2H3CH5C3H4FeH2CH2C3HCH8CH2CH6CH4CH3CHSH7SCHC2H2FeH3CHCSHC2HC3H9C3HCNCHC4NC4FeH3SH3CHCH6C2HNH5SCSH2CSHFeHCH4CH2S2H2SCHC2H5C2HCH3FeHCHCH2C2H2C2HCH4CH3CH4CH2CFeS2FeHSFeS2FeS2FeSFeS3Fe2S2FeSFeCS2HCHC2H2CHC2HC4HCH4CHC3FeHC6H2C6H5CHCH2SH2CHC2NH2CH6C4HCHCHCNHCHCHC3H3CH2CH5NHC6HC4HCH15C2H3CH5NC6H13CH4CHCH2CH3CSH11CH6C3SH2C2H2CHSHCH9CH2SCH2CH4CHCH4CH3C2SH2CHC2NH2CH2C2H5FeH5SHNCHCSCHCHSHCH3C2HC3HCH3CH2CH4CHC3H6SHCHC2SCH6CH3FeC4HCH11CH3C2H3C2H3CH2CSH3C4H5C3H6NH7CHC2HCH2C2H3CH2CH3CHCH3C2H2CH2C3H2C2H12CNC2H4C2HFeS4CSHS2FeHSCH2SHSC4H3CHC2H2NHSHC5H3CH2C6H7CHCHCH2NCHSH3C2SCH4C2H2CHCH4CH2CNSCHCNCHC5SFeHCH3CH5FeH5FeH2C2SH3NC12H28CFeCHCFeHCH7CSH2C2HCSHCH3CHCHFeH4SH5CHCH2CH2CH2SH2CHCFeC4H2C2HSFeHCSHC2HSH4FeH2CH4FeCSH2C3H2C2HCNC2H8Fe2CSCHCHCHFeSC2FeSH4CH2CH3SHSHCHFeH2FeS2HCHSHC2SH3FeC2H2CHC8FeH3CH2FeH5CHCH2CHSCH2CH4SCSH5CFeCH2CH2C6H5FeNC6HC4FeH13CH9CSHNCNC4H2C2H2C2HCHCH2FeH10CHSHC4H5SH2SH2SCHNC5HCH7NH7SH4CHC3HFeH2C2H7CSH4C2H3CHFeH2C2HCSC2H2SC2H2FeHCSHNCHCHCHCH5C2SH2SH3CHC2HC2H4CHSHC2HC5H3CHCH4CH4SCH2C2HFeSH2CHC2HC5H2CH4CH4CSH3SC2HCHC2SH3CNHCH7CH4CHCH3SHFeH3C2HC2HCH2CH3CSHCH2C2FeH2SHFeCSHC2SCHSHC2H4SC2HCH3CHCH2CH2CH3SC2HSCSFeHFeHFeH5SH2SHSHC8H2SCHCH2FeH7CH2C2H2CH3C3NCH3FeSCH11CHNC2H5FeH2CH2S2H3FeHSH3CHCS2HFeSH5CSHFeCHCHC5H5CH3C6H7C2H2CSHC3H2CH3NC8HCSCH16C2H6CH3C2HFe2CH5CHCHCSH2CH4SCHS2H3C2FeH4CHCFeHC2SC3H2FeNC12H20C2NC2H5FeH4CHC3HCH2NCH3C2SFeH2CHC2H2CNC9HC2H21SCH5CH2NFeC3HC2HCH3CH6CSH2CH2SHCNC8HC2H10CH7C2NH5C4H5CH2CHCHSC2HC3H2SCHSHFeH2FeH2SHS2C2H9CSCH4S2CH3FeCH3CHCHC2HFeC4HSC2H4CH3FeHCH3C3H2SH3CHCFeSHFeCH8SHCH3CHSHCH3CSCHC6H4NH2CHCH3FeH7CSCHCHSCH2NH2SCH5CHCH2NHCH4CHNHC3HNC4HC4HC2H9CH15CH4CSHC2H2NH4CSC2H4CHCH2CHCH5C4SHFeHCSCHCH3S2CS2H3CFeH2CHCFeSH6CH2CH2CHCH4CHC2HC2HNCH2CFeS2FeSHFeCFeS3CFeS2FeSHFeSFeS3FeSCFeSHFeSFeS5FeCFeSHC2SHC2H3CHSC3H3C3HNH5C4H3C6H5C2SCH2C8H5C2H6CHC2H2NHC4H6NHC3SC2HC2HCHCH4CH3CH5CH4C2H4C2HCH5C2H10CH2SCH2C4H4SH3C2H4SH3C2SHCSH2C3H4CH4CHCH6CHCNC12H29C3HCH7CH2CHCHC2H3CHCHC2H7CSH4C4H5CH3C2H3C2H3C2HC2HCSHCSHC2H3CH2FeSCHSH2CNHCS2NFeCHCH2FeCHCH5C2H2CH2C3H4CHCH2C3HSC2H2SFeH2C2SH2CFeH6S2NFeSCH2CH4CH2CH2CHCH4CH4FeCH12C2H3NHCH3SC2HFeCSFeH4FeCH4CHSH8SH2C2HC3HCHCH2C3H2CHCNH6C2HC2HC2H4CH3CH6CH2NSHSH2C2H2CH6SC3H4C2H2NCH3CSC2H7CNH2C2HC4H6C2H10C3H2SCH5CHCHSH2CH6SFeC3HCH2CH3FeH5C2HSHCH3CH3CHC3HCSC2H2C3H
_chemical_formula_sum              "C1152 S256 H2048 Fe128 N64"
_cell_length_a       50.38
_cell_length_b       51.9315
_cell_length_c       54.542
_cell_angle_alpha    79.7775
_cell_angle_beta     77.5943
_cell_angle_gamma    75.0153

_space_group_name_H-M_alt    "P 1"
_space_group_IT_number       1

loop_
  _space_group_symop_operation_xyz
  'x, y, z'

loop_
  _atom_site_type_symbol
  _atom_site_label
  _atom_site_symmetry_multiplicity
  _atom_site_fract_x
  _atom_site_fract_y
  _atom_site_fract_z
  _atom_site_occupancy
  C   C1        1.0  0.33911  0.17934  0.28698  1.0000
  S   S1        1.0  0.45050  0.18692  0.21944  1.0000
  H   H1        1.0  0.04479  0.35818  0.27549  1.0000
  H   H2        1.0  0.19860  0.43358  0.21825  1.0000
  S   S2        1.0  0.42395  0.14440  0.26433  1.0000
  Fe  Fe1       1.0  0.43765  0.14793  0.22246  1.0000
  S   S3        1.0  0.41127  0.13928  0.19811  1.0000
  H   H3        1.0  0.42232  0.19985  0.16441  1.0000
  C   C2        1.0  0.25147  0.41700  0.30899  1.0000
  C   C3        1.0  0.42393  0.10629  0.09594  1.0000
  Fe  Fe2       1.0  0.44133  0.18049  0.26198  1.0000
  H   H4        1.0  0.11062  0.45519  0.25432  1.0000
  H   H5        1.0  0.39927  0.21736  0.14257  1.0000
  H   H6        1.0  0.38183  0.30206  0.31672  1.0000
  H   H7        1.0  0.31399  0.23107  0.29650  1.0000
  H   H8        1.0  0.49126  0.19668  0.17047  1.0000
  C   C4        1.0  0.22101  0.41672  0.30996  1.0000
  C   C5        1.0  0.06433  0.36383  0.30461  1.0000
  C   C6        1.0  0.04813  0.40068  0.27016  1.0000
  C   C7        1.0  0.41173  0.19740  0.14934  1.0000
  H   H9        1.0  0.39734  0.27131  0.30301  1.0000
  H   H10       1.0  0.45621  0.10778  0.12944  1.0000
  H   H11       1.0  0.18474  0.40038  0.26999  1.0000
  H   H12       1.0  0.47675  0.10739  0.09929  1.0000
  H   H13       1.0  0.05114  0.43442  0.19446  1.0000
  H   H14       1.0  0.48375  0.17137  0.03827  1.0000
  C   C8        1.0  0.02569  0.43888  0.24300  1.0000
  C   C9        1.0  0.20387  0.44500  0.30092  1.0000
  H   H15       1.0  0.07189  0.46603  0.29038  1.0000
  C   C10       1.0  0.16186  0.42566  0.31241  1.0000
  S   S4        1.0  0.42334  0.21284  0.28729  1.0000
  H   H16       1.0  0.39725  0.18392  0.15749  1.0000
  C   C11       1.0  0.43312  0.18582  0.12728  1.0000
  C   C12       1.0  0.02064  0.39302  0.24123  1.0000
  H   H17       1.0  0.34347  0.25986  0.29527  1.0000
  C   C13       1.0  0.43313  0.06923  0.16838  1.0000
  S   S5        1.0  0.47096  0.08576  0.29631  1.0000
  H   H18       1.0  0.40441  0.11352  0.08797  1.0000
  H   H19       1.0  0.17459  0.40508  0.31023  1.0000
  C   C14       1.0  0.47971  0.16163  0.09251  1.0000
  H   H20       1.0  0.01634  0.44642  0.22568  1.0000
  H   H21       1.0  0.46079  0.17185  0.08433  1.0000
  H   H22       1.0  0.13131  0.42328  0.28973  1.0000
  S   S6        1.0  0.48048  0.12162  0.22362  1.0000
  H   H23       1.0  0.00781  0.44135  0.25897  1.0000
  H   H24       1.0  0.03273  0.37341  0.23491  1.0000
  H   H25       1.0  0.43714  0.14289  0.08168  1.0000
  H   H26       1.0  0.05924  0.45089  0.25568  1.0000
  H   H27       1.0  0.45744  0.04627  0.22365  1.0000
  H   H28       1.0  0.00757  0.38805  0.25994  1.0000
  H   H29       1.0  0.07733  0.38311  0.22618  1.0000
  C   C15       1.0  0.42265  0.10499  0.19469  1.0000
  H   H30       1.0  0.07983  0.36285  0.26492  1.0000
  C   C16       1.0  0.42059  0.09592  0.17265  1.0000
  H   H31       1.0  0.10553  0.39234  0.18105  1.0000
  H   H32       1.0  0.41005  0.10974  0.15858  1.0000
  H   H33       1.0  0.43987  0.09429  0.08237  1.0000
  H   H34       1.0  0.08210  0.41503  0.22900  1.0000
  H   H35       1.0  0.06428  0.41051  0.27272  1.0000
  C   C17       1.0  0.05956  0.37004  0.27721  1.0000
  C   C18       1.0  0.34963  0.25064  0.31391  1.0000
  H   H36       1.0  0.05502  0.46378  0.22388  1.0000
  H   H37       1.0  0.01775  0.48180  0.27325  1.0000
  N   N1        1.0  0.04036  0.40952  0.24413  1.0000
  H   H38       1.0  0.46441  0.16486  0.14913  1.0000
  S   S7        1.0  0.01710  0.46472  0.16180  1.0000
  H   H39       1.0  0.06715  0.47317  0.17254  1.0000
  N   N2        1.0  0.47279  0.14315  0.11645  1.0000
  C   C19       1.0  0.06371  0.41368  0.19698  1.0000
  H   H40       1.0  0.43206  0.06236  0.15114  1.0000
  H   H41       1.0  0.43950  0.14638  0.14911  1.0000
  C   C20       1.0  0.10310  0.47562  0.25865  1.0000
  H   H42       1.0  0.41686  0.14167  0.11346  1.0000
  H   H43       1.0  0.00860  0.41429  0.20460  1.0000
  H   H44       1.0  0.05365  0.39998  0.19067  1.0000
  C   C21       1.0  0.08100  0.48176  0.27885  1.0000
  H   H45       1.0  0.02975  0.40714  0.28496  1.0000
  H   H46       1.0  0.41957  0.09318  0.11404  1.0000
  H   H47       1.0  0.44545  0.20107  0.11849  1.0000
  H   H48       1.0  0.36434  0.20541  0.29014  1.0000
  Fe  Fe3       1.0  0.49245  0.16030  0.22385  1.0000
  C   C22       1.0  0.99895  0.40597  0.22352  1.0000
  H   H49       1.0  0.10268  0.42708  0.18466  1.0000
  H   H50       1.0  0.04440  0.37012  0.31783  1.0000
  C   C23       1.0  0.45282  0.15909  0.13645  1.0000
  H   H51       1.0  0.42150  0.18309  0.11321  1.0000
  H   H52       1.0  0.33061  0.19208  0.27053  1.0000
  C   C24       1.0  0.06692  0.40482  0.22490  1.0000
  C   C25       1.0  0.44734  0.06008  0.20930  1.0000
  H   H53       1.0  0.08886  0.41939  0.15974  1.0000
  S   S8        1.0  0.46309  0.01813  0.18154  1.0000
  C   C26       1.0  0.44675  0.05138  0.18661  1.0000
  H   H54       1.0  0.35763  0.16396  0.27966  1.0000
  C   C27       1.0  0.46095  0.12106  0.11156  1.0000
  C   C28       1.0  0.43387  0.13029  0.10024  1.0000
  C   C29       1.0  0.43552  0.08690  0.21323  1.0000
  H   H55       1.0  0.18791  0.45980  0.25527  1.0000
  C   C30       1.0  0.13193  0.42554  0.30942  1.0000
  C   C31       1.0  0.04358  0.45893  0.24331  1.0000
  C   C32       1.0  0.09203  0.41298  0.17966  1.0000
  C   C33       1.0  0.34777  0.19636  0.30270  1.0000
  S   S9        1.0  0.45517  0.02929  0.10916  1.0000
  H   H56       1.0  0.36970  0.29601  0.28995  1.0000
  H   H57       1.0  0.11682  0.44425  0.31462  1.0000
  H   H58       1.0  0.43633  0.09353  0.23070  1.0000
  S   S10       1.0  0.48424  0.15675  0.26628  1.0000
  H   H59       1.0  0.20200  0.45716  0.31644  1.0000
  H   H60       1.0  0.47721  0.11882  0.16541  1.0000
  H   H61       1.0  0.21561  0.41387  0.25867  1.0000
  Fe  Fe4       1.0  0.47917  0.01240  0.14074  1.0000
  H   H62       1.0  0.46971  0.99976  0.00498  1.0000
  H   H63       1.0  0.26201  0.42109  0.28909  1.0000
  H   H64       1.0  0.26253  0.39707  0.31738  1.0000
  H   H65       1.0  0.48765  0.17800  0.09699  1.0000
  H   H66       1.0  0.48185  0.20677  0.31783  1.0000
  H   H67       1.0  0.49025  0.26732  0.05459  1.0000
  C   C34       1.0  0.37748  0.28638  0.30773  1.0000
  H   H68       1.0  0.32320  0.16879  0.29872  1.0000
  C   C35       1.0  0.19021  0.41717  0.23097  1.0000
  C   C36       1.0  0.32244  0.21833  0.31308  1.0000
  H   H69       1.0  0.21699  0.45413  0.28422  1.0000
  C   C37       1.0  0.15714  0.47391  0.30036  1.0000
  H   H70       1.0  0.99798  0.36895  0.21046  1.0000
  H   H71       1.0  0.00354  0.15290  0.08513  1.0000
  H   H72       1.0  0.36997  0.23633  0.30952  1.0000
  H   H73       1.0  0.22089  0.40128  0.29842  1.0000
  N   N3        1.0  0.17533  0.44667  0.29508  1.0000
  H   H74       1.0  0.16793  0.42000  0.22951  1.0000
  H   H75       1.0  0.07977  0.37445  0.30736  1.0000
  C   C38       1.0  0.19303  0.41729  0.25832  1.0000
  Fe  Fe5       1.0  0.46775  0.12087  0.26558  1.0000
  C   C39       1.0  0.17729  0.44455  0.26752  1.0000
  H   H76       1.0  0.20205  0.39767  0.22445  1.0000
  H   H77       1.0  0.07244  0.34188  0.30936  1.0000
  H   H78       1.0  0.15618  0.44966  0.26263  1.0000
  H   H79       1.0  0.41969  0.15931  0.31093  1.0000
  H   H80       1.0  0.13608  0.47662  0.29577  1.0000
  C   C40       1.0  0.02510  0.48502  0.25248  1.0000
  Fe  Fe6       1.0  0.46997  0.98785  0.09797  1.0000
  C   C41       1.0  0.03806  0.48716  0.14663  1.0000
  C   C42       1.0  0.06173  0.48709  0.15620  1.0000
  H   H81       1.0  0.35681  0.18252  0.31832  1.0000
  H   H82       1.0  0.49296  0.46354  0.46397  1.0000
  H   H83       1.0  0.36676  0.02116  0.51091  1.0000
  S   S11       1.0  0.07475  0.10022  0.64388  1.0000
  H   H84       1.0  0.01285  0.99467  0.58129  1.0000
  H   H85       1.0  0.41582  0.21344  0.37823  1.0000
  Fe  Fe7       1.0  0.24060  0.38129  0.39281  1.0000
  S   S12       1.0  0.19461  0.38694  0.40694  1.0000
  S   S13       1.0  0.26835  0.34968  0.36994  1.0000
  Fe  Fe8       1.0  0.24523  0.42912  0.41423  1.0000
  S   S14       1.0  0.19958  0.44030  0.43030  1.0000
  S   S15       1.0  0.27643  0.45279  0.41440  1.0000
  Fe  Fe9       1.0  0.20438  0.39601  0.44230  1.0000
  S   S16       1.0  0.18266  0.38340  0.48121  1.0000
  Fe  Fe10      1.0  0.19296  0.43078  0.39393  1.0000
  S   S17       1.0  0.16069  0.45817  0.37260  1.0000
  S   S18       1.0  0.25084  0.38572  0.42959  1.0000
  S   S19       1.0  0.23818  0.42419  0.37643  1.0000
  Fe  Fe11      1.0  0.37350  0.39658  0.56955  1.0000
  S   S20       1.0  0.35668  0.36119  0.59009  1.0000
  C   C43       1.0  0.48453  0.11124  0.35131  1.0000
  Fe  Fe12      1.0  0.36192  0.39029  0.51876  1.0000
  S   S21       1.0  0.34294  0.35494  0.53466  1.0000
  S   S22       1.0  0.37308  0.40735  0.47814  1.0000
  Fe  Fe13      1.0  0.32251  0.37821  0.56737  1.0000
  S   S23       1.0  0.27839  0.38122  0.58731  1.0000
  Fe  Fe14      1.0  0.37888  0.34112  0.55574  1.0000
  S   S24       1.0  0.40410  0.29873  0.55547  1.0000
  S   S25       1.0  0.33761  0.41526  0.54928  1.0000
  S   S26       1.0  0.39925  0.37478  0.53761  1.0000
  Fe  Fe15      1.0  0.33460  0.22546  0.44695  1.0000
  S   S27       1.0  0.35256  0.18141  0.45498  1.0000
  S   S28       1.0  0.29013  0.23949  0.44095  1.0000
  Fe  Fe16      1.0  0.38771  0.24009  0.44997  1.0000
  S   S29       1.0  0.41091  0.19741  0.45800  1.0000
  S   S30       1.0  0.40604  0.27587  0.44552  1.0000
  Fe  Fe17      1.0  0.39064  0.18971  0.42820  1.0000
  S   S31       1.0  0.41181  0.15945  0.40133  1.0000
  Fe  Fe18      1.0  0.37120  0.19227  0.48433  1.0000
  S   S32       1.0  0.37496  0.16406  0.52050  1.0000
  S   S33       1.0  0.37113  0.23305  0.41742  1.0000
  S   S34       1.0  0.34957  0.23591  0.47902  1.0000
  S   S35       1.0  0.26562  0.23411  0.58939  1.0000
  S   S36       1.0  0.25112  0.27251  0.52674  1.0000
  C   C44       1.0  0.34337  0.16311  0.54138  1.0000
  C   C45       1.0  0.34272  0.14232  0.56157  1.0000
  C   C46       1.0  0.31775  0.14105  0.57857  1.0000
  C   C47       1.0  0.29347  0.16088  0.57572  1.0000
  C   C48       1.0  0.29403  0.18149  0.55531  1.0000
  C   C49       1.0  0.31896  0.18261  0.53811  1.0000
  H   H86       1.0  0.36160  0.12725  0.56416  1.0000
  H   H87       1.0  0.36051  0.47283  0.54259  1.0000
  H   H88       1.0  0.27527  0.19670  0.55278  1.0000
  H   H89       1.0  0.31929  0.19870  0.52252  1.0000
  C   C50       1.0  0.27543  0.34965  0.60349  1.0000
  C   C51       1.0  0.27170  0.33032  0.59055  1.0000
  C   C52       1.0  0.26446  0.30117  0.63015  1.0000
  C   C53       1.0  0.14335  0.44469  0.51640  1.0000
  H   H90       1.0  0.27242  0.33429  0.57032  1.0000
  H   H91       1.0  0.26162  0.29202  0.59389  1.0000
  H   H92       1.0  0.47785  0.45236  0.56056  1.0000
  C   C54       1.0  0.40888  0.29189  0.52425  1.0000
  C   C55       1.0  0.40462  0.31310  0.50475  1.0000
  C   C56       1.0  0.40507  0.30794  0.48037  1.0000
  C   C57       1.0  0.40882  0.28162  0.47548  1.0000
  C   C58       1.0  0.41385  0.26023  0.49477  1.0000
  C   C59       1.0  0.41469  0.26540  0.51898  1.0000
  H   H93       1.0  0.40071  0.33360  0.50839  1.0000
  H   H94       1.0  0.40152  0.32447  0.46562  1.0000
  H   H95       1.0  0.41713  0.23977  0.49105  1.0000
  H   H96       1.0  0.41883  0.24900  0.53381  1.0000
  C   C60       1.0  0.30357  0.43802  0.43155  1.0000
  C   C61       1.0  0.32638  0.44990  0.42702  1.0000
  C   C62       1.0  0.34772  0.43998  0.44124  1.0000
  C   C63       1.0  0.34606  0.41855  0.46056  1.0000
  C   C64       1.0  0.32351  0.40625  0.46502  1.0000
  C   C65       1.0  0.30234  0.41584  0.45030  1.0000
  H   H97       1.0  0.32741  0.46703  0.41258  1.0000
  H   H98       1.0  0.36526  0.44935  0.43761  1.0000
  H   H99       1.0  0.32266  0.38921  0.47956  1.0000
  H   H100      1.0  0.28491  0.40643  0.45386  1.0000
  C   C66       1.0  0.27433  0.31945  0.39007  1.0000
  C   C67       1.0  0.25369  0.31352  0.41039  1.0000
  C   C68       1.0  0.25856  0.28882  0.42595  1.0000
  C   C69       1.0  0.28440  0.27054  0.42177  1.0000
  C   C70       1.0  0.30516  0.27684  0.40176  1.0000
  C   C71       1.0  0.30003  0.30115  0.38576  1.0000
  H   H101      1.0  0.23381  0.32775  0.41383  1.0000
  H   H102      1.0  0.24251  0.28405  0.44148  1.0000
  H   H103      1.0  0.32483  0.26263  0.39805  1.0000
  H   H104      1.0  0.31592  0.30579  0.37006  1.0000
  C   C72       1.0  0.20138  0.35247  0.49390  1.0000
  C   C73       1.0  0.19479  0.34349  0.51971  1.0000
  C   C74       1.0  0.21021  0.31900  0.53010  1.0000
  C   C75       1.0  0.23208  0.30351  0.51463  1.0000
  C   C76       1.0  0.23859  0.31252  0.48888  1.0000
  C   C77       1.0  0.22316  0.33691  0.47847  1.0000
  H   H105      1.0  0.17782  0.35544  0.53163  1.0000
  H   H106      1.0  0.20506  0.31210  0.54995  1.0000
  H   H107      1.0  0.25548  0.30043  0.47695  1.0000
  H   H108      1.0  0.22792  0.34338  0.45845  1.0000
  C   C78       1.0  0.43918  0.43966  0.57240  1.0000
  C   C79       1.0  0.10048  0.41759  0.40402  1.0000
  C   C80       1.0  0.12511  0.42683  0.39926  1.0000
  C   C81       1.0  0.12941  0.44729  0.37945  1.0000
  C   C82       1.0  0.10861  0.45907  0.36487  1.0000
  H   H109      1.0  0.33671  0.28911  0.33016  1.0000
  H   H110      1.0  0.09730  0.40165  0.41930  1.0000
  H   H111      1.0  0.14049  0.41837  0.41125  1.0000
  H   H112      1.0  0.26689  0.45153  0.57564  1.0000
  H   H113      1.0  0.46626  0.10921  0.47870  1.0000
  N   N4        1.0  0.44383  0.43975  0.48633  1.0000
  C   C83       1.0  0.42638  0.41800  0.57752  1.0000
  C   C84       1.0  0.44258  0.39198  0.57510  1.0000
  H   H114      1.0  0.16894  0.33216  0.61942  1.0000
  H   H115      1.0  0.43273  0.37513  0.57899  1.0000
  C   C85       1.0  0.12480  0.19919  0.58733  1.0000
  H   H116      1.0  0.30368  0.21610  0.38180  1.0000
  H   H117      1.0  0.25454  0.26992  0.37582  1.0000
  C   C86       1.0  0.41602  0.15958  0.35072  1.0000
  C   C87       1.0  0.41482  0.17473  0.36984  1.0000
  C   C88       1.0  0.41600  0.20179  0.36362  1.0000
  C   C89       1.0  0.41841  0.21361  0.33824  1.0000
  H   H118      1.0  0.45166  0.48195  0.44878  1.0000
  H   H119      1.0  0.36070  0.20657  0.34621  1.0000
  C   C90       1.0  0.13580  0.21973  0.59180  1.0000
  C   C91       1.0  0.19556  0.36077  0.61309  1.0000
  C   C92       1.0  0.16369  0.20349  0.50231  1.0000
  H   H120      1.0  0.41974  0.23441  0.33344  1.0000
  C   C93       1.0  0.10342  0.19055  0.60519  1.0000
  H   H121      1.0  0.44138  0.12831  0.50205  1.0000
  H   H122      1.0  0.13709  0.00760  0.63972  1.0000
  H   H123      1.0  0.47498  0.45058  0.64816  1.0000
  H   H124      1.0  0.23116  0.46919  0.57454  1.0000
  H   H125      1.0  0.32977  0.40668  0.33322  1.0000
  C   C94       1.0  0.40673  0.37287  0.42344  1.0000
  H   H126      1.0  0.21493  0.36200  0.61894  1.0000
  H   H127      1.0  0.48468  0.45908  0.41368  1.0000
  H   H128      1.0  0.44391  0.06665  0.38521  1.0000
  H   H129      1.0  0.22310  0.14309  0.54413  1.0000
  H   H130      1.0  0.18907  0.46421  0.50423  1.0000
  H   H131      1.0  0.23951  0.43351  0.58530  1.0000
  C   C95       1.0  0.41993  0.19828  0.31907  1.0000
  H   H132      1.0  0.31745  0.12518  0.59436  1.0000
  C   C96       1.0  0.33774  0.18357  0.38992  1.0000
  C   C97       1.0  0.16004  0.25882  0.51699  1.0000
  H   H133      1.0  0.31334  0.19028  0.36096  1.0000
  C   C98       1.0  0.44591  0.41143  0.49977  1.0000
  H   H134      1.0  0.15030  0.24005  0.47826  1.0000
  H   H135      1.0  0.35476  0.16851  0.38019  1.0000
  S   S37       1.0  0.03319  0.44069  0.32584  1.0000
  S   S38       1.0  0.20745  0.27989  0.59680  1.0000
  H   H136      1.0  0.14755  0.20919  0.51901  1.0000
  H   H137      1.0  0.47058  0.12806  0.36107  1.0000
  C   C99       1.0  0.20249  0.35787  0.58486  1.0000
  H   H138      1.0  0.10381  0.02401  0.63053  1.0000
  H   H139      1.0  0.12648  0.43683  0.52986  1.0000
  H   H140      1.0  0.04456  0.05882  0.63997  1.0000
  H   H141      1.0  0.43135  0.40198  0.49355  1.0000
  H   H142      1.0  0.37426  0.28971  0.64943  1.0000
  H   H143      1.0  0.34695  0.19487  0.40002  1.0000
  N   N5        1.0  0.18435  0.13296  0.63184  1.0000
  C   C100      1.0  0.18785  0.14977  0.60629  1.0000
  H   H144      1.0  0.34533  0.30878  0.63438  1.0000
  C   C101      1.0  0.26075  0.38689  0.52014  1.0000
  C   C102      1.0  0.26657  0.35705  0.51755  1.0000
  H   H145      1.0  0.26854  0.42675  0.54146  1.0000
  H   H146      1.0  0.27817  0.39499  0.50811  1.0000
  H   H147      1.0  0.26041  0.38803  0.54024  1.0000
  H   H148      1.0  0.25158  0.34732  0.53172  1.0000
  H   H149      1.0  0.26460  0.35431  0.49839  1.0000
  H   H150      1.0  0.28802  0.34690  0.52081  1.0000
  H   H151      1.0  0.38022  0.30093  0.61593  1.0000
  N   N6        1.0  0.35197  0.35078  0.39550  1.0000
  C   C103      1.0  0.36853  0.32285  0.39069  1.0000
  C   C104      1.0  0.32738  0.34913  0.41681  1.0000
  C   C105      1.0  0.34067  0.36435  0.37175  1.0000
  C   C106      1.0  0.36973  0.36773  0.40096  1.0000
  C   C107      1.0  0.38582  0.35627  0.42304  1.0000
  C   C108      1.0  0.39413  0.32099  0.36892  1.0000
  C   C109      1.0  0.32029  0.39241  0.37354  1.0000
  C   C110      1.0  0.33145  0.32536  0.43847  1.0000
  C   C111      1.0  0.30697  0.32904  0.46046  1.0000
  H   H152      1.0  0.35385  0.12623  0.41118  1.0000
  C   C112      1.0  0.41022  0.29175  0.36770  1.0000
  C   C113      1.0  0.44596  0.46602  0.44122  1.0000
  H   H153      1.0  0.35461  0.31117  0.38670  1.0000
  H   H154      1.0  0.37648  0.31131  0.40777  1.0000
  H   H155      1.0  0.32008  0.36823  0.42540  1.0000
  H   H156      1.0  0.30919  0.34703  0.40936  1.0000
  H   H157      1.0  0.32956  0.35124  0.36565  1.0000
  H   H158      1.0  0.35800  0.36738  0.35586  1.0000
  H   H159      1.0  0.38488  0.37254  0.38369  1.0000
  H   H160      1.0  0.35664  0.38753  0.40593  1.0000
  H   H161      1.0  0.39783  0.33533  0.42162  1.0000
  H   H162      1.0  0.37090  0.35723  0.44127  1.0000
  H   H163      1.0  0.38755  0.32877  0.35035  1.0000
  H   H164      1.0  0.40878  0.33243  0.37176  1.0000
  H   H165      1.0  0.33012  0.40695  0.37877  1.0000
  H   H166      1.0  0.30116  0.39102  0.38775  1.0000
  H   H167      1.0  0.33253  0.30619  0.43148  1.0000
  H   H168      1.0  0.35076  0.32315  0.44597  1.0000
  H   H169      1.0  0.30660  0.34677  0.46937  1.0000
  H   H170      1.0  0.28696  0.33180  0.45379  1.0000
  H   H171      1.0  0.30928  0.31093  0.47483  1.0000
  S   S39       1.0  0.13992  0.25624  0.62048  1.0000
  C   C114      1.0  0.47872  0.08485  0.36747  1.0000
  S   S40       1.0  0.21408  0.22159  0.63414  1.0000
  H   H172      1.0  0.39647  0.27921  0.36509  1.0000
  H   H173      1.0  0.42799  0.29069  0.35155  1.0000
  H   H174      1.0  0.41868  0.28332  0.38541  1.0000
  C   C115      1.0  0.12165  0.40226  0.32684  1.0000
  C   C116      1.0  0.38671  0.02327  0.51501  1.0000
  H   H175      1.0  0.16495  0.19017  0.63804  1.0000
  H   H176      1.0  0.35684  0.46764  0.51178  1.0000
  H   H177      1.0  0.19630  0.16728  0.60738  1.0000
  C   C117      1.0  0.49264  0.16416  0.33123  1.0000
  H   H178      1.0  0.39615  0.39441  0.42395  1.0000
  H   H179      1.0  0.13005  0.08383  0.60603  1.0000
  C   C118      1.0  0.49179  0.45202  0.48321  1.0000
  H   H180      1.0  0.07854  0.46501  0.43330  1.0000
  H   H181      1.0  0.18988  0.16494  0.55485  1.0000
  H   H182      1.0  0.21960  0.14516  0.63939  1.0000
  C   C119      1.0  0.36525  0.29328  0.63192  1.0000
  H   H183      1.0  0.48832  0.06745  0.35679  1.0000
  H   H184      1.0  0.41473  0.13879  0.35539  1.0000
  S   S41       1.0  0.25441  0.27229  0.64708  1.0000
  S   S42       1.0  0.00922  0.48443  0.36682  1.0000
  H   H185      1.0  0.42648  0.45981  0.57345  1.0000
  H   H186      1.0  0.42351  0.37086  0.40649  1.0000
  H   H187      1.0  0.45616  0.48384  0.40228  1.0000
  H   H188      1.0  0.45506  0.14523  0.47209  1.0000
  N   N7        1.0  0.34562  0.24689  0.59263  1.0000
  C   C120      1.0  0.32803  0.25606  0.57213  1.0000
  C   C121      1.0  0.34609  0.27171  0.60333  1.0000
  C   C122      1.0  0.37526  0.23263  0.58298  1.0000
  C   C123      1.0  0.37983  0.21508  0.56138  1.0000
  C   C124      1.0  0.33675  0.27815  0.55103  1.0000
  H   H189      1.0  0.18020  0.38014  0.61524  1.0000
  C   C125      1.0  0.31974  0.28364  0.52988  1.0000
  C   C126      1.0  0.47518  0.39209  0.49686  1.0000
  H   H190      1.0  0.30612  0.26458  0.58062  1.0000
  H   H191      1.0  0.32705  0.23899  0.56296  1.0000
  C   C127      1.0  0.41864  0.17130  0.32544  1.0000
  H   H192      1.0  0.35734  0.28485  0.58878  1.0000
  H   H193      1.0  0.38861  0.24736  0.57561  1.0000
  H   H194      1.0  0.38466  0.21977  0.59898  1.0000
  H   H195      1.0  0.37854  0.22799  0.54296  1.0000
  H   H196      1.0  0.36411  0.20300  0.56400  1.0000
  H   H197      1.0  0.33286  0.29752  0.55860  1.0000
  H   H198      1.0  0.35913  0.27235  0.54277  1.0000
  H   H199      1.0  0.12782  0.46298  0.43340  1.0000
  H   H200      1.0  0.32796  0.29800  0.51431  1.0000
  H   H201      1.0  0.32106  0.26485  0.52224  1.0000
  H   H202      1.0  0.29749  0.29265  0.53708  1.0000
  C   C128      1.0  0.26565  0.30633  0.60394  1.0000
  H   H203      1.0  0.35150  0.18827  0.60502  1.0000
  H   H204      1.0  0.19575  0.09349  0.61955  1.0000
  Fe  Fe19      1.0  0.23978  0.20361  0.59970  1.0000
  H   H205      1.0  0.46071  0.35582  0.49708  1.0000
  H   H206      1.0  0.22180  0.16941  0.56201  1.0000
  H   H207      1.0  0.16989  0.43675  0.54418  1.0000
  H   H208      1.0  0.13359  0.18923  0.57062  1.0000
  H   H209      1.0  0.16759  0.07322  0.59945  1.0000
  H   H210      1.0  0.15153  0.12254  0.60011  1.0000
  H   H211      1.0  0.24884  0.28966  0.34577  1.0000
  S   S43       1.0  0.09285  0.16225  0.60142  1.0000
  H   H212      1.0  0.48685  0.13169  0.39334  1.0000
  H   H213      1.0  0.46381  0.42393  0.61828  1.0000
  H   H214      1.0  0.43924  0.41154  0.52055  1.0000
  H   H215      1.0  0.07500  0.19713  0.64035  1.0000
  H   H216      1.0  0.43691  0.10233  0.38622  1.0000
  C   C129      1.0  0.42269  0.46994  0.63571  1.0000
  H   H217      1.0  0.32127  0.18401  0.64715  1.0000
  H   H218      1.0  0.17349  0.09536  0.64930  1.0000
  C   C130      1.0  0.39848  0.42442  0.65074  1.0000
  C   C131      1.0  0.22337  0.43940  0.53886  1.0000
  H   H219      1.0  0.15386  0.47555  0.32091  1.0000
  H   H220      1.0  0.15623  0.24286  0.53295  1.0000
  H   H221      1.0  0.48848  0.39799  0.50771  1.0000
  C   C132      1.0  0.45216  0.43860  0.45819  1.0000
  C   C133      1.0  0.44822  0.12665  0.48150  1.0000
  H   H222      1.0  0.18316  0.35942  0.57747  1.0000
  H   H223      1.0  0.15281  0.22581  0.57840  1.0000
  C   C134      1.0  0.47174  0.38766  0.56822  1.0000
  H   H224      1.0  0.14132  0.15435  0.64095  1.0000
  C   C135      1.0  0.19003  0.26869  0.47531  1.0000
  C   C136      1.0  0.16701  0.28085  0.52870  1.0000
  C   C137      1.0  0.16563  0.28922  0.46442  1.0000
  C   C138      1.0  0.14298  0.29210  0.54913  1.0000
  C   C139      1.0  0.17645  0.31049  0.44440  1.0000
  H   H225      1.0  0.20416  0.25959  0.45887  1.0000
  H   H226      1.0  0.20252  0.28004  0.48198  1.0000
  H   H227      1.0  0.17094  0.29797  0.51424  1.0000
  H   H228      1.0  0.18572  0.27253  0.53768  1.0000
  H   H229      1.0  0.15429  0.27901  0.45526  1.0000
  H   H230      1.0  0.15050  0.29994  0.47934  1.0000
  H   H231      1.0  0.22413  0.19896  0.48245  1.0000
  H   H232      1.0  0.39969  0.47834  0.63853  1.0000
  H   H233      1.0  0.43824  0.08964  0.35691  1.0000
  H   H234      1.0  0.18710  0.32208  0.45283  1.0000
  H   H235      1.0  0.19127  0.30102  0.42850  1.0000
  H   H236      1.0  0.15870  0.32481  0.43672  1.0000
  C   C140      1.0  0.14943  0.08172  0.61356  1.0000
  C   C141      1.0  0.39929  0.45482  0.51954  1.0000
  S   S44       1.0  0.26301  0.16075  0.59855  1.0000
  H   H237      1.0  0.30987  0.24030  0.62087  1.0000
  C   C142      1.0  0.31242  0.18742  0.62956  1.0000
  H   H238      1.0  0.23836  0.22814  0.47117  1.0000
  H   H239      1.0  0.02500  0.48117  0.45568  1.0000
  H   H240      1.0  0.18449  0.22221  0.46700  1.0000
  C   C143      1.0  0.17752  0.10679  0.63012  1.0000
  N   N8        1.0  0.38806  0.09405  0.47569  1.0000
  C   C144      1.0  0.38704  0.06480  0.48249  1.0000
  C   C145      1.0  0.38827  0.10265  0.44763  1.0000
  C   C146      1.0  0.41503  0.09702  0.48169  1.0000
  C   C147      1.0  0.36428  0.11186  0.49126  1.0000
  C   C148      1.0  0.33439  0.11188  0.48846  1.0000
  C   C149      1.0  0.38824  0.05281  0.51050  1.0000
  C   C150      1.0  0.42409  0.12371  0.47014  1.0000
  C   C151      1.0  0.31251  0.12877  0.50696  1.0000
  C   C152      1.0  0.33022  0.20157  0.60767  1.0000
  H   H241      1.0  0.16097  0.42802  0.33249  1.0000
  H   H242      1.0  0.40468  0.05239  0.47037  1.0000
  H   H243      1.0  0.36785  0.06113  0.47833  1.0000
  S   S45       1.0  0.20969  0.22463  0.57387  1.0000
  H   H244      1.0  0.43274  0.08043  0.47506  1.0000
  H   H245      1.0  0.41369  0.09534  0.50256  1.0000
  H   H246      1.0  0.36578  0.10732  0.51171  1.0000
  H   H247      1.0  0.36593  0.13302  0.48639  1.0000
  H   H248      1.0  0.33070  0.09130  0.49222  1.0000
  H   H249      1.0  0.33076  0.12121  0.46917  1.0000
  H   H250      1.0  0.40802  0.05371  0.51579  1.0000
  H   H251      1.0  0.37044  0.06369  0.52346  1.0000
  H   H252      1.0  0.40674  0.14141  0.47354  1.0000
  H   H253      1.0  0.43131  0.12437  0.44937  1.0000
  H   H254      1.0  0.29123  0.12843  0.50468  1.0000
  H   H255      1.0  0.31493  0.12075  0.52685  1.0000
  H   H256      1.0  0.45618  0.44865  0.40583  1.0000
  H   H257      1.0  0.09332  0.23468  0.64741  1.0000
  C   C153      1.0  0.12464  0.23235  0.61357  1.0000
  C   C154      1.0  0.11144  0.48021  0.44047  1.0000
  C   C155      1.0  0.10208  0.22485  0.63061  1.0000
  H   H258      1.0  0.09936  0.40407  0.32616  1.0000
  C   C156      1.0  0.23119  0.21508  0.48835  1.0000
  Fe  Fe20      1.0  0.23384  0.25667  0.56601  1.0000
  H   H259      1.0  0.20257  0.31896  0.62722  1.0000
  H   H260      1.0  0.38699  0.10730  0.39642  1.0000
  H   H261      1.0  0.32129  0.20341  0.59043  1.0000
  H   H262      1.0  0.21692  0.39217  0.52629  1.0000
  C   C157      1.0  0.20719  0.13502  0.58431  1.0000
  H   H263      1.0  0.34640  0.25969  0.64402  1.0000
  H   H264      1.0  0.26584  0.43799  0.49630  1.0000
  C   C158      1.0  0.25038  0.26929  0.35675  1.0000
  H   H265      1.0  0.16825  0.17932  0.47212  1.0000
  C   C159      1.0  0.40853  0.19561  0.55910  1.0000
  C   C160      1.0  0.08405  0.44973  0.36951  1.0000
  H   H266      1.0  0.34252  0.22411  0.63012  1.0000
  H   H267      1.0  0.21280  0.37403  0.57426  1.0000
  Fe  Fe21      1.0  0.23739  0.25426  0.62116  1.0000
  H   H268      1.0  0.32354  0.17291  0.40412  1.0000
  H   H269      1.0  0.38057  0.25232  0.62435  1.0000
  C   C161      1.0  0.08004  0.42886  0.38902  1.0000
  C   C162      1.0  0.37035  0.47378  0.52225  1.0000
  C   C163      1.0  0.21057  0.15441  0.55985  1.0000
  H   H270      1.0  0.05110  0.01165  0.59063  1.0000
  N   N9        1.0  0.18194  0.24700  0.49583  1.0000
  C   C164      1.0  0.41347  0.45450  0.49135  1.0000
  H   H271      1.0  0.42531  0.20632  0.55779  1.0000
  C   C165      1.0  0.31135  0.40437  0.34808  1.0000
  N   N10       1.0  0.32811  0.23601  0.32967  1.0000
  C   C166      1.0  0.18449  0.33650  0.62894  1.0000
  H   H272      1.0  0.08890  0.39908  0.63806  1.0000
  C   C167      1.0  0.46758  0.41505  0.63755  1.0000
  C   C168      1.0  0.08570  0.48407  0.42842  1.0000
  H   H273      1.0  0.12328  0.40268  0.34676  1.0000
  H   H274      1.0  0.31450  0.14998  0.50311  1.0000
  H   H275      1.0  0.40918  0.17982  0.57575  1.0000
  H   H276      1.0  0.35569  0.09547  0.39928  1.0000
  C   C169      1.0  0.23649  0.47595  0.48764  1.0000
  H   H277      1.0  0.03594  0.47236  0.42450  1.0000
  H   H278      1.0  0.11155  0.47518  0.34978  1.0000
  H   H279      1.0  0.12394  0.30193  0.54089  1.0000
  H   H280      1.0  0.06846  0.45845  0.35771  1.0000
  H   H281      1.0  0.41265  0.18573  0.54178  1.0000
  C   C170      1.0  0.27480  0.34436  0.62965  1.0000
  H   H282      1.0  0.25289  0.43258  0.31991  1.0000
  C   C171      1.0  0.36018  0.26706  0.62689  1.0000
  C   C172      1.0  0.37115  0.08988  0.43457  1.0000
  Fe  Fe22      1.0  0.02152  0.43997  0.36788  1.0000
  H   H283      1.0  0.13218  0.11735  0.63155  1.0000
  N   N11       1.0  0.22431  0.43210  0.51298  1.0000
  H   H284      1.0  0.40076  0.44594  0.48197  1.0000
  H   H285      1.0  0.27790  0.35929  0.63962  1.0000
  C   C173      1.0  0.02898  0.04814  0.65040  1.0000
  H   H286      1.0  0.41200  0.46142  0.53041  1.0000
  H   H287      1.0  0.42739  0.45758  0.62006  1.0000
  H   H288      1.0  0.24532  0.43754  0.47406  1.0000
  H   H289      1.0  0.40993  0.09743  0.43673  1.0000
  H   H290      1.0  0.16726  0.15881  0.60049  1.0000
  C   C174      1.0  0.09180  0.20356  0.62668  1.0000
  H   H291      1.0  0.48435  0.36748  0.56681  1.0000
  H   H292      1.0  0.26512  0.21727  0.50634  1.0000
  H   H293      1.0  0.35036  0.08881  0.44585  1.0000
  H   H294      1.0  0.25091  0.18780  0.51812  1.0000
  H   H295      1.0  0.44104  0.42528  0.45236  1.0000
  C   C175      1.0  0.12682  0.36952  0.64447  1.0000
  C   C176      1.0  0.24418  0.44468  0.49246  1.0000
  C   C177      1.0  0.23229  0.40201  0.51281  1.0000
  H   H296      1.0  0.23195  0.39720  0.49374  1.0000
  H   H297      1.0  0.30383  0.26455  0.35490  1.0000
  H   H298      1.0  0.17408  0.40979  0.52611  1.0000
  H   H299      1.0  0.47675  0.11329  0.33329  1.0000
  H   H300      1.0  0.13293  0.19810  0.48210  1.0000
  C   C178      1.0  0.24669  0.44996  0.57165  1.0000
  H   H301      1.0  0.22827  0.12571  0.58885  1.0000
  H   H302      1.0  0.19584  0.43647  0.48706  1.0000
  H   H303      1.0  0.41098  0.47593  0.48287  1.0000
  C   C179      1.0  0.36673  0.10570  0.40877  1.0000
  S   S46       1.0  0.04961  0.41680  0.39482  1.0000
  H   H304      1.0  0.18259  0.19056  0.50913  1.0000
  H   H305      1.0  0.13826  0.27588  0.56445  1.0000
  C   C180      1.0  0.33996  0.21981  0.35232  1.0000
  H   H306      1.0  0.34427  0.23317  0.36404  1.0000
  C   C181      1.0  0.27356  0.24858  0.34305  1.0000
  H   H307      1.0  0.14890  0.30729  0.55759  1.0000
  C   C182      1.0  0.20757  0.23161  0.50658  1.0000
  H   H308      1.0  0.29722  0.42456  0.34973  1.0000
  H   H309      1.0  0.27322  0.19027  0.48750  1.0000
  C   C183      1.0  0.25066  0.44414  0.54442  1.0000
  H   H310      1.0  0.38268  0.06899  0.43155  1.0000
  H   H311      1.0  0.22801  0.11300  0.62985  1.0000
  H   H312      1.0  0.21714  0.24566  0.51292  1.0000
  C   C184      1.0  0.25656  0.20177  0.50098  1.0000
  C   C185      1.0  0.33152  0.22920  0.61372  1.0000
  H   H313      1.0  0.10613  0.47585  0.46140  1.0000
  C   C186      1.0  0.44746  0.08604  0.37434  1.0000
  H   H314      1.0  0.05516  0.00894  0.64469  1.0000
  H   H315      1.0  0.39627  0.43456  0.52821  1.0000
  Fe  Fe23      1.0  0.01744  0.48535  0.32494  1.0000
  H   H316      1.0  0.41642  0.36557  0.44062  1.0000
  C   C187      1.0  0.19554  0.44193  0.50602  1.0000
  H   H317      1.0  0.23003  0.26373  0.35916  1.0000
  H   H318      1.0  0.14787  0.16854  0.50182  1.0000
  H   H319      1.0  0.19842  0.11898  0.58038  1.0000
  H   H320      1.0  0.13955  0.26715  0.51067  1.0000
  C   C188      1.0  0.32140  0.20271  0.37084  1.0000
  H   H321      1.0  0.25678  0.46174  0.53200  1.0000
  H   H322      1.0  0.21695  0.33824  0.58141  1.0000
  Fe  Fe24      1.0  0.18610  0.24581  0.60724  1.0000
  H   H323      1.0  0.14376  0.43966  0.49731  1.0000
  H   H324      1.0  0.99706  0.45382  0.42119  1.0000
  H   H325      1.0  0.38155  0.12496  0.44378  1.0000
  H   H326      1.0  0.13499  0.37075  0.62383  1.0000
  S   S47       1.0  0.39008  0.42394  0.58669  1.0000
  C   C189      1.0  0.11576  0.01944  0.64630  1.0000
  C   C190      1.0  0.17022  0.22883  0.48451  1.0000
  H   H327      1.0  0.27413  0.22882  0.35475  1.0000
  C   C191      1.0  0.46823  0.43539  0.56533  1.0000
  C   C192      1.0  0.17138  0.43179  0.52490  1.0000
  H   H328      1.0  0.26771  0.24739  0.32482  1.0000
  H   H329      1.0  0.21654  0.42366  0.55386  1.0000
  H   H330      1.0  0.48690  0.08109  0.38539  1.0000
  C   C193      1.0  0.26978  0.31987  0.64293  1.0000
  H   H331      1.0  0.29061  0.19953  0.63304  1.0000
  H   H332      1.0  0.20725  0.45827  0.54221  1.0000
  H   H333      1.0  0.38777  0.01512  0.53513  1.0000
  H   H334      1.0  0.20195  0.21782  0.52391  1.0000
  H   H335      1.0  0.32447  0.28398  0.60839  1.0000
  C   C194      1.0  0.15252  0.18639  0.48864  1.0000
  C   C195      1.0  0.30194  0.25688  0.33778  1.0000
  C   C196      1.0  0.15139  0.10920  0.61837  1.0000
  H   H336      1.0  0.36414  0.26479  0.34354  1.0000
  H   H337      1.0  0.13853  0.46688  0.51583  1.0000
  H   H338      1.0  0.31194  0.16763  0.62482  1.0000
  H   H339      1.0  0.48562  0.39178  0.47685  1.0000
  Fe  Fe25      1.0  0.07292  0.14423  0.63910  1.0000
  H   H340      1.0  0.00813  0.00014  0.61397  1.0000
  H   H341      1.0  0.30005  0.39133  0.34235  1.0000
  C   C197      1.0  0.35575  0.27307  0.32586  1.0000
  H   H342      1.0  0.48569  0.03707  0.32836  1.0000
  H   H343      1.0  0.41436  0.41778  0.63430  1.0000
  C   C198      1.0  0.46178  0.46418  0.41410  1.0000
  C   C199      1.0  0.21147  0.12672  0.64158  1.0000
  C   C200      1.0  0.46086  0.45425  0.49638  1.0000
  H   H344      1.0  0.45116  0.47619  0.49540  1.0000
  C   C201      1.0  0.16067  0.14852  0.64933  1.0000
  H   H345      1.0  0.47462  0.42915  0.45296  1.0000
  H   H346      1.0  0.47524  0.16104  0.32350  1.0000
  H   H347      1.0  0.37571  0.39501  0.64854  1.0000
  H   H348      1.0  0.13405  0.38269  0.32083  1.0000
  H   H349      1.0  0.42330  0.47234  0.44038  1.0000
  H   H350      1.0  0.14874  0.06767  0.63146  1.0000
  H   H351      1.0  0.48458  0.16767  0.35115  1.0000
  H   H352      1.0  0.22635  0.48489  0.50530  1.0000
  C   C202      1.0  0.48462  0.40934  0.56367  1.0000
  H   H353      1.0  0.40449  0.01121  0.50287  1.0000
  H   H354      1.0  0.30595  0.20773  0.32309  1.0000
  C   C203      1.0  0.05063  0.99003  0.59510  1.0000
  H   H355      1.0  0.29949  0.27473  0.32297  1.0000
  H   H356      1.0  0.27149  0.48095  0.45730  1.0000
  H   H357      1.0  0.27794  0.48126  0.48856  1.0000
  H   H358      1.0  0.22151  0.48264  0.47421  1.0000
  H   H359      1.0  0.46354  0.36194  0.52794  1.0000
  H   H360      1.0  0.38211  0.44090  0.64325  1.0000
  C   C204      1.0  0.47326  0.36322  0.50759  1.0000
  H   H361      1.0  0.45512  0.39975  0.64513  1.0000
  H   H362      1.0  0.11601  0.41314  0.64344  1.0000
  H   H363      1.0  0.46063  0.44727  0.51688  1.0000
  H   H364      1.0  0.21204  0.41026  0.32991  1.0000
  C   C205      1.0  0.10572  0.39595  0.64927  1.0000
  H   H365      1.0  0.11713  0.03879  0.65135  1.0000
  H   H366      1.0  0.19201  0.28228  0.65167  1.0000
  H   H367      1.0  0.11537  0.35318  0.64989  1.0000
  C   C206      1.0  0.00262  0.06240  0.66090  1.0000
  H   H368      1.0  0.02140  0.02222  0.74339  1.0000
  S   S48       1.0  0.12762  0.07035  0.68879  1.0000
  H   H369      1.0  0.10410  0.09933  0.84156  1.0000
  H   H370      1.0  0.14958  0.26441  0.67018  1.0000
  H   H371      1.0  0.10347  0.06432  0.84571  1.0000
  H   H372      1.0  0.45528  0.44938  0.70567  1.0000
  H   H373      1.0  0.23827  0.09886  0.69704  1.0000
  H   H374      1.0  0.02811  0.05537  0.73396  1.0000
  H   H375      1.0  0.24604  0.12738  0.67505  1.0000
  S   S49       1.0  0.09876  0.99939  0.86095  1.0000
  C   C207      1.0  0.19640  0.33916  0.66936  1.0000
  H   H376      1.0  0.20944  0.33750  0.73015  1.0000
  C   C208      1.0  0.02552  0.04700  0.86640  1.0000
  C   C209      1.0  0.14206  0.18679  0.67613  1.0000
  H   H377      1.0  0.01654  0.16390  0.78105  1.0000
  H   H378      1.0  0.18237  0.04237  0.75650  1.0000
  Fe  Fe26      1.0  0.03125  0.11147  0.66532  1.0000
  H   H379      1.0  0.17957  0.24552  0.68364  1.0000
  H   H380      1.0  0.14342  0.17352  0.69440  1.0000
  H   H381      1.0  0.17436  0.35865  0.70305  1.0000
  C   C210      1.0  0.23933  0.10823  0.67700  1.0000
  H   H382      1.0  0.17923  0.32264  0.70810  1.0000
  C   C211      1.0  0.16161  0.04762  0.75193  1.0000
  S   S50       1.0  0.02135  0.99919  0.85413  1.0000
  H   H383      1.0  0.26908  0.31584  0.66318  1.0000
  C   C212      1.0  0.18022  0.28735  0.67044  1.0000
  C   C213      1.0  0.16517  0.17507  0.65523  1.0000
  H   H384      1.0  0.01241  0.05140  0.78154  1.0000
  C   C214      1.0  0.01536  0.00615  0.66761  1.0000
  C   C215      1.0  0.15977  0.31532  0.66785  1.0000
  C   C216      1.0  0.21519  0.33674  0.70941  1.0000
  H   H385      1.0  0.15290  0.26899  0.70145  1.0000
  H   H386      1.0  0.12116  0.18904  0.67140  1.0000
  H   H387      1.0  0.02809  0.03535  0.71018  1.0000
  H   H388      1.0  0.46654  0.42621  0.67352  1.0000
  H   H389      1.0  0.44283  0.48473  0.67254  1.0000
  H   H390      1.0  0.14486  0.31356  0.65617  1.0000
  H   H391      1.0  0.17601  0.05553  0.71180  1.0000
  H   H392      1.0  0.04689  0.07103  0.79246  1.0000
  H   H393      1.0  0.03885  0.11831  0.83890  1.0000
  C   C217      1.0  0.10795  0.06167  0.74000  1.0000
  C   C218      1.0  0.13119  0.06227  0.72069  1.0000
  C   C219      1.0  0.15800  0.05510  0.72668  1.0000
  H   H394      1.0  0.08719  0.06754  0.73549  1.0000
  C   C220      1.0  0.18899  0.33944  0.69841  1.0000
  N   N12       1.0  0.03999  0.12677  0.79847  1.0000
  C   C221      1.0  0.06036  0.12498  0.77374  1.0000
  H   H395      1.0  0.40647  0.48541  0.68073  1.0000
  C   C222      1.0  0.02464  0.15588  0.79899  1.0000
  C   C223      1.0  0.05450  0.11822  0.82108  1.0000
  C   C224      1.0  0.07449  0.09002  0.82250  1.0000
  C   C225      1.0  0.08271  0.14183  0.76905  1.0000
  N   N13       1.0  0.17281  0.33889  0.65653  1.0000
  C   C226      1.0  0.06494  0.02304  0.72801  1.0000
  C   C227      1.0  0.01435  0.07360  0.87156  1.0000
  C   C228      1.0  0.09026  0.08511  0.84454  1.0000
  C   C229      1.0  0.10389  0.13580  0.74494  1.0000
  Fe  Fe27      1.0  0.08787  0.09923  0.68082  1.0000
  H   H396      1.0  0.04875  0.13139  0.75761  1.0000
  H   H397      1.0  0.07178  0.10396  0.77172  1.0000
  H   H398      1.0  0.07617  0.03590  0.71317  1.0000
  S   S51       1.0  0.08936  0.99367  0.80370  1.0000
  H   H399      1.0  0.42862  0.46924  0.74334  1.0000
  H   H400      1.0  0.03903  0.16854  0.79997  1.0000
  H   H401      1.0  0.06639  0.13312  0.82233  1.0000
  C   C230      1.0  0.01867  0.11033  0.79996  1.0000
  H   H402      1.0  0.09049  0.08763  0.80514  1.0000
  C   C231      1.0  0.16449  0.26532  0.68216  1.0000
  H   H403      1.0  0.07284  0.16364  0.76653  1.0000
  H   H404      1.0  0.09443  0.13733  0.78492  1.0000
  H   H405      1.0  0.06252  0.07423  0.82567  1.0000
  H   H406      1.0  0.14691  0.31852  0.68686  1.0000
  H   H407      1.0  0.03289  0.09042  0.76548  1.0000
  H   H408      1.0  0.36802  0.40694  0.67899  1.0000
  C   C232      1.0  0.99978  0.16181  0.82125  1.0000
  C   C233      1.0  0.03502  0.01998  0.65314  1.0000
  H   H409      1.0  0.02761  0.08525  0.87530  1.0000
  N   N14       1.0  0.43059  0.45291  0.65972  1.0000
  H   H410      1.0  0.20463  0.09395  0.67243  1.0000
  H   H411      1.0  0.39218  0.44455  0.68310  1.0000
  H   H412      1.0  0.11897  0.14888  0.74135  1.0000
  H   H413      1.0  0.11570  0.11450  0.74687  1.0000
  H   H414      1.0  0.09310  0.13980  0.72846  1.0000
  S   S52       1.0  0.02813  0.15582  0.65758  1.0000
  C   C234      1.0  0.03369  0.03461  0.72897  1.0000
  S   S53       1.0  0.02783  0.17901  0.72208  1.0000
  H   H415      1.0  0.18525  0.17217  0.66169  1.0000
  H   H416      1.0  0.42115  0.44209  0.71332  1.0000
  C   C235      1.0  0.13856  0.04593  0.77116  1.0000
  S   S54       1.0  0.99512  0.09737  0.65923  1.0000
  H   H417      1.0  0.19535  0.28661  0.68276  1.0000
  Fe  Fe28      1.0  0.04447  0.14954  0.69382  1.0000
  H   H418      1.0  0.06968  0.02430  0.74668  1.0000
  C   C236      1.0  0.41081  0.43440  0.67022  1.0000
  H   H419      1.0  0.15533  0.13564  0.66746  1.0000
  H   H420      1.0  0.09398  0.05109  0.77998  1.0000
  H   H421      1.0  0.04743  0.03823  0.86609  1.0000
  H   H422      1.0  0.14431  0.20694  0.67836  1.0000
  C   C237      1.0  0.43266  0.45819  0.70588  1.0000
  H   H423      1.0  0.21413  0.32172  0.66529  1.0000
  H   H424      1.0  0.06153  0.99203  0.70800  1.0000
  S   S55       1.0  0.14372  0.03522  0.80250  1.0000
  S   S56       1.0  0.08923  0.14261  0.67451  1.0000
  H   H425      1.0  0.23007  0.31721  0.70610  1.0000
  H   H426      1.0  0.11498  0.00481  0.73948  1.0000
  S   S57       1.0  0.04424  0.10579  0.70329  1.0000
  C   C238      1.0  0.46050  0.43697  0.65535  1.0000
  H   H427      1.0  0.14044  0.36450  0.68013  1.0000
  C   C239      1.0  0.11174  0.05263  0.76515  1.0000
  C   C240      1.0  0.00818  0.03197  0.86165  1.0000
  H   H428      1.0  0.00051  0.12267  0.79145  1.0000
  H   H429      1.0  0.19567  0.12667  0.68270  1.0000
  H   H430      1.0  0.07556  0.08738  0.86277  1.0000
  H   H431      1.0  0.22567  0.35337  0.70060  1.0000
  H   H432      1.0  0.42108  0.41649  0.68223  1.0000
  C   C241      1.0  0.02816  0.08483  0.78632  1.0000
  C   C242      1.0  0.42765  0.47163  0.67894  1.0000
  H   H433      1.0  0.16012  0.38225  0.65543  1.0000
  C   C243      1.0  0.10073  0.00380  0.66909  1.0000
  H   H434      1.0  0.11996  0.01591  0.69533  1.0000
  H   H435      1.0  0.15592  0.99155  0.76238  1.0000
  H   H436      1.0  0.09605  0.39548  0.66963  1.0000
  Fe  Fe29      1.0  0.12232  0.00200  0.82095  1.0000
  H   H437      1.0  0.99830  0.20466  0.81765  1.0000
  C   C244      1.0  0.42334  0.47888  0.72459  1.0000
  H   H438      1.0  0.99958  0.13647  0.74579  1.0000
  C   C245      1.0  0.99335  0.17949  0.73742  1.0000
  H   H439      1.0  0.40042  0.48714  0.72693  1.0000
  H   H440      1.0  0.00974  0.10431  0.82006  1.0000
  C   C246      1.0  0.11688  0.99669  0.69132  1.0000
  C   C247      1.0  0.38492  0.40100  0.66285  1.0000
  H   H441      1.0  0.07988  0.01691  0.67460  1.0000
  H   H442      1.0  0.40074  0.38338  0.66952  1.0000
  C   C248      1.0  0.21067  0.11350  0.66951  1.0000
  C   C249      1.0  0.07316  0.99342  0.72272  1.0000
  H   H443      1.0  0.00006  0.06270  0.81216  1.0000
  C   C250      1.0  0.00515  0.06942  0.79160  1.0000
  H   H444      1.0  0.25512  0.09436  0.66490  1.0000
  H   H445      1.0  0.48077  0.45868  0.94998  1.0000
  H   H446      1.0  0.00733  0.15751  0.83956  1.0000
  H   H447      1.0  0.20513  0.35711  0.66133  1.0000
  C   C251      1.0  0.15065  0.36445  0.65989  1.0000
  H   H448      1.0  0.34917  0.93957  0.10451  1.0000
  H   H449      1.0  0.17042  0.74088  0.10162  1.0000
  H   H450      1.0  0.28514  0.63328  0.06431  1.0000
  C   C252      1.0  0.37843  0.52205  0.08059  1.0000
  H   H451      1.0  0.19591  0.69547  0.14027  1.0000
  H   H452      1.0  0.47001  0.70118  0.07383  1.0000
  H   H453      1.0  0.31761  0.63090  0.04219  1.0000
  H   H454      1.0  0.30867  0.53486  0.14562  1.0000
  C   C253      1.0  0.40321  0.93674  0.15363  1.0000
  H   H455      1.0  0.33978  0.51473  0.10235  1.0000
  H   H456      1.0  0.43496  0.68738  0.14184  1.0000
  C   C254      1.0  0.06993  0.50845  0.28328  1.0000
  Fe  Fe30      1.0  0.43230  0.80823  0.08012  1.0000
  S   S58       1.0  0.41982  0.79487  0.04834  1.0000
  S   S59       1.0  0.41305  0.80099  0.12122  1.0000
  Fe  Fe31      1.0  0.42196  0.83605  0.02816  1.0000
  H   H457      1.0  0.34543  0.69487  0.00821  1.0000
  S   S60       1.0  0.43036  0.85048  0.06140  1.0000
  Fe  Fe32      1.0  0.33162  0.67153  0.12028  1.0000
  S   S61       1.0  0.31206  0.68748  0.15715  1.0000
  S   S62       1.0  0.37204  0.64063  0.12007  1.0000
  Fe  Fe33      1.0  0.28017  0.69867  0.09661  1.0000
  S   S63       1.0  0.25701  0.71674  0.13152  1.0000
  S   S64       1.0  0.25405  0.70240  0.06726  1.0000
  Fe  Fe34      1.0  0.29788  0.72595  0.13241  1.0000
  S   S65       1.0  0.29802  0.76641  0.14152  1.0000
  Fe  Fe35      1.0  0.27360  0.67648  0.15199  1.0000
  S   S66       1.0  0.24685  0.65320  0.18131  1.0000
  S   S67       1.0  0.32010  0.71087  0.09558  1.0000
  S   S68       1.0  0.29444  0.65783  0.11688  1.0000
  Fe  Fe36      1.0  0.13748  0.52637  0.18918  1.0000
  Fe  Fe37      1.0  0.11016  0.58582  0.18343  1.0000
  S   S69       1.0  0.12595  0.59104  0.14168  1.0000
  S   S70       1.0  0.08228  0.62150  0.20157  1.0000
  Fe  Fe38      1.0  0.11386  0.55255  0.14162  1.0000
  S   S71       1.0  0.08902  0.54986  0.11293  1.0000
  Fe  Fe39      1.0  0.16607  0.56453  0.15127  1.0000
  C   C255      1.0  0.16285  0.63984  0.21819  1.0000
  S   S72       1.0  0.09478  0.54922  0.18261  1.0000
  S   S73       1.0  0.15159  0.56284  0.19331  1.0000
  H   H458      1.0  0.37619  0.63084  0.03174  1.0000
  C   C256      1.0  0.40705  0.87546  0.16502  1.0000
  H   H459      1.0  0.38671  0.73786  0.03145  1.0000
  C   C257      1.0  0.40917  0.58404  0.07396  1.0000
  C   C258      1.0  0.18131  0.70349  0.12668  1.0000
  H   H460      1.0  0.36663  0.93689  0.07225  1.0000
  H   H461      1.0  0.44623  0.65086  0.10103  1.0000
  C   C259      1.0  0.30401  0.61905  0.05574  1.0000
  H   H462      1.0  0.10417  0.68760  0.19858  1.0000
  C   C260      1.0  0.38305  0.62162  0.04928  1.0000
  C   C261      1.0  0.31629  0.58942  0.13402  1.0000
  H   H463      1.0  0.13039  0.64278  0.19767  1.0000
  C   C262      1.0  0.05127  0.61243  0.21742  1.0000
  C   C263      1.0  0.05208  0.58571  0.22748  1.0000
  C   C264      1.0  0.02760  0.57767  0.23951  1.0000
  C   C265      1.0  0.27229  0.76427  0.01593  1.0000
  H   H464      1.0  0.42179  0.83280  0.15898  1.0000
  C   C266      1.0  0.48294  0.83667  0.11854  1.0000
  H   H465      1.0  0.07175  0.57125  0.22661  1.0000
  H   H466      1.0  0.02852  0.55687  0.24750  1.0000
  H   H467      1.0  0.25067  0.52882  0.15357  1.0000
  H   H468      1.0  0.40003  0.67716  0.17882  1.0000
  C   C267      1.0  0.44109  0.75154  0.99884  1.0000
  H   H469      1.0  0.47971  0.65882  0.06300  1.0000
  C   C268      1.0  0.07070  0.52451  0.12466  1.0000
  C   C269      1.0  0.04776  0.52387  0.11432  1.0000
  C   C270      1.0  0.27496  0.74112  0.03373  1.0000
  Fe  Fe40      1.0  0.46589  0.78440  0.03321  1.0000
  H   H470      1.0  0.42180  0.65930  0.13841  1.0000
  C   C271      1.0  0.11467  0.49612  0.24346  1.0000
  C   C272      1.0  0.23609  0.63080  0.16706  1.0000
  C   C273      1.0  0.23607  0.63526  0.14104  1.0000
  C   C274      1.0  0.22830  0.61706  0.12945  1.0000
  C   C275      1.0  0.21826  0.59553  0.14413  1.0000
  C   C276      1.0  0.21769  0.59117  0.17027  1.0000
  H   H471      1.0  0.24099  0.65329  0.12989  1.0000
  H   H472      1.0  0.22847  0.62063  0.10927  1.0000
  C   C277      1.0  0.38183  0.78993  0.12689  1.0000
  C   C278      1.0  0.37642  0.77507  0.11022  1.0000
  C   C279      1.0  0.35117  0.76669  0.11507  1.0000
  C   C280      1.0  0.33090  0.77407  0.13615  1.0000
  C   C281      1.0  0.33621  0.78922  0.15257  1.0000
  C   C282      1.0  0.36180  0.79665  0.14824  1.0000
  H   H473      1.0  0.39177  0.76991  0.09374  1.0000
  H   H474      1.0  0.34707  0.75518  0.10222  1.0000
  H   H475      1.0  0.32055  0.79502  0.16884  1.0000
  H   H476      1.0  0.36576  0.80807  0.16123  1.0000
  H   H477      1.0  0.28065  0.50151  0.14613  1.0000
  C   C283      1.0  0.11393  0.67916  0.15898  1.0000
  H   H478      1.0  0.29064  0.76987  0.00436  1.0000
  C   C284      1.0  0.08211  0.52872  0.26862  1.0000
  H   H479      1.0  0.22015  0.84937  0.04075  1.0000
  H   H480      1.0  0.38693  0.53858  0.06826  1.0000
  S   S74       1.0  0.14142  0.48896  0.21752  1.0000
  H   H481      1.0  0.06522  0.62219  0.15423  1.0000
  H   H482      1.0  0.41827  0.65707  0.08463  1.0000
  C   C285      1.0  0.16792  0.49871  0.28553  1.0000
  H   H483      1.0  0.44266  0.74510  0.08603  1.0000
  C   C286      1.0  0.07902  0.61558  0.28165  1.0000
  C   C287      1.0  0.45871  0.65754  0.06078  1.0000
  N   N15       1.0  0.41461  0.88976  0.13875  1.0000
  H   H484      1.0  0.43736  0.77246  0.00105  1.0000
  H   H485      1.0  0.44252  0.90733  0.15210  1.0000
  C   C288      1.0  0.25112  0.73332  0.04798  1.0000
  H   H486      1.0  0.04625  0.59930  0.27463  1.0000
  H   H487      1.0  0.15187  0.85937  0.99029  1.0000
  H   H488      1.0  0.03713  0.50091  0.24830  1.0000
  H   H489      1.0  0.20619  0.74341  0.05650  1.0000
  H   H490      1.0  0.46604  0.61404  0.07161  1.0000
  H   H491      1.0  0.25990  0.63814  0.99088  1.0000
  C   C289      1.0  0.40041  0.59802  0.09508  1.0000
  C   C290      1.0  0.38245  0.62353  0.09347  1.0000
  C   C291      1.0  0.37369  0.63535  0.07060  1.0000
  C   C292      1.0  0.29638  0.55135  0.13370  1.0000
  H   H492      1.0  0.35979  0.65509  0.06927  1.0000
  C   C293      1.0  0.07788  0.50586  0.14538  1.0000
  H   H493      1.0  0.25303  0.51067  0.12773  1.0000
  C   C294      1.0  0.39258  0.83538  0.19373  1.0000
  H   H494      1.0  0.15156  0.68577  0.18785  1.0000
  C   C295      1.0  0.31776  0.81664  0.02769  1.0000
  N   N16       1.0  0.31491  0.56919  0.11778  1.0000
  H   H495      1.0  0.22412  0.86827  0.99631  1.0000
  C   C296      1.0  0.38885  0.89817  0.12671  1.0000
  H   H496      1.0  0.14982  0.65573  0.22972  1.0000
  C   C297      1.0  0.39180  0.91521  0.10027  1.0000
  H   H497      1.0  0.07646  0.63327  0.26686  1.0000
  C   C298      1.0  0.46082  0.62920  0.05520  1.0000
  C   C299      1.0  0.32648  0.57784  0.15954  1.0000
  C   C300      1.0  0.24592  0.78074  0.01389  1.0000
  H   H498      1.0  0.37091  0.90936  0.13945  1.0000
  H   H499      1.0  0.38218  0.88017  0.12413  1.0000
  H   H500      1.0  0.29544  0.72900  0.03608  1.0000
  C   C301      1.0  0.34420  0.55321  0.10987  1.0000
  H   H501      1.0  0.40584  0.90283  0.08595  1.0000
  H   H502      1.0  0.16353  0.92835  0.99018  1.0000
  C   C302      1.0  0.32365  0.60036  0.17524  1.0000
  H   H503      1.0  0.30141  0.61100  0.18007  1.0000
  H   H504      1.0  0.37449  0.68102  0.15907  1.0000
  H   H505      1.0  0.42681  0.96769  0.13880  1.0000
  H   H506      1.0  0.14989  0.89929  0.99938  1.0000
  H   H507      1.0  0.01792  0.61620  0.17249  1.0000
  N   N17       1.0  0.30977  0.82663  0.05327  1.0000
  H   H508      1.0  0.28871  0.91910  0.02052  1.0000
  C   C303      1.0  0.28944  0.85357  0.05076  1.0000
  C   C304      1.0  0.33595  0.82887  0.06109  1.0000
  C   C305      1.0  0.29621  0.80756  0.07314  1.0000
  C   C306      1.0  0.26863  0.80321  0.06819  1.0000
  C   C307      1.0  0.33344  0.78683  0.02729  1.0000
  C   C308      1.0  0.33176  0.84138  0.08585  1.0000
  H   H509      1.0  0.43494  0.92242  0.12220  1.0000
  C   C309      1.0  0.24553  0.68748  0.00778  1.0000
  C   C310      1.0  0.25919  0.78014  0.08659  1.0000
  C   C311      1.0  0.05144  0.60575  0.29105  1.0000
  C   C312      1.0  0.35828  0.84918  0.08801  1.0000
  H   H510      1.0  0.39095  0.51369  0.09585  1.0000
  C   C313      1.0  0.41723  0.71126  0.06803  1.0000
  H   H511      1.0  0.27215  0.85209  0.04173  1.0000
  H   H512      1.0  0.07359  0.54932  0.27215  1.0000
  H   H513      1.0  0.34812  0.84034  0.04557  1.0000
  H   H514      1.0  0.35021  0.80875  0.06402  1.0000
  H   H515      1.0  0.31107  0.78772  0.07602  1.0000
  H   H516      1.0  0.29098  0.81496  0.09193  1.0000
  H   H517      1.0  0.27089  0.79861  0.04875  1.0000
  H   H518      1.0  0.25175  0.82160  0.07077  1.0000
  H   H519      1.0  0.35138  0.78204  0.03728  1.0000
  H   H520      1.0  0.31925  0.77336  0.03647  1.0000
  H   H521      1.0  0.32685  0.82657  0.10252  1.0000
  H   H522      1.0  0.31470  0.85971  0.08694  1.0000
  H   H523      1.0  0.09723  0.58840  0.25310  1.0000
  H   H524      1.0  0.37211  0.84779  0.20178  1.0000
  H   H525      1.0  0.46132  0.85201  0.15302  1.0000
  C   C314      1.0  0.40223  0.84687  0.16642  1.0000
  C   C315      1.0  0.45951  0.93883  0.07339  1.0000
  H   H526      1.0  0.23920  0.77778  0.08285  1.0000
  H   H527      1.0  0.27499  0.76100  0.08413  1.0000
  H   H528      1.0  0.25595  0.78421  0.10646  1.0000
  C   C316      1.0  0.40739  0.69626  0.11334  1.0000
  H   H529      1.0  0.42908  0.85494  0.11855  1.0000
  H   H530      1.0  0.39268  0.92915  0.17252  1.0000
  H   H531      1.0  0.37644  0.83185  0.08570  1.0000
  H   H532      1.0  0.36240  0.86598  0.07311  1.0000
  H   H533      1.0  0.35599  0.85546  0.10691  1.0000
  N   N18       1.0  0.14508  0.67666  0.15257  1.0000
  C   C317      1.0  0.15065  0.70350  0.13970  1.0000
  C   C318      1.0  0.15820  0.66902  0.17603  1.0000
  C   C319      1.0  0.15763  0.65510  0.13554  1.0000
  C   C320      1.0  0.14742  0.66021  0.10984  1.0000
  C   C321      1.0  0.15280  0.64294  0.19309  1.0000
  C   C322      1.0  0.16516  0.63977  0.09237  1.0000
  H   H534      1.0  0.13711  0.71247  0.12527  1.0000
  H   H535      1.0  0.18064  0.65159  0.13186  1.0000
  H   H536      1.0  0.15322  0.63549  0.14510  1.0000
  H   H537      1.0  0.14851  0.68048  0.09972  1.0000
  H   H538      1.0  0.12546  0.65823  0.11297  1.0000
  H   H539      1.0  0.18808  0.69119  0.11079  1.0000
  H   H540      1.0  0.16412  0.62505  0.18354  1.0000
  H   H541      1.0  0.10218  0.71722  0.17557  1.0000
  H   H542      1.0  0.15673  0.64306  0.07457  1.0000
  H   H543      1.0  0.18710  0.64196  0.08755  1.0000
  H   H544      1.0  0.16488  0.61893  0.10153  1.0000
  H   H545      1.0  0.20627  0.73130  0.10578  1.0000
  H   H546      1.0  0.40742  0.58898  0.11272  1.0000
  C   C323      1.0  0.03004  0.60440  0.15713  1.0000
  H   H547      1.0  0.25486  0.67935  0.02505  1.0000
  H   H548      1.0  0.29413  0.52771  0.10428  1.0000
  H   H549      1.0  0.45166  0.94615  0.21732  1.0000
  H   H550      1.0  0.27969  0.56301  0.14726  1.0000
  C   C324      1.0  0.22209  0.77350  0.02890  1.0000
  H   H551      1.0  0.34885  0.56731  0.15618  1.0000
  C   C325      1.0  0.34768  0.53234  0.09173  1.0000
  H   H552      1.0  0.33590  0.61511  0.16467  1.0000
  H   H553      1.0  0.45364  0.67632  0.99154  1.0000
  C   C326      1.0  0.32007  0.60232  0.07619  1.0000
  H   H554      1.0  0.99751  0.61069  0.28892  1.0000
  H   H555      1.0  0.20930  0.67930  0.05346  1.0000
  H   H556      1.0  0.39870  0.71784  0.11562  1.0000
  C   C327      1.0  0.28031  0.53847  0.11973  1.0000
  S   S75       1.0  0.24258  0.81113  0.99373  1.0000
  H   H557      1.0  0.28374  0.64264  0.00828  1.0000
  H   H558      1.0  0.33139  0.82872  0.01438  1.0000
  H   H559      1.0  0.42299  0.56425  0.07529  1.0000
  H   H560      1.0  0.29526  0.60302  0.13853  1.0000
  H   H561      1.0  0.27899  0.85962  0.06969  1.0000
  H   H562      1.0  0.39017  0.81461  0.19421  1.0000
  H   H563      1.0  0.11356  0.53843  0.23727  1.0000
  H   H564      1.0  0.33065  0.60241  0.12383  1.0000
  H   H565      1.0  0.29772  0.57138  0.08383  1.0000
  H   H566      1.0  0.31421  0.56364  0.17118  1.0000
  H   H567      1.0  0.33654  0.54079  0.07563  1.0000
  C   C328      1.0  0.44904  0.92826  0.05659  1.0000
  H   H568      1.0  0.29773  0.60581  0.04522  1.0000
  H   H569      1.0  0.10901  0.65898  0.16444  1.0000
  H   H570      1.0  0.29914  0.81962  0.01867  1.0000
  H   H571      1.0  0.29707  0.68843  0.01964  1.0000
  H   H572      1.0  0.28159  0.59800  0.10200  1.0000
  H   H573      1.0  0.00659  0.49213  0.24303  1.0000
  C   C329      1.0  0.18443  0.73195  0.11562  1.0000
  C   C330      1.0  0.30222  0.58481  0.09529  1.0000
  C   C331      1.0  0.10251  0.59366  0.27005  1.0000
  S   S76       1.0  0.41205  0.57802  0.02471  1.0000
  H   H574      1.0  0.36185  0.73806  0.06055  1.0000
  H   H575      1.0  0.22707  0.60499  0.20183  1.0000
  C   C332      1.0  0.40064  0.59585  0.05096  1.0000
  C   C333      1.0  0.10448  0.52259  0.24875  1.0000
  H   H576      1.0  0.18128  0.66597  0.17085  1.0000
  H   H577      1.0  0.35296  0.54171  0.12668  1.0000
  C   C334      1.0  0.27697  0.64852  0.98956  1.0000
  H   H578      1.0  0.05556  0.71208  0.19887  1.0000
  S   S77       1.0  0.46701  0.82445  0.00977  1.0000
  H   H579      1.0  0.38189  0.69118  0.07384  1.0000
  C   C335      1.0  0.34492  0.78065  0.00015  1.0000
  H   H580      1.0  0.19468  0.86716  0.06427  1.0000
  H   H581      1.0  0.17896  0.68127  0.04009  1.0000
  H   H582      1.0  0.17964  0.74493  0.13088  1.0000
  H   H583      1.0  0.45580  0.89602  0.03432  1.0000
  H   H584      1.0  0.16667  0.50068  0.26517  1.0000
  H   H585      1.0  0.19373  0.71026  0.03553  1.0000
  H   H586      1.0  0.10432  0.68778  0.14188  1.0000
  H   H587      1.0  0.35235  0.75861  0.99979  1.0000
  H   H588      1.0  0.32191  0.60385  0.99525  1.0000
  C   C336      1.0  0.09797  0.69682  0.18008  1.0000
  H   H589      1.0  0.38711  0.94633  0.14170  1.0000
  H   H590      1.0  0.06533  0.60768  0.12656  1.0000
  S   S78       1.0  0.15539  0.52613  0.14779  1.0000
  C   C337      1.0  0.46362  0.90384  0.04777  1.0000
  H   H591      1.0  0.38052  0.50599  0.06884  1.0000
  H   H592      1.0  0.01315  0.50529  0.11784  1.0000
  C   C338      1.0  0.43713  0.66407  0.08508  1.0000
  H   H593      1.0  0.47676  0.87569  0.12993  1.0000
  H   H594      1.0  0.16114  0.61991  0.22899  1.0000
  H   H595      1.0  0.03708  0.66398  0.28680  1.0000
  H   H596      1.0  0.43586  0.73127  0.11882  1.0000
  C   C339      1.0  0.22465  0.74939  0.04542  1.0000
  H   H597      1.0  0.26410  0.55429  0.11134  1.0000
  C   C340      1.0  0.36361  0.92568  0.09161  1.0000
  H   H598      1.0  0.32889  0.78853  0.98788  1.0000
  H   H599      1.0  0.18499  0.64128  0.21493  1.0000
  H   H600      1.0  0.35830  0.56701  0.10118  1.0000
  H   H601      1.0  0.47736  0.62457  0.03845  1.0000
  C   C341      1.0  0.41662  0.95872  0.15727  1.0000
  H   H602      1.0  0.21025  0.57430  0.18165  1.0000
  H   H603      1.0  0.17444  0.86952  0.02674  1.0000
  H   H604      1.0  0.47410  0.98479  0.03656  1.0000
  C   C342      1.0  0.39304  0.68781  0.16097  1.0000
  C   C343      1.0  0.46965  0.70630  0.00265  1.0000
  S   S79       1.0  0.44119  0.96927  0.08437  1.0000
  H   H605      1.0  0.26418  0.89936  0.02035  1.0000
  H   H606      1.0  0.15195  0.52442  0.31549  1.0000
  C   C344      1.0  0.01148  0.59941  0.13990  1.0000
  H   H607      1.0  0.14477  0.71820  0.15362  1.0000
  C   C345      1.0  0.20672  0.88644  0.99860  1.0000
  C   C346      1.0  0.30184  0.87700  0.03482  1.0000
  N   N19       1.0  0.02664  0.62578  0.30307  1.0000
  H   H608      1.0  0.33161  0.59181  0.19314  1.0000
  H   H609      1.0  0.38902  0.68911  0.11172  1.0000
  C   C347      1.0  0.02298  0.65145  0.28470  1.0000
  H   H610      1.0  0.42985  0.93914  0.05012  1.0000
  H   H611      1.0  0.05879  0.71027  0.16561  1.0000
  C   C348      1.0  0.39483  0.70180  0.05844  1.0000
  C   C349      1.0  0.22708  0.60857  0.18168  1.0000
  H   H612      1.0  0.47424  0.75332  0.11166  1.0000
  H   H613      1.0  0.10623  0.57538  0.28405  1.0000
  H   H614      1.0  0.22212  0.88244  0.04568  1.0000
  H   H615      1.0  0.06110  0.67998  0.18810  1.0000
  H   H616      1.0  0.99761  0.53144  0.17182  1.0000
  Fe  Fe41      1.0  0.47533  0.83579  0.04471  1.0000
  H   H617      1.0  0.33935  0.58947  0.06659  1.0000
  H   H618      1.0  0.20165  0.78627  0.02739  1.0000
  H   H619      1.0  0.40038  0.97497  0.16615  1.0000
  H   H620      1.0  0.40513  0.68769  0.04428  1.0000
  H   H621      1.0  0.32216  0.72300  0.99352  1.0000
  S   S80       1.0  0.47826  0.79477  0.06665  1.0000
  H   H622      1.0  0.32613  0.61654  0.08552  1.0000
  N   N20       1.0  0.42934  0.69309  0.08970  1.0000
  C   C350      1.0  0.06645  0.69994  0.18327  1.0000
  H   H623      1.0  0.40795  0.73180  0.07336  1.0000
  C   C351      1.0  0.00135  0.61396  0.30737  1.0000
  S   S81       1.0  0.04008  0.51745  0.30598  1.0000
  C   C352      1.0  0.18912  0.88242  0.02553  1.0000
  H   H624      1.0  0.17663  0.90223  0.03098  1.0000
  C   C353      1.0  0.43709  0.87165  0.12241  1.0000
  H   H625      1.0  0.12776  0.52665  0.29461  1.0000
  S   S82       1.0  0.20582  0.57495  0.12936  1.0000
  H   H626      1.0  0.43383  0.71436  0.05148  1.0000
  C   C354      1.0  0.37495  0.72537  0.04608  1.0000
  H   H627      1.0  0.10410  0.91974  0.98657  1.0000
  H   H628      1.0  0.43237  0.95051  0.16975  1.0000
  H   H629      1.0  0.36114  0.71783  0.03711  1.0000
  C   C355      1.0  0.42523  0.91372  0.14102  1.0000
  C   C356      1.0  0.20778  0.86958  0.04521  1.0000
  H   H630      1.0  0.38701  0.70977  0.16218  1.0000
  C   C357      1.0  0.45528  0.70097  0.09228  1.0000
  C   C358      1.0  0.15003  0.52456  0.29555  1.0000
  C   C359      1.0  0.05184  0.61938  0.14169  1.0000
  H   H631      1.0  0.45294  0.67157  0.04405  1.0000
  C   C360      1.0  0.46469  0.73335  0.00595  1.0000
  H   H632      1.0  0.08604  0.62109  0.29753  1.0000
  H   H633      1.0  0.38760  0.88746  0.17536  1.0000
  H   H634      1.0  0.46688  0.68562  0.10558  1.0000
  C   C361      1.0  0.45074  0.72902  0.10072  1.0000
  H   H635      1.0  0.44301  0.88272  0.10341  1.0000
  H   H636      1.0  0.40021  0.93290  0.10026  1.0000
  C   C362      1.0  0.26535  0.51862  0.13800  1.0000
  H   H637      1.0  0.38612  0.84713  0.15532  1.0000
  H   H638      1.0  0.24077  0.70971  0.00727  1.0000
  H   H639      1.0  0.35410  0.90880  0.09108  1.0000
  H   H640      1.0  0.42322  0.87387  0.17662  1.0000
  C   C363      1.0  0.47817  0.73356  0.10477  1.0000
  H   H641      1.0  0.12207  0.60096  0.26404  1.0000
  C   C364      1.0  0.41658  0.68140  0.13849  1.0000
  C   C365      1.0  0.02576  0.63149  0.21992  1.0000
  C   C366      1.0  0.46480  0.85985  0.13264  1.0000
  H   H642      1.0  0.40822  0.83453  0.20562  1.0000
  H   H643      1.0  0.48795  0.69216  0.00817  1.0000
  H   H644      1.0  0.47238  0.81969  0.12196  1.0000
  H   H645      1.0  0.09580  0.50599  0.15323  1.0000
  H   H646      1.0  0.31720  0.88176  0.04415  1.0000
  H   H647      1.0  0.26758  0.90866  0.04991  1.0000
  S   S83       1.0  0.38737  0.86166  0.00867  1.0000
  H   H648      1.0  0.04237  0.53816  0.09815  1.0000
  C   C367      1.0  0.42226  0.74273  0.98873  1.0000
  H   H649      1.0  0.44076  0.62777  0.05082  1.0000
  C   C368      1.0  0.27904  0.90255  0.03128  1.0000
  C   C369      1.0  0.30898  0.68495  0.00050  1.0000
  S   S84       1.0  0.48701  0.74413  0.02032  1.0000
  C   C370      1.0  0.19878  0.68799  0.03693  1.0000
  H   H650      1.0  0.15710  0.54217  0.28386  1.0000
  H   H651      1.0  0.02553  0.58425  0.12787  1.0000
  H   H652      1.0  0.18981  0.49740  0.28714  1.0000
  H   H653      1.0  0.02946  0.64670  0.26484  1.0000
  H   H654      1.0  0.47445  0.93862  0.18768  1.0000
  H   H655      1.0  0.04159  0.63950  0.13304  1.0000
  C   C371      1.0  0.03120  0.50539  0.12550  1.0000
  H   H656      1.0  0.02693  0.54688  0.16208  1.0000
  H   H657      1.0  0.18326  0.83952  0.00146  1.0000
  H   H658      1.0  0.02865  0.51242  0.20097  1.0000
  Fe  Fe42      1.0  0.41438  0.60570  0.98814  1.0000
  C   C372      1.0  0.48433  0.92482  0.08168  1.0000
  C   C373      1.0  0.00817  0.54567  0.17673  1.0000
  C   C374      1.0  0.48847  0.88985  0.05602  1.0000
  C   C375      1.0  0.21744  0.67873  0.01256  1.0000
  H   H659      1.0  0.46943  0.96477  0.01443  1.0000
  C   C376      1.0  0.33151  0.70114  0.99391  1.0000
  H   H660      1.0  0.21702  0.90292  0.99905  1.0000
  H   H661      1.0  0.31252  0.87186  0.01575  1.0000
  H   H662      1.0  0.48720  0.71775  0.11922  1.0000
  H   H663      1.0  0.46882  0.98619  0.30554  1.0000
  H   H664      1.0  0.31976  0.66343  0.00133  1.0000
  H   H665      1.0  0.20572  0.68762  0.99687  1.0000
  H   H666      1.0  0.46789  0.91172  0.21235  1.0000
  H   H667      1.0  0.03305  0.54455  0.20478  1.0000
  H   H668      1.0  0.04131  0.58496  0.16616  1.0000
  H   H669      1.0  0.00563  0.70799  0.27523  1.0000
  H   H670      1.0  0.22091  0.65655  0.01454  1.0000
  C   C377      1.0  0.45027  0.69732  0.99319  1.0000
  H   H671      1.0  0.02503  0.65228  0.21225  1.0000
  H   H672      1.0  0.47995  0.95174  0.29908  1.0000
  H   H673      1.0  0.47280  0.98209  0.25990  1.0000
  C   C378      1.0  0.01788  0.53387  0.20174  1.0000
  C   C379      1.0  0.47904  0.98107  0.01651  1.0000
  H   H674      1.0  0.36274  0.79016  0.99216  1.0000
  H   H675      1.0  0.05650  0.58708  0.30441  1.0000
  H   H676      1.0  0.99989  0.53547  0.21771  1.0000
  C   C380      1.0  0.00202  0.59631  0.24130  1.0000
  C   C381      1.0  0.00104  0.62340  0.23191  1.0000
  H   H677      1.0  0.00636  0.61801  0.12644  1.0000
  H   H678      1.0  0.00430  0.69230  0.24843  1.0000
  H   H679      1.0  0.99393  0.58425  0.19112  1.0000
  C   C382      1.0  0.47092  0.93259  0.20850  1.0000
  H   H680      1.0  0.48056  0.97676  0.22011  1.0000
  H   H681      1.0  0.99620  0.55625  0.13206  1.0000
  C   C383      1.0  0.42645  0.71558  0.98639  1.0000
  S   S85       1.0  0.49064  0.97007  0.13152  1.0000
  H   H682      1.0  0.48709  0.84334  0.09791  1.0000
  H   H683      1.0  0.49218  0.92677  0.23980  1.0000
  H   H684      1.0  0.49235  0.93277  0.09487  1.0000
  C   C384      1.0  0.99413  0.69615  0.26805  1.0000
  C   C385      1.0  0.49175  0.98120  0.26752  1.0000
  C   C386      1.0  0.48608  0.97129  0.29584  1.0000
  C   C387      1.0  0.99320  0.66968  0.28540  1.0000
  H   H685      1.0  0.99385  0.55501  0.08822  1.0000
  H   H686      1.0  0.01914  0.57090  0.31590  1.0000
  H   H687      1.0  0.42241  0.61842  0.63412  1.0000
  H   H688      1.0  0.02478  0.95365  0.62779  1.0000
  H   H689      1.0  0.47386  0.59354  0.59668  1.0000
  C   C388      1.0  0.45127  0.60020  0.60387  1.0000
  C   C389      1.0  0.01724  0.64516  0.37114  1.0000
  C   C390      1.0  0.44493  0.60791  0.63120  1.0000
  H   H690      1.0  0.41459  0.58349  0.60920  1.0000
  H   H691      1.0  0.25564  0.50990  0.47345  1.0000
  H   H692      1.0  0.07893  0.52066  0.35278  1.0000
  H   H693      1.0  0.04174  0.61087  0.33834  1.0000
  H   H694      1.0  0.02451  0.91380  0.64636  1.0000
  H   H695      1.0  0.00790  0.58826  0.34349  1.0000
  N   N21       1.0  0.46249  0.62508  0.63687  1.0000
  H   H696      1.0  0.03655  0.55498  0.45936  1.0000
  H   H697      1.0  0.04510  0.54168  0.34877  1.0000
  H   H698      1.0  0.04204  0.56687  0.42632  1.0000
  H   H699      1.0  0.44141  0.57350  0.58262  1.0000
  H   H700      1.0  0.05994  0.98157  0.61235  1.0000
  H   H701      1.0  0.44623  0.58909  0.64489  1.0000
  H   H702      1.0  0.44656  0.55905  0.61428  1.0000
  C   C391      1.0  0.00267  0.91263  0.64714  1.0000
  H   H703      1.0  0.04988  0.64163  0.32361  1.0000
  C   C392      1.0  0.02359  0.48908  0.43550  1.0000
  C   C393      1.0  0.47085  0.64363  0.61336  1.0000
  H   H704      1.0  0.45216  0.65375  0.60455  1.0000
  C   C394      1.0  0.43261  0.50562  0.59869  1.0000
  H   H705      1.0  0.01544  0.86975  0.64363  1.0000
  H   H706      1.0  0.46879  0.68076  0.62907  1.0000
  C   C395      1.0  0.43749  0.57769  0.60253  1.0000
  C   C396      1.0  0.00297  0.58689  0.32498  1.0000
  H   H707      1.0  0.47803  0.57941  0.52431  1.0000
  H   H708      1.0  0.07389  0.55671  0.34769  1.0000
  H   H709      1.0  0.41040  0.50994  0.59654  1.0000
  C   C397      1.0  0.01489  0.53739  0.43809  1.0000
  H   H710      1.0  0.47018  0.53879  0.65140  1.0000
  H   H711      1.0  0.02335  0.62405  0.38004  1.0000
  C   C398      1.0  0.48755  0.60773  0.64741  1.0000
  H   H712      1.0  0.03547  0.94429  0.59682  1.0000
  H   H713      1.0  0.03486  0.65511  0.36871  1.0000
  H   H714      1.0  0.04159  0.56072  0.38817  1.0000
  C   C399      1.0  0.00872  0.64622  0.34562  1.0000
  H   H715      1.0  0.06344  0.97942  0.57903  1.0000
  C   C400      1.0  0.03305  0.63043  0.32752  1.0000
  H   H716      1.0  0.07535  0.53925  0.39266  1.0000
  H   H717      1.0  0.44297  0.61784  0.59059  1.0000
  H   H718      1.0  0.47308  0.69391  0.58342  1.0000
  C   C401      1.0  0.04097  0.51820  0.39866  1.0000
  C   C402      1.0  0.06394  0.53987  0.35697  1.0000
  H   H719      1.0  0.00346  0.94438  0.57099  1.0000
  H   H720      1.0  0.01264  0.82652  0.46401  1.0000
  C   C403      1.0  0.05593  0.54085  0.38551  1.0000
  H   H721      1.0  0.42560  0.51094  0.63784  1.0000
  H   H722      1.0  0.44009  0.52443  0.59302  1.0000
  C   C404      1.0  0.02635  0.56100  0.44239  1.0000
  C   C405      1.0  0.01874  0.95760  0.60888  1.0000
  C   C406      1.0  0.43598  0.49453  0.62600  1.0000
  H   H723      1.0  0.00326  0.66768  0.33758  1.0000
  H   H724      1.0  0.00946  0.90866  0.60715  1.0000
  C   C407      1.0  0.49196  0.68305  0.59153  1.0000
  C   C408      1.0  0.48381  0.66647  0.61691  1.0000
  H   H725      1.0  0.48598  0.63215  0.59889  1.0000
  H   H726      1.0  0.44549  0.49114  0.58568  1.0000
  H   H727      1.0  0.42817  0.65773  0.64852  1.0000
  H   H728      1.0  0.37188  0.49482  0.51500  1.0000
  H   H729      1.0  0.02090  0.52317  0.39163  1.0000
  H   H730      1.0  0.07199  0.52569  0.43331  1.0000
  H   H731      1.0  0.01147  0.60213  0.45098  1.0000
  H   H732      1.0  0.45844  0.48943  0.62685  1.0000
  H   H733      1.0  0.00376  0.53070  0.45720  1.0000
  H   H734      1.0  0.99552  0.87105  0.47953  1.0000
  H   H735      1.0  0.99625  0.86448  0.38799  1.0000
  H   H736      1.0  0.99937  0.65583  0.38417  1.0000
  C   C409      1.0  0.06241  0.50808  0.43774  1.0000
  N   N22       1.0  0.03579  0.51370  0.42724  1.0000
  C   C410      1.0  0.26202  0.48760  0.47608  1.0000
  C   C411      1.0  0.00284  0.58594  0.44705  1.0000
  H   H737      1.0  0.99841  0.54563  0.42616  1.0000
  H   H738      1.0  0.12020  0.49839  0.43536  1.0000
  H   H739      1.0  0.05298  0.49928  0.39089  1.0000
  H   H740      1.0  0.05764  0.50438  0.45882  1.0000
  C   C412      1.0  0.02048  0.98713  0.59940  1.0000
  C   C413      1.0  0.99402  0.92137  0.62065  1.0000
  H   H741      1.0  0.09236  0.48773  0.40763  1.0000
  Fe  Fe43      1.0  0.38911  0.62814  0.94084  1.0000
  S   S86       1.0  0.35763  0.62747  0.91779  1.0000
  S   S87       1.0  0.44613  0.57616  0.81977  1.0000
  S   S88       1.0  0.28143  0.74251  0.89312  1.0000
  S   S89       1.0  0.44937  0.60086  0.74927  1.0000
  C   C414      1.0  0.14465  0.91857  0.96195  1.0000
  S   S90       1.0  0.45614  0.55412  0.70118  1.0000
  H   H742      1.0  0.30281  0.69061  0.96169  1.0000
  S   S91       1.0  0.40127  0.70542  0.97513  1.0000
  S   S92       1.0  0.13419  0.92920  0.89725  1.0000
  Fe  Fe44      1.0  0.11195  0.95064  0.81090  1.0000
  H   H743      1.0  0.07744  0.90657  0.69573  1.0000
  S   S93       1.0  0.11899  0.91938  0.78529  1.0000
  C   C415      1.0  0.05383  0.88592  0.78984  1.0000
  H   H744      1.0  0.45942  0.50431  0.93879  1.0000
  H   H745      1.0  0.25361  0.93300  0.93749  1.0000
  S   S94       1.0  0.47660  0.66515  0.72100  1.0000
  H   H746      1.0  0.41892  0.66276  0.70112  1.0000
  S   S95       1.0  0.08694  0.94349  0.84941  1.0000
  C   C416      1.0  0.08591  0.91494  0.78473  1.0000
  C   C417      1.0  0.08089  0.88913  0.78875  1.0000
  C   C418      1.0  0.03763  0.93411  0.78043  1.0000
  C   C419      1.0  0.06415  0.93739  0.78112  1.0000
  H   H747      1.0  0.09762  0.87173  0.79186  1.0000
  H   H748      1.0  0.36771  0.60976  0.86805  1.0000
  H   H749      1.0  0.06776  0.95732  0.77892  1.0000
  C   C420      1.0  0.16263  0.97173  0.75525  1.0000
  H   H750      1.0  0.09841  0.90048  0.71999  1.0000
  C   C421      1.0  0.47770  0.60071  0.88245  1.0000
  C   C422      1.0  0.43114  0.62732  0.68153  1.0000
  H   H751      1.0  0.38605  0.75350  0.88832  1.0000
  H   H752      1.0  0.21462  0.85468  0.90538  1.0000
  N   N23       1.0  0.26631  0.67859  0.98478  1.0000
  H   H753      1.0  0.43531  0.72330  0.93262  1.0000
  S   S96       1.0  0.42168  0.59128  0.95044  1.0000
  H   H754      1.0  0.47933  0.70492  0.87074  1.0000
  C   C423      1.0  0.16962  0.91379  0.89041  1.0000
  C   C424      1.0  0.36555  0.61425  0.84782  1.0000
  C   C425      1.0  0.22663  0.88894  0.88154  1.0000
  C   C426      1.0  0.21711  0.91520  0.87025  1.0000
  C   C427      1.0  0.18860  0.92769  0.87476  1.0000
  H   H755      1.0  0.23188  0.92606  0.85838  1.0000
  H   H756      1.0  0.48627  0.71261  0.94956  1.0000
  H   H757      1.0  0.41883  0.59155  0.86771  1.0000
  C   C428      1.0  0.19135  0.86723  0.96691  1.0000
  H   H758      1.0  0.40252  0.71809  0.89334  1.0000
  H   H759      1.0  0.34435  0.69758  0.97502  1.0000
  C   C429      1.0  0.33741  0.65976  0.91048  1.0000
  C   C430      1.0  0.31579  0.66306  0.89707  1.0000
  C   C431      1.0  0.29900  0.68865  0.89149  1.0000
  C   C432      1.0  0.30352  0.71097  0.89962  1.0000
  C   C433      1.0  0.32521  0.70774  0.91298  1.0000
  C   C434      1.0  0.34221  0.68211  0.91837  1.0000
  H   H760      1.0  0.31197  0.64577  0.89106  1.0000
  H   H761      1.0  0.28226  0.69109  0.88113  1.0000
  H   H762      1.0  0.32892  0.72490  0.91924  1.0000
  H   H763      1.0  0.35866  0.67968  0.92903  1.0000
  H   H764      1.0  0.38927  0.73732  0.91982  1.0000
  H   H765      1.0  0.12888  0.94515  0.69979  1.0000
  H   H766      1.0  0.27475  0.90582  0.92044  1.0000
  C   C435      1.0  0.25297  0.91615  0.92779  1.0000
  H   H767      1.0  0.47818  0.67381  0.84475  1.0000
  C   C436      1.0  0.44989  0.65738  0.83039  1.0000
  H   H768      1.0  0.41524  0.53793  0.93751  1.0000
  C   C437      1.0  0.25315  0.68529  0.96142  1.0000
  H   H769      1.0  0.18578  0.96642  0.75068  1.0000
  H   H770      1.0  0.06629  0.94544  0.71870  1.0000
  N   N24       1.0  0.47490  0.73098  0.91317  1.0000
  C   C438      1.0  0.00135  0.88344  0.65688  1.0000
  H   H771      1.0  0.45774  0.54884  0.90796  1.0000
  S   S97       1.0  0.41847  0.65524  0.92615  1.0000
  H   H772      1.0  0.20546  0.70949  0.93884  1.0000
  H   H773      1.0  0.42314  0.68719  0.85229  1.0000
  H   H774      1.0  0.04219  0.90202  0.86927  1.0000
  C   C439      1.0  0.09453  0.91259  0.70161  1.0000
  C   C440      1.0  0.00516  0.92716  0.85602  1.0000
  S   S98       1.0  0.99825  0.90432  0.78789  1.0000
  C   C441      1.0  0.42469  0.68195  0.83296  1.0000
  H   H775      1.0  0.25556  0.72736  0.94860  1.0000
  H   H776      1.0  0.26915  0.67957  0.94455  1.0000
  H   H777      1.0  0.40899  0.52168  0.91320  1.0000
  H   H778      1.0  0.38285  0.60063  0.83668  1.0000
  C   C442      1.0  0.37816  0.82031  0.94503  1.0000
  C   C443      1.0  0.39979  0.73795  0.89965  1.0000
  H   H779      1.0  0.29362  0.63709  0.95130  1.0000
  H   H780      1.0  0.41906  0.65799  0.74525  1.0000
  C   C444      1.0  0.41852  0.53739  0.91680  1.0000
  H   H781      1.0  0.43477  0.66786  0.78082  1.0000
  C   C445      1.0  0.42789  0.74544  0.89634  1.0000
  H   H782      1.0  0.38295  0.66834  0.75954  1.0000
  H   H783      1.0  0.44712  0.61662  0.69328  1.0000
  H   H784      1.0  0.16415  0.87639  0.91260  1.0000
  H   H785      1.0  0.45150  0.53175  0.88482  1.0000
  C   C446      1.0  0.44962  0.60052  0.88454  1.0000
  H   H786      1.0  0.47933  0.49402  0.86664  1.0000
  H   H787      1.0  0.11363  0.90827  0.68701  1.0000
  C   C447      1.0  0.03221  0.90841  0.78549  1.0000
  N   N25       1.0  0.19147  0.89276  0.97638  1.0000
  S   S99       1.0  0.37856  0.63973  0.97984  1.0000
  C   C448      1.0  0.11835  0.98357  0.73628  1.0000
  H   H788      1.0  0.23730  0.71085  0.91618  1.0000
  C   C449      1.0  0.41304  0.66532  0.78396  1.0000
  N   N26       1.0  0.39684  0.67831  0.82964  1.0000
  C   C450      1.0  0.39326  0.65031  0.84066  1.0000
  H   H789      1.0  0.10296  0.93967  0.95603  1.0000
  C   C451      1.0  0.37402  0.69788  0.84440  1.0000
  C   C452      1.0  0.39375  0.68484  0.80216  1.0000
  C   C453      1.0  0.49179  0.70872  0.92945  1.0000
  C   C454      1.0  0.36583  0.64363  0.83789  1.0000
  C   C455      1.0  0.37583  0.72787  0.83827  1.0000
  S   S100      1.0  0.31285  0.80469  0.88780  1.0000
  Fe  Fe45      1.0  0.41165  0.66318  0.96625  1.0000
  H   H790      1.0  0.22440  0.72390  0.97096  1.0000
  C   C456      1.0  0.35083  0.74591  0.85299  1.0000
  H   H791      1.0  0.39459  0.64665  0.86121  1.0000
  H   H792      1.0  0.41045  0.63469  0.83199  1.0000
  H   H793      1.0  0.11162  0.93938  0.73139  1.0000
  C   C457      1.0  0.10895  0.95192  0.71284  1.0000
  H   H794      1.0  0.37365  0.69198  0.86516  1.0000
  H   H795      1.0  0.35311  0.69729  0.84124  1.0000
  H   H796      1.0  0.37171  0.68679  0.80031  1.0000
  H   H797      1.0  0.39813  0.70483  0.79415  1.0000
  H   H798      1.0  0.41270  0.64402  0.79105  1.0000
  Fe  Fe46      1.0  0.28821  0.77568  0.91070  1.0000
  H   H799      1.0  0.34741  0.65618  0.84876  1.0000
  H   H800      1.0  0.36338  0.64682  0.81778  1.0000
  H   H801      1.0  0.37588  0.73533  0.81795  1.0000
  H   H802      1.0  0.39499  0.73071  0.84333  1.0000
  H   H803      1.0  0.02370  0.88436  0.85560  1.0000
  Fe  Fe47      1.0  0.27017  0.80673  0.95577  1.0000
  H   H804      1.0  0.15646  0.95187  0.72644  1.0000
  H   H805      1.0  0.45785  0.65346  0.66319  1.0000
  C   C458      1.0  0.35822  0.84320  0.95223  1.0000
  C   C459      1.0  0.46570  0.50475  0.91787  1.0000
  S   S101      1.0  0.44723  0.62977  0.97661  1.0000
  H   H806      1.0  0.33099  0.74442  0.84816  1.0000
  H   H807      1.0  0.35008  0.74025  0.87365  1.0000
  H   H808      1.0  0.35260  0.76717  0.84817  1.0000
  N   N27       1.0  0.18350  0.85978  0.82294  1.0000
  C   C460      1.0  0.19161  0.84741  0.79855  1.0000
  C   C461      1.0  0.19908  0.84199  0.84299  1.0000
  C   C462      1.0  0.15267  0.86138  0.83219  1.0000
  C   C463      1.0  0.18814  0.88790  0.81917  1.0000
  C   C464      1.0  0.21820  0.89111  0.80792  1.0000
  C   C465      1.0  0.17679  0.86312  0.77636  1.0000
  C   C466      1.0  0.14007  0.87226  0.85796  1.0000
  C   C467      1.0  0.22909  0.82557  0.83399  1.0000
  C   C468      1.0  0.24341  0.81162  0.85640  1.0000
  C   C469      1.0  0.21900  0.92077  0.80089  1.0000
  C   C470      1.0  0.18893  0.85006  0.75214  1.0000
  C   C471      1.0  0.10967  0.87018  0.86644  1.0000
  H   H809      1.0  0.18754  0.82683  0.80220  1.0000
  H   H810      1.0  0.21433  0.84449  0.79123  1.0000
  H   H811      1.0  0.20027  0.85409  0.85744  1.0000
  H   H812      1.0  0.18745  0.82666  0.85361  1.0000
  H   H813      1.0  0.14813  0.84121  0.83354  1.0000
  H   H814      1.0  0.14018  0.87484  0.81854  1.0000
  H   H815      1.0  0.17350  0.90183  0.80744  1.0000
  H   H816      1.0  0.18285  0.89610  0.83755  1.0000
  H   H817      1.0  0.22696  0.88140  0.79052  1.0000
  H   H818      1.0  0.23189  0.88241  0.82223  1.0000
  H   H819      1.0  0.15422  0.86322  0.78073  1.0000
  H   H820      1.0  0.17923  0.88416  0.77217  1.0000
  H   H821      1.0  0.14024  0.89383  0.85626  1.0000
  H   H822      1.0  0.15174  0.86102  0.87310  1.0000
  H   H823      1.0  0.22825  0.80961  0.82323  1.0000
  H   H824      1.0  0.24244  0.83837  0.82167  1.0000
  H   H825      1.0  0.26453  0.79953  0.84949  1.0000
  H   H826      1.0  0.24587  0.82674  0.86725  1.0000
  H   H827      1.0  0.23120  0.79794  0.86917  1.0000
  H   H828      1.0  0.24090  0.92257  0.79376  1.0000
  H   H829      1.0  0.20649  0.93032  0.78584  1.0000
  H   H830      1.0  0.21065  0.93173  0.81765  1.0000
  H   H831      1.0  0.21137  0.85034  0.74605  1.0000
  H   H832      1.0  0.18659  0.82898  0.75511  1.0000
  H   H833      1.0  0.17756  0.86144  0.73678  1.0000
  H   H834      1.0  0.10823  0.84881  0.87008  1.0000
  H   H835      1.0  0.10074  0.87942  0.88418  1.0000
  H   H836      1.0  0.09708  0.88108  0.85175  1.0000
  C   C472      1.0  0.20754  0.87502  0.89693  1.0000
  Fe  Fe48      1.0  0.48510  0.62090  0.73526  1.0000
  C   C473      1.0  0.48719  0.58601  0.84085  1.0000
  H   H837      1.0  0.16084  0.81186  0.98415  1.0000
  C   C474      1.0  0.48043  0.52256  0.66392  1.0000
  Fe  Fe49      1.0  0.12002  0.95564  0.86313  1.0000
  H   H838      1.0  0.39171  0.65711  0.68717  1.0000
  C   C475      1.0  0.44495  0.64230  0.65678  1.0000
  H   H839      1.0  0.34043  0.85092  0.94297  1.0000
  H   H840      1.0  0.23999  0.87898  0.93590  1.0000
  H   H841      1.0  0.47190  0.78584  0.96268  1.0000
  H   H842      1.0  0.44972  0.70521  0.90664  1.0000
  H   H843      1.0  0.00426  0.94265  0.86792  1.0000
  H   H844      1.0  0.48085  0.68003  0.81053  1.0000
  H   H845      1.0  0.21525  0.74118  0.92745  1.0000
  C   C476      1.0  0.44964  0.53189  0.90545  1.0000
  S   S102      1.0  0.37280  0.80151  0.92353  1.0000
  H   H846      1.0  0.46715  0.67799  0.94112  1.0000
  H   H847      1.0  0.15571  0.95633  0.77035  1.0000
  C   C477      1.0  0.15053  0.97254  0.73169  1.0000
  C   C478      1.0  0.40225  0.81165  0.95588  1.0000
  H   H848      1.0  0.01774  0.93210  0.83716  1.0000
  C   C479      1.0  0.08581  0.94253  0.70437  1.0000
  S   S103      1.0  0.14697  0.95917  0.82486  1.0000
  H   H849      1.0  0.18422  0.87196  0.94855  1.0000
  C   C480      1.0  0.23833  0.89614  0.94614  1.0000
  H   H850      1.0  0.42058  0.61243  0.67799  1.0000
  H   H851      1.0  0.19463  0.81323  0.96537  1.0000
  H   H852      1.0  0.45407  0.75500  0.94327  1.0000
  C   C481      1.0  0.44717  0.72496  0.91299  1.0000
  H   H853      1.0  0.45816  0.77409  0.91288  1.0000
  C   C482      1.0  0.23934  0.71542  0.95470  1.0000
  H   H854      1.0  0.40475  0.69261  0.74968  1.0000
  Fe  Fe50      1.0  0.32744  0.80422  0.92393  1.0000
  H   H855      1.0  0.48007  0.75396  0.87603  1.0000
  H   H856      1.0  0.28091  0.71520  0.98006  1.0000
  H   H857      1.0  0.47933  0.71687  0.69313  1.0000
  H   H858      1.0  0.32915  0.59714  0.96296  1.0000
  S   S104      1.0  0.30592  0.77204  0.94591  1.0000
  H   H859      1.0  0.20585  0.92916  0.96082  1.0000
  H   H860      1.0  0.24998  0.88876  0.96204  1.0000
  H   H861      1.0  0.42343  0.76597  0.90150  1.0000
  H   H862      1.0  0.16329  0.83293  0.95402  1.0000
  H   H863      1.0  0.06432  0.98142  0.74005  1.0000
  C   C483      1.0  0.17902  0.88734  0.90109  1.0000
  H   H864      1.0  0.00997  0.89433  0.88699  1.0000
  C   C484      1.0  0.47763  0.66526  0.82769  1.0000
  H   H865      1.0  0.34547  0.61020  0.84614  1.0000
  H   H866      1.0  0.44778  0.64301  0.84785  1.0000
  C   C485      1.0  0.11484  0.93322  0.97190  1.0000
  H   H867      1.0  0.45121  0.64664  0.81426  1.0000
  H   H868      1.0  0.18142  0.94824  0.86655  1.0000
  C   C486      1.0  0.17378  0.84856  0.98447  1.0000
  H   H869      1.0  0.31873  0.64581  0.96534  1.0000
  H   H870      1.0  0.41786  0.79422  0.95015  1.0000
  S   S105      1.0  0.02407  0.97110  0.67388  1.0000
  H   H871      1.0  0.43754  0.74584  0.87601  1.0000
  H   H872      1.0  0.43459  0.60713  0.90064  1.0000
  C   C487      1.0  0.30109  0.63578  0.96929  1.0000
  H   H873      1.0  0.09860  0.98541  0.66289  1.0000
  C   C488      1.0  0.02112  0.90023  0.86775  1.0000
  Fe  Fe51      1.0  0.47607  0.56728  0.72840  1.0000
  C   C489      1.0  0.40541  0.82468  0.97514  1.0000
  C   C490      1.0  0.46880  0.75661  0.92499  1.0000
  C   C491      1.0  0.44053  0.59207  0.86554  1.0000
  C   C492      1.0  0.20712  0.90919  0.95520  1.0000
  H   H874      1.0  0.02122  0.95156  0.77682  1.0000
  H   H875      1.0  0.43050  0.69928  0.81955  1.0000
  C   C493      1.0  0.40420  0.67159  0.75808  1.0000
  C   C494      1.0  0.22335  0.71935  0.93298  1.0000
  H   H876      1.0  0.40771  0.55721  0.90796  1.0000
  S   S106      1.0  0.26240  0.87401  0.87616  1.0000
  Fe  Fe52      1.0  0.27633  0.83650  0.90238  1.0000
  H   H877      1.0  0.15360  0.93270  0.94664  1.0000
  C   C495      1.0  0.17313  0.82527  0.97109  1.0000
  S   S107      1.0  0.25031  0.80751  0.92258  1.0000
  H   H878      1.0  0.14327  0.90104  0.95368  1.0000
  C   C496      1.0  0.45909  0.58524  0.84350  1.0000
  C   C497      1.0  0.40936  0.64719  0.69728  1.0000
  H   H879      1.0  0.23759  0.67306  0.96280  1.0000
  S   S108      1.0  0.29293  0.83861  0.93672  1.0000
  H   H880      1.0  0.08100  0.95367  0.68604  1.0000
  H   H881      1.0  0.21294  0.85477  0.96275  1.0000
  H   H882      1.0  0.04968  0.86603  0.79376  1.0000
  H   H883      1.0  0.24210  0.92431  0.91141  1.0000
  Fe  Fe53      1.0  0.45080  0.61920  0.93763  1.0000
  H   H884      1.0  0.40108  0.63630  0.71560  1.0000
  H   H885      1.0  0.19749  0.91342  0.93794  1.0000
  C   C498      1.0  0.36162  0.85656  0.97113  1.0000
  H   H886      1.0  0.10919  0.97300  0.75445  1.0000
  H   H887      1.0  0.00793  0.87769  0.67566  1.0000
  H   H888      1.0  0.48071  0.59611  0.66579  1.0000
  H   H889      1.0  0.47280  0.80701  0.93252  1.0000
  Fe  Fe54      1.0  0.47193  0.58014  0.78102  1.0000
  C   C499      1.0  0.28956  0.69311  0.98057  1.0000
  S   S109      1.0  0.48874  0.60985  0.90745  1.0000
  H   H890      1.0  0.43407  0.49569  0.71791  1.0000
  H   H891      1.0  0.11488  0.95140  0.97997  1.0000
  C   C500      1.0  0.47726  0.52499  0.68956  1.0000
  C   C501      1.0  0.48497  0.78995  0.94392  1.0000
  C   C502      1.0  0.48826  0.67964  0.93060  1.0000
  H   H892      1.0  0.34613  0.87422  0.97665  1.0000
  H   H893      1.0  0.40416  0.75692  0.98301  1.0000
  C   C503      1.0  0.38484  0.84681  0.98310  1.0000
  C   C504      1.0  0.16237  0.90974  0.98334  1.0000
  H   H894      1.0  0.48361  0.54765  0.93509  1.0000
  C   C505      1.0  0.49044  0.50393  0.70580  1.0000
  N   N28       1.0  0.10399  0.98156  0.71529  1.0000
  C   C506      1.0  0.49119  0.73554  0.88682  1.0000
  C   C507      1.0  0.31256  0.60608  0.97809  1.0000
  H   H895      1.0  0.49062  0.67373  0.91160  1.0000
  H   H896      1.0  0.49255  0.53152  0.83560  1.0000
  H   H897      1.0  0.29579  0.59482  0.98223  1.0000
  H   H898      1.0  0.42363  0.81748  0.98396  1.0000
  H   H899      1.0  0.45676  0.48913  0.91313  1.0000
  H   H900      1.0  0.48781  0.50576  0.72567  1.0000
  H   H901      1.0  0.13823  0.98522  0.68407  1.0000
  H   H902      1.0  0.16067  0.98579  0.71626  1.0000
  Fe  Fe55      1.0  0.06773  0.98741  0.84393  1.0000
  Fe  Fe56      1.0  0.62180  0.03137  0.20658  1.0000
  C   C508      1.0  0.80675  0.17135  0.03156  1.0000
  S   S110      1.0  0.60101  0.06873  0.18459  1.0000
  C   C509      1.0  0.51324  0.19625  0.13179  1.0000
  H   H903      1.0  0.52086  0.12766  0.17136  1.0000
  C   C510      1.0  0.64363  0.09793  0.21974  1.0000
  H   H904      1.0  0.89190  0.39612  0.00605  1.0000
  C   C511      1.0  0.57774  0.06511  0.30852  1.0000
  H   H905      1.0  0.59117  0.08717  0.23423  1.0000
  Fe  Fe57      1.0  0.92358  0.47144  0.13845  1.0000
  S   S111      1.0  0.62572  0.02872  0.24713  1.0000
  C   C512      1.0  0.82803  0.48246  0.12788  1.0000
  C   C513      1.0  0.64106  0.25857  0.04881  1.0000
  Fe  Fe58      1.0  0.64267  0.14273  0.06633  1.0000
  S   S112      1.0  0.67419  0.12316  0.09170  1.0000
  H   H906      1.0  0.68308  0.05067  0.21030  1.0000
  H   H907      1.0  0.80297  0.18933  0.04135  1.0000
  H   H908      1.0  0.56556  0.09312  0.11167  1.0000
  H   H909      1.0  0.61283  0.25791  0.08452  1.0000
  C   C514      1.0  0.66899  0.06317  0.06776  1.0000
  H   H910      1.0  0.56489  0.10804  0.30693  1.0000
  H   H911      1.0  0.90304  0.41213  0.26173  1.0000
  C   C515      1.0  0.91707  0.42332  0.26497  1.0000
  H   H912      1.0  0.72345  0.16720  0.03393  1.0000
  H   H913      1.0  0.97246  0.37753  0.23855  1.0000
  H   H914      1.0  0.50993  0.14589  0.12844  1.0000
  S   S113      1.0  0.82594  0.24046  0.03987  1.0000
  H   H915      1.0  0.60089  0.46006  0.00444  1.0000
  S   S114      1.0  0.81074  0.30602  0.02082  1.0000
  H   H916      1.0  0.86563  0.29588  0.18665  1.0000
  C   C516      1.0  0.86028  0.47774  0.01144  1.0000
  H   H917      1.0  0.51457  0.11766  0.11274  1.0000
  Fe  Fe59      1.0  0.76818  0.46952  0.08451  1.0000
  H   H918      1.0  0.94703  0.25000  0.09676  1.0000
  H   H919      1.0  0.78588  0.39575  0.16782  1.0000
  Fe  Fe60      1.0  0.63075  0.18344  0.02061  1.0000
  S   S115      1.0  0.76426  0.37649  0.12402  1.0000
  S   S116      1.0  0.53308  0.16915  0.20175  1.0000
  H   H920      1.0  0.74704  0.32347  0.03616  1.0000
  C   C517      1.0  0.61402  0.27064  0.06583  1.0000
  H   H921      1.0  0.57978  0.03209  0.11080  1.0000
  S   S117      1.0  0.62101  0.18637  0.06226  1.0000
  H   H922      1.0  0.68571  0.42980  0.03739  1.0000
  C   C518      1.0  0.86873  0.38445  0.06914  1.0000
  C   C519      1.0  0.53329  0.03619  0.18471  1.0000
  S   S118      1.0  0.75308  0.47863  0.04740  1.0000
  H   H923      1.0  0.52486  0.33716  0.08272  1.0000
  H   H924      1.0  0.70542  0.43880  0.98958  1.0000
  H   H925      1.0  0.91736  0.25837  0.12154  1.0000
  Fe  Fe61      1.0  0.58298  0.17192  0.06151  1.0000
  C   C520      1.0  0.62478  0.46284  0.07006  1.0000
  C   C521      1.0  0.71364  0.20697  0.04595  1.0000
  H   H926      1.0  0.61565  0.29064  0.06869  1.0000
  H   H927      1.0  0.63895  0.13827  0.29907  1.0000
  C   C522      1.0  0.93487  0.41222  0.28255  1.0000
  H   H928      1.0  0.79141  0.47874  0.99637  1.0000
  C   C523      1.0  0.69053  0.06943  0.04452  1.0000
  C   C524      1.0  0.69424  0.19799  0.06976  1.0000
  C   C525      1.0  0.83053  0.30870  0.08900  1.0000
  C   C526      1.0  0.82005  0.33212  0.07361  1.0000
  C   C527      1.0  0.79990  0.35319  0.08433  1.0000
  C   C528      1.0  0.78995  0.35069  0.11044  1.0000
  C   C529      1.0  0.80053  0.32732  0.12585  1.0000
  C   C530      1.0  0.82113  0.30653  0.11519  1.0000
  Fe  Fe62      1.0  0.61576  0.12957  0.02702  1.0000
  H   H929      1.0  0.79188  0.37121  0.07231  1.0000
  H   H930      1.0  0.79269  0.32527  0.14601  1.0000
  H   H931      1.0  0.82913  0.28843  0.12714  1.0000
  C   C531      1.0  0.87097  0.48498  0.29883  1.0000
  H   H932      1.0  0.83113  0.47289  0.06721  1.0000
  H   H933      1.0  0.84899  0.38060  0.06625  1.0000
  Fe  Fe63      1.0  0.91634  0.47875  0.19358  1.0000
  H   H934      1.0  0.87094  0.21932  0.06995  1.0000
  H   H935      1.0  0.88027  0.43615  0.01751  1.0000
  H   H936      1.0  0.96563  0.46435  0.27809  1.0000
  H   H937      1.0  0.91533  0.27347  0.08941  1.0000
  H   H938      1.0  0.78226  0.19522  0.99037  1.0000
  C   C532      1.0  0.49650  0.11136  0.15206  1.0000
  H   H939      1.0  0.90018  0.45649  0.99396  1.0000
  C   C533      1.0  0.64560  0.41996  0.04140  1.0000
  H   H940      1.0  0.65352  0.40366  0.02999  1.0000
  H   H941      1.0  0.55539  0.36919  0.07527  1.0000
  C   C534      1.0  0.76267  0.37142  0.00898  1.0000
  H   H942      1.0  0.75860  0.39119  0.99707  1.0000
  S   S119      1.0  0.91104  0.45108  0.11087  1.0000
  C   C535      1.0  0.58600  0.05069  0.11204  1.0000
  H   H943      1.0  0.67981  0.05703  0.08428  1.0000
  H   H944      1.0  0.78651  0.45570  0.15874  1.0000
  C   C536      1.0  0.73331  0.29045  0.00665  1.0000
  H   H945      1.0  0.52195  0.08899  0.31559  1.0000
  H   H946      1.0  0.81928  0.35637  0.15584  1.0000
  H   H947      1.0  0.56229  0.12578  0.01008  1.0000
  H   H948      1.0  0.52280  0.14297  0.07596  1.0000
  S   S120      1.0  0.79532  0.42928  0.07680  1.0000
  C   C537      1.0  0.57800  0.27074  0.98866  1.0000
  S   S121      1.0  0.65613  0.14108  0.02480  1.0000
  H   H949      1.0  0.92484  0.16912  0.09502  1.0000
  H   H950      1.0  0.81528  0.15329  0.04425  1.0000
  H   H951      1.0  0.72984  0.47860  0.98945  1.0000
  H   H952      1.0  0.84386  0.32277  0.20371  1.0000
  H   H953      1.0  0.61649  0.47968  0.08083  1.0000
  C   C538      1.0  0.62268  0.01029  0.07953  1.0000
  Fe  Fe64      1.0  0.71854  0.45884  0.06838  1.0000
  C   C539      1.0  0.54185  0.03470  0.26729  1.0000
  H   H954      1.0  0.82738  0.42682  0.13319  1.0000
  H   H955      1.0  0.54294  0.07019  0.12478  1.0000
  C   C540      1.0  0.65543  0.04087  0.06391  1.0000
  H   H956      1.0  0.55752  0.03411  0.25026  1.0000
  H   H957      1.0  0.65289  0.03825  0.11634  1.0000
  C   C541      1.0  0.62259  0.08297  0.15926  1.0000
  C   C542      1.0  0.61017  0.10520  0.14388  1.0000
  C   C543      1.0  0.62662  0.11780  0.12392  1.0000
  C   C544      1.0  0.65536  0.10805  0.11869  1.0000
  C   C545      1.0  0.66816  0.08596  0.13425  1.0000
  C   C546      1.0  0.65169  0.07341  0.15469  1.0000
  H   H958      1.0  0.58777  0.11285  0.14751  1.0000
  H   H959      1.0  0.61719  0.13538  0.11256  1.0000
  H   H960      1.0  0.69055  0.07838  0.13031  1.0000
  H   H961      1.0  0.66149  0.05653  0.16683  1.0000
  H   H962      1.0  0.93700  0.48227  0.24440  1.0000
  Fe  Fe65      1.0  0.75770  0.41367  0.09581  1.0000
  N   N29       1.0  0.71684  0.33936  0.06780  1.0000
  C   C547      1.0  0.72431  0.31181  0.08256  1.0000
  C   C548      1.0  0.69123  0.34152  0.05676  1.0000
  C   C549      1.0  0.74070  0.34173  0.04596  1.0000
  C   C550      1.0  0.71255  0.36188  0.08342  1.0000
  C   C551      1.0  0.69951  0.35718  0.11191  1.0000
  C   C552      1.0  0.75316  0.30452  0.09098  1.0000
  H   H963      1.0  0.88426  0.39999  0.09574  1.0000
  C   C553      1.0  0.66410  0.33923  0.07578  1.0000
  C   C554      1.0  0.64089  0.33897  0.06198  1.0000
  C   C555      1.0  0.68788  0.38386  0.12284  1.0000
  C   C556      1.0  0.75647  0.27911  0.11010  1.0000
  Fe  Fe66      1.0  0.60665  0.99317  0.25287  1.0000
  H   H964      1.0  0.72440  0.29608  0.07102  1.0000
  H   H965      1.0  0.70837  0.30906  0.09964  1.0000
  H   H966      1.0  0.68581  0.36125  0.04494  1.0000
  H   H967      1.0  0.69562  0.32603  0.04379  1.0000
  H   H968      1.0  0.88522  0.36554  0.06848  1.0000
  H   H969      1.0  0.75948  0.34261  0.05316  1.0000
  H   H970      1.0  0.73284  0.36666  0.08341  1.0000
  H   H971      1.0  0.69972  0.38067  0.07459  1.0000
  H   H972      1.0  0.71574  0.34478  0.12277  1.0000
  H   H973      1.0  0.68240  0.34658  0.11559  1.0000
  H   H974      1.0  0.77022  0.30064  0.07444  1.0000
  H   H975      1.0  0.75604  0.32111  0.09962  1.0000
  H   H976      1.0  0.72384  0.38472  0.03376  1.0000
  C   C557      1.0  0.73533  0.36627  0.02529  1.0000
  H   H977      1.0  0.66699  0.32058  0.08935  1.0000
  H   H978      1.0  0.65662  0.35707  0.08611  1.0000
  H   H979      1.0  0.63651  0.35794  0.04896  1.0000
  H   H980      1.0  0.64698  0.32165  0.05096  1.0000
  H   H981      1.0  0.62150  0.33760  0.07586  1.0000
  H   H982      1.0  0.68027  0.37998  0.14351  1.0000
  H   H983      1.0  0.70430  0.39541  0.11976  1.0000
  H   H984      1.0  0.67018  0.39624  0.11373  1.0000
  H   H985      1.0  0.77766  0.27412  0.11502  1.0000
  C   C558      1.0  0.51878  0.05675  0.26943  1.0000
  S   S122      1.0  0.80087  0.42108  0.00626  1.0000
  H   H986      1.0  0.75399  0.26193  0.10189  1.0000
  N   N30       1.0  0.84575  0.38439  0.14246  1.0000
  C   C559      1.0  0.88861  0.41083  0.18065  1.0000
  N   N31       1.0  0.62762  0.12691  0.21754  1.0000
  C   C560      1.0  0.98270  0.15058  0.08348  1.0000
  C   C561      1.0  0.59655  0.12843  0.22178  1.0000
  C   C562      1.0  0.63617  0.13956  0.19075  1.0000
  C   C563      1.0  0.63425  0.14261  0.23533  1.0000
  H   H987      1.0  0.70014  0.16829  0.98859  1.0000
  H   H988      1.0  0.70339  0.17723  0.07797  1.0000
  C   C564      1.0  0.62135  0.16943  0.18405  1.0000
  C   C565      1.0  0.58512  0.10676  0.24179  1.0000
  H   H989      1.0  0.69381  0.27966  0.02114  1.0000
  H   H990      1.0  0.59992  0.06563  0.30091  1.0000
  C   C566      1.0  0.70480  0.29293  0.00760  1.0000
  C   C567      1.0  0.62954  0.17902  0.15588  1.0000
  H   H991      1.0  0.50791  0.27350  0.02216  1.0000
  C   C568      1.0  0.95227  0.42704  0.28748  1.0000
  H   H992      1.0  0.58449  0.14858  0.22678  1.0000
  C   C569      1.0  0.52110  0.10823  0.16548  1.0000
  H   H993      1.0  0.69704  0.19104  0.02036  1.0000
  H   H994      1.0  0.65884  0.13913  0.18654  1.0000
  Fe  Fe67      1.0  0.84317  0.27613  0.03990  1.0000
  H   H995      1.0  0.62064  0.16326  0.23448  1.0000
  H   H996      1.0  0.52386  0.38410  0.06257  1.0000
  H   H997      1.0  0.51519  0.11724  0.02708  1.0000
  H   H998      1.0  0.70407  0.22803  0.03903  1.0000
  H   H999      1.0  0.82260  0.17307  0.01411  1.0000
  H   H1000     1.0  0.62753  0.18259  0.19471  1.0000
  H   H1001     1.0  0.59832  0.17254  0.18861  1.0000
  H   H1002     1.0  0.89067  0.46925  0.29935  1.0000
  H   H1003     1.0  0.59894  0.04322  0.03316  1.0000
  H   H1004     1.0  0.76786  0.44023  0.14294  1.0000
  C   C570      1.0  0.94683  0.20382  0.01939  1.0000
  H   H1005     1.0  0.50836  0.18744  0.29617  1.0000
  S   S123      1.0  0.59364  0.40824  0.04826  1.0000
  H   H1006     1.0  0.64137  0.10966  0.26692  1.0000
  C   C571      1.0  0.50894  0.26009  0.04040  1.0000
  C   C572      1.0  0.51108  0.19047  0.15826  1.0000
  C   C573      1.0  0.86644  0.46272  0.08646  1.0000
  C   C574      1.0  0.63059  0.13113  0.26374  1.0000
  H   H1007     1.0  0.61805  0.20013  0.15142  1.0000
  H   H1008     1.0  0.65232  0.17804  0.15086  1.0000
  H   H1009     1.0  0.62419  0.16646  0.14402  1.0000
  H   H1010     1.0  0.88134  0.45535  0.07035  1.0000
  H   H1011     1.0  0.57474  0.00965  0.01059  1.0000
  S   S124      1.0  0.51925  0.02273  0.11925  1.0000
  H   H1012     1.0  0.76517  0.21194  0.01675  1.0000
  H   H1013     1.0  0.63276  0.12771  0.17704  1.0000
  S   S125      1.0  0.60361  0.12828  0.06901  1.0000
  H   H1014     1.0  0.70775  0.05142  0.04121  1.0000
  H   H1015     1.0  0.68993  0.00260  0.09192  1.0000
  S   S126      1.0  0.94565  0.44864  0.16995  1.0000
  C   C575      1.0  0.64728  0.02168  0.10960  1.0000
  H   H1016     1.0  0.59126  0.04894  0.13115  1.0000
  N   N32       1.0  0.56109  0.28965  0.06553  1.0000
  C   C576      1.0  0.58813  0.27189  0.05416  1.0000
  C   C577      1.0  0.53725  0.28747  0.05381  1.0000
  C   C578      1.0  0.55517  0.28383  0.09406  1.0000
  C   C579      1.0  0.55381  0.25460  0.10572  1.0000
  C   C580      1.0  0.53564  0.25914  0.04988  1.0000
  H   H1017     1.0  0.50282  0.01010  0.22249  1.0000
  C   C581      1.0  0.64252  0.14638  0.27867  1.0000
  H   H1018     1.0  0.59289  0.27843  0.03346  1.0000
  H   H1019     1.0  0.58661  0.25073  0.05567  1.0000
  H   H1020     1.0  0.53719  0.00283  0.22930  1.0000
  H   H1021     1.0  0.53818  0.29922  0.03451  1.0000
  H   H1022     1.0  0.83059  0.19368  0.08431  1.0000
  H   H1023     1.0  0.51659  0.07298  0.25402  1.0000
  H   H1024     1.0  0.56959  0.23929  0.09531  1.0000
  N   N33       1.0  0.73887  0.19383  0.00166  1.0000
  H   H1025     1.0  0.55342  0.25036  0.03571  1.0000
  H   H1026     1.0  0.52355  0.34162  0.04950  1.0000
  H   H1027     1.0  0.58992  0.22767  0.99746  1.0000
  H   H1028     1.0  0.65467  0.44829  0.99096  1.0000
  H   H1029     1.0  0.76531  0.16534  0.04348  1.0000
  H   H1030     1.0  0.69948  0.08578  0.04760  1.0000
  H   H1031     1.0  0.87518  0.39961  0.05346  1.0000
  S   S127      1.0  0.64998  0.21467  0.99401  1.0000
  H   H1032     1.0  0.65906  0.25666  0.05822  1.0000
  H   H1033     1.0  0.86903  0.48287  0.02650  1.0000
  H   H1034     1.0  0.58503  0.45269  0.07497  1.0000
  H   H1035     1.0  0.56776  0.06393  0.29262  1.0000
  C   C582      1.0  0.88528  0.19988  0.07560  1.0000
  H   H1036     1.0  0.63760  0.08702  0.23868  1.0000
  C   C583      1.0  0.71798  0.18853  0.02523  1.0000
  C   C584      1.0  0.82063  0.40762  0.14012  1.0000
  C   C585      1.0  0.87428  0.17707  0.06908  1.0000
  H   H1037     1.0  0.53487  0.29660  0.10194  1.0000
  Fe  Fe68      1.0  0.85360  0.23660  0.00213  1.0000
  H   H1038     1.0  0.80938  0.40504  0.12557  1.0000
  H   H1039     1.0  0.59017  0.12653  0.20390  1.0000
  C   C586      1.0  0.84649  0.17445  0.08615  1.0000
  C   C587      1.0  0.59723  0.24600  0.99196  1.0000
  H   H1040     1.0  0.72255  0.36262  0.01254  1.0000
  H   H1041     1.0  0.51110  0.04734  0.18815  1.0000
  H   H1042     1.0  0.95308  0.22176  0.02252  1.0000
  H   H1043     1.0  0.84903  0.45293  0.27665  1.0000
  H   H1044     1.0  0.60276  0.01938  0.07241  1.0000
  H   H1045     1.0  0.97461  0.18770  0.05890  1.0000
  H   H1046     1.0  0.93660  0.15867  0.06469  1.0000
  C   C588      1.0  0.91827  0.20108  0.03579  1.0000
  S   S128      1.0  0.61689  0.09193  0.01147  1.0000
  H   H1047     1.0  0.49493  0.00192  0.26550  1.0000
  H   H1048     1.0  0.87472  0.41024  0.13511  1.0000
  H   H1049     1.0  0.88940  0.15740  0.07130  1.0000
  H   H1050     1.0  0.87055  0.18150  0.04924  1.0000
  C   C589      1.0  0.52417  0.99712  0.21794  1.0000
  C   C590      1.0  0.87899  0.39625  0.99195  1.0000
  H   H1051     1.0  0.51692  0.29663  0.06519  1.0000
  H   H1052     1.0  0.94205  0.22799  0.06213  1.0000
  H   H1053     1.0  0.63794  0.08720  0.20643  1.0000
  C   C591      1.0  0.56006  0.10604  0.01935  1.0000
  H   H1054     1.0  0.83878  0.15855  0.08055  1.0000
  Fe  Fe69      1.0  0.97166  0.47932  0.15959  1.0000
  H   H1055     1.0  0.85728  0.39976  0.00278  1.0000
  H   H1056     1.0  0.69100  0.21172  0.08413  1.0000
  C   C592      1.0  0.96406  0.17819  0.07679  1.0000
  C   C593      1.0  0.77958  0.16854  0.02526  1.0000
  H   H1057     1.0  0.91469  0.18225  0.03140  1.0000
  C   C594      1.0  0.76661  0.19374  0.00800  1.0000
  S   S129      1.0  0.74105  0.41747  0.06018  1.0000
  C   C595      1.0  0.95238  0.45272  0.27429  1.0000
  C   C596      1.0  0.66379  0.43465  0.04565  1.0000
  H   H1058     1.0  0.55414  0.07594  0.09118  1.0000
  H   H1059     1.0  0.77775  0.37203  0.02091  1.0000
  S   S130      1.0  0.87417  0.26935  0.00428  1.0000
  C   C597      1.0  0.67454  0.99177  0.29632  1.0000
  C   C598      1.0  0.56066  0.07398  0.10976  1.0000
  H   H1060     1.0  0.60331  0.06555  0.07351  1.0000
  H   H1061     1.0  0.61857  0.07148  0.09789  1.0000
  Fe  Fe70      1.0  0.79580  0.26971  0.01803  1.0000
  H   H1062     1.0  0.63152  0.01500  0.12549  1.0000
  C   C599      1.0  0.61116  0.05590  0.09135  1.0000
  S   S131      1.0  0.66381  0.00490  0.19489  1.0000
  H   H1063     1.0  0.57335  0.32231  0.03819  1.0000
  N   N34       1.0  0.63468  0.03173  0.08604  1.0000
  C   C600      1.0  0.53349  0.10135  0.02932  1.0000
  H   H1064     1.0  0.57909  0.32238  0.06915  1.0000
  C   C601      1.0  0.91759  0.44873  0.25144  1.0000
  H   H1065     1.0  0.54492  0.04218  0.19711  1.0000
  C   C602      1.0  0.85608  0.47171  0.12993  1.0000
  H   H1066     1.0  0.67291  0.02391  0.05822  1.0000
  C   C603      1.0  0.83813  0.47264  0.08466  1.0000
  H   H1067     1.0  0.51947  0.09338  0.18272  1.0000
  H   H1068     1.0  0.82937  0.36762  0.18041  1.0000
  H   H1069     1.0  0.64395  0.27184  0.03055  1.0000
  H   H1070     1.0  0.55573  0.22858  0.14147  1.0000
  H   H1071     1.0  0.50878  0.23955  0.03732  1.0000
  C   C604      1.0  0.58955  0.99818  0.99591  1.0000
  C   C605      1.0  0.49874  0.05776  0.29163  1.0000
  S   S132      1.0  0.50906  0.99567  0.07259  1.0000
  H   H1072     1.0  0.54576  0.09953  0.26370  1.0000
  H   H1073     1.0  0.89591  0.42616  0.16558  1.0000
  S   S133      1.0  0.59106  0.17202  0.01922  1.0000
  H   H1074     1.0  0.65318  0.08217  0.07049  1.0000
  H   H1075     1.0  0.90578  0.39252  0.18182  1.0000
  H   H1076     1.0  0.55184  0.03581  0.05428  1.0000
  C   C606      1.0  0.87919  0.45232  0.00128  1.0000
  H   H1077     1.0  0.85603  0.38937  0.19099  1.0000
  C   C607      1.0  0.79759  0.41191  0.16406  1.0000
  C   C608      1.0  0.56425  0.31843  0.05868  1.0000
  H   H1078     1.0  0.86574  0.32547  0.14646  1.0000
  C   C609      1.0  0.81904  0.48298  0.10523  1.0000
  C   C610      1.0  0.55331  0.11433  0.24831  1.0000
  H   H1079     1.0  0.64511  0.04847  0.04704  1.0000
  H   H1080     1.0  0.60967  0.98922  0.00261  1.0000
  H   H1081     1.0  0.80618  0.41157  0.18116  1.0000
  H   H1082     1.0  0.90563  0.34680  0.01679  1.0000
  C   C611      1.0  0.86275  0.40424  0.17519  1.0000
  H   H1083     1.0  0.82772  0.33421  0.05345  1.0000
  S   S134      1.0  0.67414  0.47721  0.06362  1.0000
  H   H1084     1.0  0.84639  0.42322  0.17491  1.0000
  C   C612      1.0  0.68935  0.06341  0.22135  1.0000
  C   C613      1.0  0.58367  0.08519  0.02125  1.0000
  H   H1085     1.0  0.88838  0.37730  0.14843  1.0000
  C   C614      1.0  0.67298  0.99775  0.10733  1.0000
  C   C615      1.0  0.86898  0.39352  0.14935  1.0000
  C   C616      1.0  0.53702  0.34069  0.06347  1.0000
  C   C617      1.0  0.83722  0.36155  0.16121  1.0000
  C   C618      1.0  0.85623  0.37426  0.11698  1.0000
  H   H1086     1.0  0.83043  0.31000  0.18117  1.0000
  H   H1087     1.0  0.84024  0.36554  0.11220  1.0000
  H   H1088     1.0  0.87889  0.33886  0.16868  1.0000
  C   C619      1.0  0.85994  0.33512  0.16406  1.0000
  H   H1089     1.0  0.87533  0.35780  0.11738  1.0000
  C   C620      1.0  0.84921  0.31477  0.18523  1.0000
  H   H1090     1.0  0.98561  0.13765  0.06847  1.0000
  H   H1091     1.0  0.60806  0.13367  0.27187  1.0000
  H   H1092     1.0  0.88348  0.41914  0.19897  1.0000
  H   H1093     1.0  0.54604  0.13446  0.25484  1.0000
  C   C621      1.0  0.86440  0.39522  0.09438  1.0000
  H   H1094     1.0  0.84821  0.41417  0.09383  1.0000
  H   H1095     1.0  0.66538  0.14391  0.27200  1.0000
  H   H1096     1.0  0.58204  0.16915  0.11422  1.0000
  H   H1097     1.0  0.52027  0.13609  0.30806  1.0000
  S   S135      1.0  0.85473  0.28170  0.07571  1.0000
  C   C622      1.0  0.92010  0.22652  0.06917  1.0000
  H   H1098     1.0  0.54256  0.26369  0.14473  1.0000
  H   H1099     1.0  0.64074  0.23840  0.04492  1.0000
  C   C623      1.0  0.84818  0.44709  0.29737  1.0000
  C   C624      1.0  0.50056  0.18979  0.31649  1.0000
  H   H1100     1.0  0.68320  0.10475  0.22577  1.0000
  Fe  Fe71      1.0  0.77661  0.43650  0.04199  1.0000
  S   S136      1.0  0.73151  0.45342  0.10618  1.0000
  H   H1101     1.0  0.54135  0.10129  0.15316  1.0000
  H   H1102     1.0  0.57838  0.15818  0.16081  1.0000
  C   C625      1.0  0.88818  0.34614  0.00763  1.0000
  H   H1103     1.0  0.78446  0.15027  0.01572  1.0000
  C   C626      1.0  0.53053  0.07649  0.04295  1.0000
  C   C627      1.0  0.91255  0.23152  0.09735  1.0000
  H   H1104     1.0  0.97341  0.14055  0.10187  1.0000
  C   C628      1.0  0.55409  0.05525  0.04419  1.0000
  C   C629      1.0  0.58064  0.05946  0.03254  1.0000
  C   C630      1.0  0.65323  0.45633  0.05982  1.0000
  C   C631      1.0  0.56029  0.16921  0.15283  1.0000
  C   C632      1.0  0.56234  0.17479  0.12650  1.0000
  H   H1105     1.0  0.73352  0.20671  0.05168  1.0000
  H   H1106     1.0  0.61672  0.99657  0.09685  1.0000
  C   C633      1.0  0.93432  0.17585  0.07526  1.0000
  H   H1107     1.0  0.84913  0.16881  0.10625  1.0000
  H   H1108     1.0  0.69153  0.00739  0.13622  1.0000
  H   H1109     1.0  0.93480  0.39232  0.29266  1.0000
  H   H1110     1.0  0.86251  0.47008  0.14782  1.0000
  C   C634      1.0  0.61714  0.42641  0.05212  1.0000
  H   H1111     1.0  0.72598  0.23709  0.99975  1.0000
  H   H1112     1.0  0.88231  0.19776  0.09663  1.0000
  H   H1113     1.0  0.77223  0.35557  0.99640  1.0000
  H   H1114     1.0  0.65590  0.14559  0.22906  1.0000
  C   C635      1.0  0.53468  0.17681  0.16881  1.0000
  S   S137      1.0  0.89382  0.46327  0.23097  1.0000
  H   H1115     1.0  0.74081  0.28226  0.12770  1.0000
  H   H1116     1.0  0.50462  0.18838  0.05003  1.0000
  H   H1117     1.0  0.68383  0.09839  0.19409  1.0000
  S   S138      1.0  0.54115  0.19180  0.08291  1.0000
  C   C636      1.0  0.55821  0.24913  0.13322  1.0000
  C   C637      1.0  0.60695  0.44762  0.06668  1.0000
  H   H1118     1.0  0.53270  0.25159  0.10602  1.0000
  C   C638      1.0  0.87551  0.46267  0.10900  1.0000
  H   H1119     1.0  0.57095  0.28969  0.10212  1.0000
  C   C639      1.0  0.67593  0.09302  0.21450  1.0000
  C   C640      1.0  0.93594  0.46303  0.25547  1.0000
  S   S139      1.0  0.75122  0.26656  0.02780  1.0000
  H   H1120     1.0  0.68050  0.07628  0.02748  1.0000
  H   H1121     1.0  0.59328  0.10357  0.25957  1.0000
  H   H1122     1.0  0.67366  0.19849  0.06527  1.0000
  C   C641      1.0  0.53882  0.18765  0.11591  1.0000
  N   N35       1.0  0.91523  0.20064  0.06402  1.0000
  H   H1123     1.0  0.54415  0.11442  0.23148  1.0000
  C   C642      1.0  0.77651  0.43867  0.16033  1.0000
  H   H1124     1.0  0.57958  0.25047  0.13429  1.0000
  H   H1125     1.0  0.71246  0.06013  0.21704  1.0000
  H   H1126     1.0  0.75903  0.44018  0.17673  1.0000
  H   H1127     1.0  0.55737  0.99586  0.18411  1.0000
  H   H1128     1.0  0.88952  0.23699  0.10337  1.0000
  H   H1129     1.0  0.92076  0.21335  0.11003  1.0000
  H   H1130     1.0  0.52334  0.00120  0.17688  1.0000
  C   C643      1.0  0.92386  0.25476  0.10141  1.0000
  H   H1131     1.0  0.68307  0.05701  0.24189  1.0000
  H   H1132     1.0  0.92890  0.41680  0.99207  1.0000
  H   H1133     1.0  0.96307  0.18546  0.02346  1.0000
  H   H1134     1.0  0.90185  0.21767  0.02842  1.0000
  C   C644      1.0  0.54355  0.36830  0.06056  1.0000
  H   H1135     1.0  0.90760  0.24403  0.05832  1.0000
  C   C645      1.0  0.50135  0.03650  0.31132  1.0000
  H   H1136     1.0  0.74897  0.15183  0.99665  1.0000
  H   H1137     1.0  0.82599  0.48561  0.30815  1.0000
  H   H1138     1.0  0.53585  0.24531  0.06750  1.0000
  S   S140      1.0  0.61848  0.35207  0.00403  1.0000
  H   H1139     1.0  0.54253  0.04181  0.16474  1.0000
  Fe  Fe72      1.0  0.60024  0.39499  0.01005  1.0000
  H   H1140     1.0  0.96301  0.19058  0.09172  1.0000
  H   H1141     1.0  0.86835  0.34931  0.02156  1.0000
  H   H1142     1.0  0.63216  0.16812  0.27662  1.0000
  C   C646      1.0  0.64094  0.99254  0.05920  1.0000
  C   C647      1.0  0.53524  0.00594  0.18965  1.0000
  H   H1143     1.0  0.55610  0.37268  0.04161  1.0000
  C   C648      1.0  0.54450  0.01357  0.28721  1.0000
  C   C649      1.0  0.94588  0.20658  0.99119  1.0000
  H   H1144     1.0  0.64305  0.00491  0.04034  1.0000
  C   C650      1.0  0.52419  0.01450  0.30914  1.0000
  H   H1145     1.0  0.89211  0.32591  0.00170  1.0000
  H   H1146     1.0  0.86709  0.43130  0.30080  1.0000
  C   C651      1.0  0.70084  0.99283  0.28180  1.0000
  H   H1147     1.0  0.49573  0.09112  0.14859  1.0000
  H   H1148     1.0  0.55592  0.27141  0.99167  1.0000
  H   H1149     1.0  0.96738  0.39583  0.20798  1.0000
  C   C652      1.0  0.50282  0.16856  0.04647  1.0000
  S   S141      1.0  0.97470  0.41231  0.30917  1.0000
  H   H1150     1.0  0.84516  0.44644  0.98629  1.0000
  C   C653      1.0  0.69053  0.31266  0.99090  1.0000
  H   H1151     1.0  0.66874  0.31409  0.99114  1.0000
  H   H1152     1.0  0.74406  0.98978  0.28262  1.0000
  C   C654      1.0  0.72383  0.98846  0.29374  1.0000
  C   C655      1.0  0.60076  0.47976  0.99249  1.0000
  Fe  Fe73      1.0  0.66584  0.99883  0.23619  1.0000
  H   H1153     1.0  0.83901  0.47453  0.01967  1.0000
  H   H1154     1.0  0.68178  0.47878  0.00781  1.0000
  S   S142      1.0  0.70565  0.99760  0.24869  1.0000
  H   H1155     1.0  0.52134  0.16070  0.03242  1.0000
  Fe  Fe74      1.0  0.49626  0.03570  0.08652  1.0000
  C   C656      1.0  0.74755  0.30745  0.98899  1.0000
  S   S143      1.0  0.59905  0.99858  0.21341  1.0000
  H   H1156     1.0  0.65665  0.99509  0.28726  1.0000
  C   C657      1.0  0.50165  0.14877  0.07089  1.0000
  C   C658      1.0  0.98333  0.38568  0.21997  1.0000
  S   S144      1.0  0.56442  0.39984  0.98986  1.0000
  C   C659      1.0  0.62579  0.24512  0.98821  1.0000
  H   H1157     1.0  0.49647  0.13073  0.06684  1.0000
  S   S145      1.0  0.49731  0.07324  0.05919  1.0000
  H   H1158     1.0  0.49501  0.20682  0.12369  1.0000
  C   C660      1.0  0.49950  0.13016  0.12645  1.0000
  C   C661      1.0  0.84620  0.47141  0.31039  1.0000
  H   H1159     1.0  0.76947  0.30582  0.98828  1.0000
  H   H1160     1.0  0.98301  0.42263  0.23206  1.0000
  H   H1161     1.0  0.51872  0.99079  0.01037  1.0000
  H   H1162     1.0  0.82960  0.43852  0.30517  1.0000
  S   S146      1.0  0.87905  0.19698  0.99044  1.0000
  C   C662      1.0  0.72756  0.22113  0.98804  1.0000
  C   C663      1.0  0.68485  0.99021  0.13177  1.0000
  H   H1163     1.0  0.94157  0.18823  0.98654  1.0000
  C   C664      1.0  0.62856  0.48754  0.99010  1.0000
  H   H1164     1.0  0.70573  0.22308  0.98562  1.0000
  H   H1165     1.0  0.92938  0.22423  0.98583  1.0000
  H   H1166     1.0  0.57278  0.98783  0.13706  1.0000
  C   C665      1.0  0.74338  0.17189  0.98538  1.0000
  H   H1167     1.0  0.62467  0.45628  0.60722  1.0000
  C   C666      1.0  0.52585  0.11203  0.36947  1.0000
  H   H1168     1.0  0.64604  0.46433  0.48519  1.0000
  H   H1169     1.0  0.72947  0.46160  0.53074  1.0000
  C   C667      1.0  0.50748  0.46358  0.49807  1.0000
  H   H1170     1.0  0.91098  0.48360  0.34587  1.0000
  H   H1171     1.0  0.53167  0.07077  0.34440  1.0000
  C   C668      1.0  0.95169  0.99464  0.61669  1.0000
  H   H1172     1.0  0.88412  0.12501  0.64705  1.0000
  H   H1173     1.0  0.78794  0.46284  0.49965  1.0000
  H   H1174     1.0  0.50287  0.38533  0.62138  1.0000
  S   S147      1.0  0.71648  0.40438  0.62595  1.0000
  C   C669      1.0  0.50920  0.13231  0.38809  1.0000
  C   C670      1.0  0.76514  0.46450  0.50177  1.0000
  H   H1175     1.0  0.57405  0.09041  0.33657  1.0000
  S   S148      1.0  0.55283  0.46830  0.54347  1.0000
  C   C671      1.0  0.56281  0.09027  0.32124  1.0000
  S   S149      1.0  0.97794  0.43595  0.37025  1.0000
  Fe  Fe75      1.0  0.53586  0.43546  0.56925  1.0000
  H   H1176     1.0  0.93084  0.15123  0.65141  1.0000
  Fe  Fe76      1.0  0.98806  0.44091  0.32784  1.0000
  H   H1177     1.0  0.59981  0.45048  0.64951  1.0000
  Fe  Fe77      1.0  0.58356  0.46076  0.56983  1.0000
  H   H1178     1.0  0.93747  0.99145  0.60511  1.0000
  H   H1179     1.0  0.88390  0.16051  0.63941  1.0000
  H   H1180     1.0  0.51885  0.10603  0.42252  1.0000
  H   H1181     1.0  0.50883  0.14139  0.42551  1.0000
  H   H1182     1.0  0.68392  0.42321  0.54513  1.0000
  S   S150      1.0  0.52111  0.40376  0.55618  1.0000
  H   H1183     1.0  0.49717  0.48489  0.50041  1.0000
  H   H1184     1.0  0.65979  0.43692  0.63550  1.0000
  S   S151      1.0  0.50578  0.46306  0.59476  1.0000
  H   H1185     1.0  0.75528  0.48446  0.49247  1.0000
  S   S152      1.0  0.56899  0.42535  0.59328  1.0000
  H   H1186     1.0  0.58285  0.37531  0.63034  1.0000
  C   C672      1.0  0.49816  0.39983  0.63533  1.0000
  C   C673      1.0  0.78225  0.44069  0.58402  1.0000
  C   C674      1.0  0.69099  0.41798  0.60667  1.0000
  C   C675      1.0  0.69755  0.41385  0.58120  1.0000
  C   C676      1.0  0.67839  0.42585  0.56497  1.0000
  C   C677      1.0  0.65197  0.44092  0.57437  1.0000
  C   C678      1.0  0.64487  0.44416  0.60008  1.0000
  C   C679      1.0  0.66465  0.43323  0.61607  1.0000
  H   H1187     1.0  0.71778  0.40190  0.57384  1.0000
  H   H1188     1.0  0.50835  0.45172  0.51705  1.0000
  S   S153      1.0  0.62909  0.45705  0.55323  1.0000
  C   C680      1.0  0.78749  0.41134  0.59608  1.0000
  H   H1189     1.0  0.94704  0.01625  0.64875  1.0000
  C   C681      1.0  0.98451  0.46590  0.43638  1.0000
  H   H1190     1.0  0.84595  0.46408  0.33079  1.0000
  H   H1191     1.0  0.90961  0.13626  0.62166  1.0000
  Fe  Fe78      1.0  0.54008  0.45611  0.61659  1.0000
  H   H1192     1.0  0.53680  0.14515  0.32981  1.0000
  H   H1193     1.0  0.77886  0.39924  0.58622  1.0000
  H   H1194     1.0  0.51685  0.19479  0.32446  1.0000
  H   H1195     1.0  0.77883  0.48097  0.54147  1.0000
  H   H1196     1.0  0.54312  0.12732  0.40888  1.0000
  H   H1197     1.0  0.86288  0.46206  0.38133  1.0000
  H   H1198     1.0  0.89908  0.45453  0.38463  1.0000
  C   C682      1.0  0.52082  0.12629  0.41271  1.0000
  H   H1199     1.0  0.52926  0.46255  0.48789  1.0000
  H   H1200     1.0  0.51108  0.15295  0.37964  1.0000
  C   C683      1.0  0.64752  0.48568  0.48219  1.0000
  C   C684      1.0  0.53161  0.09015  0.33183  1.0000
  H   H1201     1.0  0.79146  0.45175  0.59441  1.0000
  H   H1202     1.0  0.74096  0.43926  0.57882  1.0000
  C   C685      1.0  0.93370  0.01115  0.63741  1.0000
  H   H1203     1.0  0.52621  0.99822  0.32454  1.0000
  H   H1204     1.0  0.98787  0.45432  0.45507  1.0000
  H   H1205     1.0  0.57724  0.04664  0.32232  1.0000
  C   C686      1.0  0.89039  0.47830  0.34912  1.0000
  C   C687      1.0  0.89740  0.13986  0.64078  1.0000
  C   C688      1.0  0.57579  0.37822  0.65060  1.0000
  N   N36       1.0  0.51457  0.11359  0.34562  1.0000
  C   C689      1.0  0.51752  0.13930  0.32823  1.0000
  H   H1206     1.0  0.91905  0.99980  0.65016  1.0000
  H   H1207     1.0  0.96549  0.00697  0.60438  1.0000
  H   H1208     1.0  0.69594  0.47117  0.61171  1.0000
  Fe  Fe79      1.0  0.96654  0.48089  0.36545  1.0000
  S   S154      1.0  0.97309  0.48589  0.32304  1.0000
  C   C690      1.0  0.88187  0.47025  0.37751  1.0000
  H   H1209     1.0  0.54736  0.11542  0.36474  1.0000
  H   H1210     1.0  0.76203  0.44872  0.49204  1.0000
  H   H1211     1.0  0.50314  0.43103  0.48120  1.0000
  H   H1212     1.0  0.76185  0.44006  0.53774  1.0000
  H   H1213     1.0  0.49452  0.34987  0.50587  1.0000
  H   H1214     1.0  0.81028  0.40280  0.59478  1.0000
  H   H1215     1.0  0.96212  0.46928  0.43511  1.0000
  H   H1216     1.0  0.77760  0.40974  0.61639  1.0000
  H   H1217     1.0  0.79360  0.44116  0.56422  1.0000
  H   H1218     1.0  0.58868  0.41516  0.64537  1.0000
  H   H1219     1.0  0.52812  0.09139  0.38002  1.0000
  C   C691      1.0  0.75054  0.45317  0.58545  1.0000
  H   H1220     1.0  0.89308  0.46032  0.33975  1.0000
  N   N37       1.0  0.74287  0.48115  0.57170  1.0000
  C   C692      1.0  0.75601  0.48227  0.54403  1.0000
  C   C693      1.0  0.75192  0.46060  0.52975  1.0000
  H   H1221     1.0  0.74145  0.45291  0.60589  1.0000
  H   H1222     1.0  0.51232  0.41377  0.62874  1.0000
  H   H1223     1.0  0.70405  0.47445  0.56605  1.0000
  H   H1224     1.0  0.92128  0.03015  0.62871  1.0000
  H   H1225     1.0  0.66303  0.48735  0.49322  1.0000
  Fe  Fe80      1.0  0.71619  0.48065  0.67133  1.0000
  H   H1226     1.0  0.83826  0.41924  0.72301  1.0000
  H   H1227     1.0  0.98083  0.22268  0.73217  1.0000
  C   C694      1.0  0.59429  0.40766  0.72514  1.0000
  H   H1228     1.0  0.49690  0.45899  0.90182  1.0000
  H   H1229     1.0  0.68187  0.45662  0.77378  1.0000
  S   S155      1.0  0.57831  0.44819  0.92731  1.0000
  S   S156      1.0  0.85387  0.32626  0.95240  1.0000
  H   H1230     1.0  0.97226  0.06378  0.75247  1.0000
  H   H1231     1.0  0.65723  0.26834  0.97722  1.0000
  H   H1232     1.0  0.88932  0.99318  0.79484  1.0000
  Fe  Fe81      1.0  0.76178  0.42539  0.86962  1.0000
  H   H1233     1.0  0.86900  0.41571  0.89776  1.0000
  S   S157      1.0  0.76699  0.38071  0.87966  1.0000
  H   H1234     1.0  0.70625  0.09639  0.89455  1.0000
  H   H1235     1.0  0.58844  0.46095  0.75962  1.0000
  H   H1236     1.0  0.55320  0.38807  0.65353  1.0000
  C   C695      1.0  0.70390  0.44818  0.96974  1.0000
  H   H1237     1.0  0.50240  0.38855  0.65390  1.0000
  C   C696      1.0  0.93186  0.18407  0.68987  1.0000
  S   S158      1.0  0.74998  0.44650  0.65725  1.0000
  S   S159      1.0  0.93005  0.11474  0.82429  1.0000
  H   H1238     1.0  0.60099  0.38557  0.73045  1.0000
  Fe  Fe82      1.0  0.89147  0.10207  0.84652  1.0000
  S   S160      1.0  0.88268  0.06114  0.84914  1.0000
  H   H1239     1.0  0.76528  0.23200  0.96449  1.0000
  H   H1240     1.0  0.84418  0.13240  0.77509  1.0000
  H   H1241     1.0  0.64698  0.46199  0.96028  1.0000
  H   H1242     1.0  0.80687  0.20126  0.94151  1.0000
  H   H1243     1.0  0.64944  0.37409  0.71341  1.0000
  C   C697      1.0  0.86135  0.43903  0.92918  1.0000
  S   S161      1.0  0.90671  0.17042  0.85173  1.0000
  H   H1244     1.0  0.81359  0.41885  0.82176  1.0000
  Fe  Fe83      1.0  0.87002  0.15327  0.87127  1.0000
  C   C698      1.0  0.77535  0.45652  0.76824  1.0000
  H   H1245     1.0  0.89078  0.16994  0.72611  1.0000
  C   C699      1.0  0.72735  0.40521  0.94923  1.0000
  H   H1246     1.0  0.87736  0.13493  0.78063  1.0000
  C   C700      1.0  0.88814  0.04939  0.81986  1.0000
  C   C701      1.0  0.88576  0.02325  0.81898  1.0000
  C   C702      1.0  0.89811  0.02982  0.77317  1.0000
  C   C703      1.0  0.89922  0.05623  0.77412  1.0000
  C   C704      1.0  0.89476  0.06592  0.79740  1.0000
  H   H1247     1.0  0.90387  0.06900  0.75671  1.0000
  H   H1248     1.0  0.89632  0.08618  0.79795  1.0000
  H   H1249     1.0  0.56073  0.40941  0.68908  1.0000
  H   H1250     1.0  0.92154  0.19417  0.70692  1.0000
  H   H1251     1.0  0.56795  0.38544  0.77142  1.0000
  C   C705      1.0  0.98610  0.08525  0.87132  1.0000
  H   H1252     1.0  0.57348  0.41743  0.77555  1.0000
  H   H1253     1.0  0.94567  0.27682  0.93222  1.0000
  H   H1254     1.0  0.87310  0.32464  0.76178  1.0000
  C   C706      1.0  0.82935  0.34134  0.93256  1.0000
  C   C707      1.0  0.83336  0.36402  0.91534  1.0000
  C   C708      1.0  0.81405  0.37648  0.89930  1.0000
  C   C709      1.0  0.79108  0.36582  0.89995  1.0000
  C   C710      1.0  0.78760  0.34258  0.91656  1.0000
  C   C711      1.0  0.80640  0.33065  0.93321  1.0000
  H   H1255     1.0  0.85128  0.37211  0.91461  1.0000
  H   H1256     1.0  0.81719  0.39407  0.88619  1.0000
  H   H1257     1.0  0.76990  0.33423  0.91701  1.0000
  H   H1258     1.0  0.80314  0.31317  0.94643  1.0000
  H   H1259     1.0  0.82409  0.21013  0.97779  1.0000
  H   H1260     1.0  0.80853  0.02601  0.92728  1.0000
  H   H1261     1.0  0.55603  0.43861  0.73597  1.0000
  C   C712      1.0  0.50999  0.47800  0.67064  1.0000
  C   C713      1.0  0.82069  0.42968  0.73558  1.0000
  H   H1262     1.0  0.51652  0.45687  0.95201  1.0000
  H   H1263     1.0  0.85747  0.00357  0.90956  1.0000
  C   C714      1.0  0.70014  0.42611  0.95560  1.0000
  S   S162      1.0  0.71630  0.40634  0.69837  1.0000
  H   H1264     1.0  0.58431  0.37925  0.69677  1.0000
  C   C715      1.0  0.96364  0.07043  0.73476  1.0000
  C   C716      1.0  0.72978  0.25554  0.94869  1.0000
  C   C717      1.0  0.60505  0.46181  0.90759  1.0000
  H   H1265     1.0  0.85129  0.00171  0.94360  1.0000
  H   H1266     1.0  0.91810  0.40489  0.94204  1.0000
  C   C718      1.0  0.60127  0.45960  0.66576  1.0000
  H   H1267     1.0  0.80232  0.14049  0.94031  1.0000
  H   H1268     1.0  0.74222  0.26049  0.92981  1.0000
  H   H1269     1.0  0.84295  0.40899  0.79720  1.0000
  N   N38       1.0  0.62750  0.40787  0.84093  1.0000
  C   C719      1.0  0.60755  0.43437  0.83494  1.0000
  C   C720      1.0  0.61065  0.38802  0.85536  1.0000
  C   C721      1.0  0.64721  0.41203  0.85639  1.0000
  C   C722      1.0  0.64453  0.39687  0.81716  1.0000
  C   C723      1.0  0.62786  0.39503  0.79690  1.0000
  C   C724      1.0  0.62056  0.45675  0.81774  1.0000
  C   C725      1.0  0.66703  0.38618  0.86710  1.0000
  C   C726      1.0  0.59362  0.39472  0.88164  1.0000
  H   H1270     1.0  0.68030  0.47725  0.92951  1.0000
  C   C727      1.0  0.64675  0.37921  0.77603  1.0000
  S   S163      1.0  0.82200  0.26312  0.97996  1.0000
  C   C728      1.0  0.68595  0.39275  0.88245  1.0000
  H   H1271     1.0  0.59673  0.44304  0.85270  1.0000
  H   H1272     1.0  0.59075  0.43136  0.82613  1.0000
  H   H1273     1.0  0.59505  0.38636  0.84447  1.0000
  H   H1274     1.0  0.62422  0.36742  0.85780  1.0000
  H   H1275     1.0  0.63536  0.42304  0.87245  1.0000
  H   H1276     1.0  0.66083  0.42525  0.84496  1.0000
  H   H1277     1.0  0.66015  0.40894  0.80785  1.0000
  H   H1278     1.0  0.65702  0.37623  0.82200  1.0000
  H   H1279     1.0  0.61863  0.41538  0.78800  1.0000
  H   H1280     1.0  0.61073  0.38465  0.80504  1.0000
  H   H1281     1.0  0.63525  0.46249  0.82709  1.0000
  H   H1282     1.0  0.63188  0.45037  0.79923  1.0000
  H   H1283     1.0  0.68085  0.37541  0.85156  1.0000
  H   H1284     1.0  0.65511  0.37231  0.87986  1.0000
  H   H1285     1.0  0.60729  0.39685  0.89418  1.0000
  H   H1286     1.0  0.57745  0.41371  0.87987  1.0000
  C   C729      1.0  0.97976  0.04338  0.86238  1.0000
  C   C730      1.0  0.96258  0.41231  0.96043  1.0000
  H   H1287     1.0  0.96218  0.11187  0.73405  1.0000
  H   H1288     1.0  0.66425  0.38882  0.76667  1.0000
  H   H1289     1.0  0.65536  0.35818  0.78389  1.0000
  H   H1290     1.0  0.63456  0.37876  0.76150  1.0000
  H   H1291     1.0  0.93707  0.38524  0.98013  1.0000
  H   H1292     1.0  0.94182  0.00806  0.82834  1.0000
  C   C731      1.0  0.67161  0.36849  0.67564  1.0000
  H   H1293     1.0  0.67346  0.40103  0.89986  1.0000
  H   H1294     1.0  0.70106  0.37412  0.88845  1.0000
  H   H1295     1.0  0.69799  0.40733  0.87107  1.0000
  C   C732      1.0  0.56360  0.41642  0.73882  1.0000
  C   C733      1.0  0.72537  0.14870  0.95726  1.0000
  H   H1296     1.0  0.54956  0.40732  0.73169  1.0000
  Fe  Fe84      1.0  0.71527  0.42636  0.65843  1.0000
  Fe  Fe85      1.0  0.64261  0.36918  0.96822  1.0000
  C   C734      1.0  0.98415  0.19128  0.81814  1.0000
  H   H1297     1.0  0.97252  0.19182  0.68965  1.0000
  H   H1298     1.0  0.51512  0.47527  0.86200  1.0000
  H   H1299     1.0  0.97359  0.01008  0.68901  1.0000
  H   H1300     1.0  0.90559  0.16347  0.95116  1.0000
  H   H1301     1.0  0.59335  0.01248  0.97851  1.0000
  C   C735      1.0  0.50741  0.46777  0.91318  1.0000
  H   H1302     1.0  0.79100  0.41280  0.95878  1.0000
  C   C736      1.0  0.80245  0.45742  0.76960  1.0000
  H   H1303     1.0  0.76163  0.17267  0.96980  1.0000
  C   C737      1.0  0.94156  0.15334  0.69756  1.0000
  S   S164      1.0  0.74668  0.44342  0.83326  1.0000
  H   H1304     1.0  0.94695  0.07847  0.86726  1.0000
  H   H1305     1.0  0.96624  0.03212  0.85844  1.0000
  C   C738      1.0  0.87576  0.13437  0.74123  1.0000
  H   H1306     1.0  0.93009  0.17525  0.89565  1.0000
  H   H1307     1.0  0.88077  0.44625  0.92155  1.0000
  H   H1308     1.0  0.90576  0.36359  0.97067  1.0000
  H   H1309     1.0  0.72462  0.39206  0.93641  1.0000
  S   S165      1.0  0.86240  0.14156  0.83629  1.0000
  C   C739      1.0  0.79351  0.42907  0.73404  1.0000
  H   H1310     1.0  0.97853  0.40396  0.97277  1.0000
  S   S166      1.0  0.61112  0.37167  0.94431  1.0000
  S   S167      1.0  0.68141  0.46182  0.66921  1.0000
  H   H1311     1.0  0.71389  0.44694  0.78627  1.0000
  H   H1312     1.0  0.63842  0.43473  0.92447  1.0000
  H   H1313     1.0  0.84468  0.45600  0.93642  1.0000
  C   C740      1.0  0.93267  0.99362  0.90074  1.0000
  C   C741      1.0  0.81755  0.12131  0.94456  1.0000
  Fe  Fe86      1.0  0.93180  0.12868  0.86047  1.0000
  H   H1314     1.0  0.74907  0.21372  0.94911  1.0000
  H   H1315     1.0  0.56563  0.45035  0.69259  1.0000
  H   H1316     1.0  0.93080  0.11609  0.65927  1.0000
  H   H1317     1.0  0.68591  0.38173  0.67478  1.0000
  C   C742      1.0  0.88404  0.17176  0.94909  1.0000
  H   H1318     1.0  0.84614  0.44497  0.75408  1.0000
  C   C743      1.0  0.65422  0.46084  0.89246  1.0000
  Fe  Fe87      1.0  0.76187  0.47960  0.88295  1.0000
  H   H1319     1.0  0.88258  0.11224  0.74305  1.0000
  C   C744      1.0  0.93901  0.18133  0.76485  1.0000
  C   C745      1.0  0.85211  0.43105  0.90724  1.0000
  S   S168      1.0  0.89553  0.11279  0.88332  1.0000
  C   C746      1.0  0.78119  0.45221  0.93770  1.0000
  C   C747      1.0  0.78825  0.43417  0.95887  1.0000
  C   C748      1.0  0.51023  0.42222  0.94027  1.0000
  H   H1320     1.0  0.94187  0.18566  0.92057  1.0000
  H   H1321     1.0  0.96304  0.03307  0.79034  1.0000
  Fe  Fe88      1.0  0.90158  0.15526  0.81745  1.0000
  N   N39       1.0  0.88722  0.25706  0.89808  1.0000
  C   C749      1.0  0.90307  0.27219  0.90874  1.0000
  C   C750      1.0  0.88904  0.26644  0.87013  1.0000
  C   C751      1.0  0.85734  0.26246  0.91186  1.0000
  C   C752      1.0  0.89933  0.22714  0.90174  1.0000
  C   C753      1.0  0.93075  0.21783  0.89035  1.0000
  C   C754      1.0  0.90824  0.26161  0.93614  1.0000
  C   C755      1.0  0.83634  0.25329  0.90018  1.0000
  C   C756      1.0  0.87543  0.29654  0.86296  1.0000
  C   C757      1.0  0.87660  0.30320  0.83439  1.0000
  C   C758      1.0  0.95668  0.19637  0.67718  1.0000
  C   C759      1.0  0.92482  0.27832  0.94453  1.0000
  C   C760      1.0  0.80686  0.25992  0.91562  1.0000
  H   H1322     1.0  0.89164  0.29365  0.90896  1.0000
  H   H1323     1.0  0.92356  0.27297  0.89630  1.0000
  H   H1324     1.0  0.91127  0.26344  0.86057  1.0000
  H   H1325     1.0  0.88006  0.25383  0.86107  1.0000
  H   H1326     1.0  0.84913  0.28424  0.91377  1.0000
  H   H1327     1.0  0.85627  0.25218  0.93162  1.0000
  H   H1328     1.0  0.89593  0.21911  0.92219  1.0000
  H   H1329     1.0  0.88806  0.21636  0.89301  1.0000
  H   H1330     1.0  0.94371  0.22970  0.89535  1.0000
  H   H1331     1.0  0.93354  0.21985  0.86939  1.0000
  H   H1332     1.0  0.88809  0.26270  0.94945  1.0000
  H   H1333     1.0  0.92046  0.24049  0.93774  1.0000
  H   H1334     1.0  0.84244  0.23134  0.89951  1.0000
  H   H1335     1.0  0.83521  0.26338  0.88064  1.0000
  H   H1336     1.0  0.85322  0.30197  0.87220  1.0000
  H   H1337     1.0  0.88673  0.30960  0.86868  1.0000
  H   H1338     1.0  0.89850  0.29820  0.82416  1.0000
  H   H1339     1.0  0.86400  0.29192  0.82789  1.0000
  H   H1340     1.0  0.86802  0.32502  0.82969  1.0000
  H   H1341     1.0  0.68217  0.34752  0.68189  1.0000
  C   C761      1.0  0.71811  0.17149  0.97358  1.0000
  C   C762      1.0  0.70480  0.32985  0.97339  1.0000
  N   N40       1.0  0.68145  0.47401  0.96941  1.0000
  C   C763      1.0  0.61585  0.29368  0.97778  1.0000
  C   C764      1.0  0.50282  0.45265  0.94047  1.0000
  H   H1342     1.0  0.79257  0.25235  0.90724  1.0000
  H   H1343     1.0  0.80643  0.25022  0.93545  1.0000
  H   H1344     1.0  0.79909  0.28197  0.91556  1.0000
  H   H1345     1.0  0.84479  0.41197  0.96012  1.0000
  H   H1346     1.0  0.53871  0.41372  0.77652  1.0000
  Fe  Fe89      1.0  0.59343  0.41301  0.95535  1.0000
  H   H1347     1.0  0.88723  0.16233  0.68482  1.0000
  H   H1348     1.0  0.86892  0.36509  0.97573  1.0000
  H   H1349     1.0  0.95372  0.15122  0.71276  1.0000
  H   H1350     1.0  0.74995  0.44181  0.74946  1.0000
  C   C765      1.0  0.93434  0.40726  0.97452  1.0000
  H   H1351     1.0  0.83683  0.12613  0.94740  1.0000
  C   C766      1.0  0.87445  0.16717  0.92828  1.0000
  C   C767      1.0  0.89098  0.01337  0.79561  1.0000
  C   C768      1.0  0.98227  0.04854  0.67371  1.0000
  H   H1352     1.0  0.97533  0.19625  0.80041  1.0000
  C   C769      1.0  0.98503  0.15560  0.74809  1.0000
  H   H1353     1.0  0.72998  0.06880  0.87971  1.0000
  H   H1354     1.0  0.68476  0.41525  0.96771  1.0000
  N   N41       1.0  0.88171  0.41850  0.97022  1.0000
  C   C770      1.0  0.58334  0.39971  0.68604  1.0000
  H   H1355     1.0  0.96133  0.43423  0.95534  1.0000
  H   H1356     1.0  0.70683  0.14878  0.94927  1.0000
  H   H1357     1.0  0.71139  0.19055  0.96133  1.0000
  C   C771      1.0  0.94234  0.18837  0.89983  1.0000
  C   C772      1.0  0.90112  0.14182  0.68610  1.0000
  S   S169      1.0  0.79523  0.44829  0.86366  1.0000
  Fe  Fe90      1.0  0.84030  0.29638  0.98476  1.0000
  H   H1358     1.0  0.98794  0.01873  0.81119  1.0000
  H   H1359     1.0  0.67573  0.45171  0.89368  1.0000
  C   C773      1.0  0.63514  0.26892  0.98044  1.0000
  H   H1360     1.0  0.88026  0.01056  0.83635  1.0000
  C   C774      1.0  0.64749  0.48143  0.87293  1.0000
  C   C775      1.0  0.84672  0.17827  0.92530  1.0000
  H   H1361     1.0  0.61476  0.38549  0.65310  1.0000
  H   H1362     1.0  0.98128  0.06879  0.71854  1.0000
  C   C776      1.0  0.86613  0.18814  0.96647  1.0000
  N   N42       1.0  0.79110  0.35779  0.79569  1.0000
  C   C777      1.0  0.81603  0.33868  0.78277  1.0000
  C   C778      1.0  0.77689  0.34345  0.81961  1.0000
  C   C779      1.0  0.77054  0.36734  0.77768  1.0000
  C   C780      1.0  0.79877  0.38213  0.80122  1.0000
  C   C781      1.0  0.82268  0.37675  0.81643  1.0000
  C   C782      1.0  0.83229  0.35081  0.75771  1.0000
  C   C783      1.0  0.74191  0.38531  0.78801  1.0000
  C   C784      1.0  0.79558  0.32076  0.83513  1.0000
  C   C785      1.0  0.77831  0.30995  0.85956  1.0000
  H   H1363     1.0  0.96628  0.20929  0.97978  1.0000
  C   C786      1.0  0.85862  0.33041  0.74794  1.0000
  C   C787      1.0  0.72262  0.39199  0.76850  1.0000
  H   H1364     1.0  0.80932  0.32136  0.77850  1.0000
  H   H1365     1.0  0.83144  0.32964  0.79544  1.0000
  H   H1366     1.0  0.76430  0.35821  0.83267  1.0000
  H   H1367     1.0  0.76164  0.33358  0.81508  1.0000
  H   H1368     1.0  0.76648  0.34982  0.77105  1.0000
  H   H1369     1.0  0.77932  0.37938  0.76041  1.0000
  H   H1370     1.0  0.80402  0.39541  0.78337  1.0000
  H   H1371     1.0  0.78050  0.39481  0.81228  1.0000
  H   H1372     1.0  0.84140  0.36228  0.80840  1.0000
  H   H1373     1.0  0.81537  0.36932  0.83645  1.0000
  H   H1374     1.0  0.81937  0.35662  0.74263  1.0000
  H   H1375     1.0  0.83887  0.36878  0.76037  1.0000
  H   H1376     1.0  0.74474  0.40451  0.79206  1.0000
  H   H1377     1.0  0.73114  0.37533  0.80562  1.0000
  H   H1378     1.0  0.80531  0.30357  0.82413  1.0000
  H   H1379     1.0  0.81237  0.32773  0.84026  1.0000
  H   H1380     1.0  0.79204  0.29364  0.87015  1.0000
  H   H1381     1.0  0.76843  0.32605  0.87180  1.0000
  H   H1382     1.0  0.76175  0.30172  0.85534  1.0000
  H   H1383     1.0  0.92785  0.27081  0.96432  1.0000
  H   H1384     1.0  0.87646  0.39688  0.94160  1.0000
  S   S170      1.0  0.72991  0.45478  0.89256  1.0000
  C   C788      1.0  0.64447  0.37716  0.69406  1.0000
  H   H1385     1.0  0.85317  0.31214  0.74440  1.0000
  H   H1386     1.0  0.86953  0.33946  0.72983  1.0000
  H   H1387     1.0  0.70260  0.40554  0.77572  1.0000
  H   H1388     1.0  0.73232  0.40234  0.75052  1.0000
  H   H1389     1.0  0.71817  0.37341  0.76457  1.0000
  C   C789      1.0  0.90038  0.14812  0.72977  1.0000
  H   H1390     1.0  0.98430  0.14966  0.82238  1.0000
  H   H1391     1.0  0.91308  0.14646  0.74451  1.0000
  N   N43       1.0  0.91876  0.13803  0.70616  1.0000
  Fe  Fe91      1.0  0.74800  0.42973  0.69814  1.0000
  C   C790      1.0  0.59790  0.48203  0.81255  1.0000
  C   C791      1.0  0.93219  0.10850  0.71113  1.0000
  C   C792      1.0  0.94710  0.09960  0.73439  1.0000
  H   H1392     1.0  0.88865  0.15539  0.91438  1.0000
  C   C793      1.0  0.56090  0.40763  0.76733  1.0000
  C   C794      1.0  0.82841  0.19313  0.94357  1.0000
  H   H1393     1.0  0.92139  0.01183  0.88984  1.0000
  C   C795      1.0  0.63023  0.40716  0.68720  1.0000
  H   H1394     1.0  0.74417  0.34070  0.95919  1.0000
  H   H1395     1.0  0.59271  0.45533  0.70592  1.0000
  H   H1396     1.0  0.53013  0.46214  0.90526  1.0000
  C   C796      1.0  0.98894  0.02047  0.67778  1.0000
  H   H1397     1.0  0.91692  0.09583  0.71303  1.0000
  H   H1398     1.0  0.64114  0.41947  0.69461  1.0000
  H   H1399     1.0  0.93173  0.10132  0.75229  1.0000
  H   H1400     1.0  0.74345  0.10408  0.91303  1.0000
  H   H1401     1.0  0.96939  0.40240  0.94294  1.0000
  H   H1402     1.0  0.95034  0.05682  0.73356  1.0000
  C   C797      1.0  0.69327  0.46119  0.78721  1.0000
  S   S171      1.0  0.83481  0.17465  0.89848  1.0000
  H   H1403     1.0  0.70901  0.25398  0.94605  1.0000
  H   H1404     1.0  0.82174  0.04779  0.94147  1.0000
  C   C798      1.0  0.77787  0.47977  0.93767  1.0000
  H   H1405     1.0  0.96167  0.05937  0.68145  1.0000
  H   H1406     1.0  0.99025  0.00367  0.78310  1.0000
  S   S172      1.0  0.78806  0.41053  0.71243  1.0000
  H   H1407     1.0  0.94799  0.10231  0.69453  1.0000
  C   C799      1.0  0.65328  0.46683  0.97698  1.0000
  N   N44       1.0  0.80267  0.07980  0.89769  1.0000
  C   C800      1.0  0.80903  0.09677  0.87257  1.0000
  C   C801      1.0  0.79839  0.09665  0.91871  1.0000
  C   C802      1.0  0.82692  0.05582  0.89962  1.0000
  C   C803      1.0  0.77652  0.06997  0.89975  1.0000
  C   C804      1.0  0.74968  0.09226  0.89679  1.0000
  C   C805      1.0  0.80763  0.08487  0.84873  1.0000
  C   C806      1.0  0.82547  0.03676  0.92497  1.0000
  C   C807      1.0  0.82467  0.10455  0.92265  1.0000
  H   H1408     1.0  0.72087  0.06637  0.91393  1.0000
  C   C808      1.0  0.82514  0.44426  0.75306  1.0000
  C   C809      1.0  0.81694  0.10224  0.82430  1.0000
  H   H1409     1.0  0.88665  0.12795  0.69151  1.0000
  H   H1410     1.0  0.83034  0.10050  0.86990  1.0000
  H   H1411     1.0  0.79488  0.11717  0.87219  1.0000
  H   H1412     1.0  0.78284  0.11589  0.91520  1.0000
  H   H1413     1.0  0.78912  0.08646  0.93707  1.0000
  H   H1414     1.0  0.84687  0.06244  0.89593  1.0000
  H   H1415     1.0  0.82931  0.04311  0.88454  1.0000
  H   H1416     1.0  0.77969  0.05559  0.88590  1.0000
  H   H1417     1.0  0.77173  0.05820  0.91862  1.0000
  H   H1418     1.0  0.75263  0.10634  0.87915  1.0000
  C   C810      1.0  0.72529  0.08009  0.89622  1.0000
  H   H1419     1.0  0.82123  0.06441  0.84789  1.0000
  H   H1420     1.0  0.78600  0.08367  0.84862  1.0000
  H   H1421     1.0  0.74468  0.41482  0.93937  1.0000
  H   H1422     1.0  0.83316  0.42289  0.91411  1.0000
  H   H1423     1.0  0.84117  0.08663  0.92733  1.0000
  H   H1424     1.0  0.83338  0.11655  0.90530  1.0000
  H   H1425     1.0  0.85956  0.14077  0.72903  1.0000
  C   C811      1.0  0.97444  0.20419  0.74037  1.0000
  C   C812      1.0  0.74500  0.22912  0.96197  1.0000
  N   N45       1.0  0.59924  0.41488  0.69671  1.0000
  H   H1426     1.0  0.77841  0.44473  0.92138  1.0000
  H   H1427     1.0  0.53246  0.41541  0.93150  1.0000
  H   H1428     1.0  0.83948  0.10169  0.82198  1.0000
  H   H1429     1.0  0.81387  0.09420  0.80781  1.0000
  H   H1430     1.0  0.80471  0.12337  0.82429  1.0000
  C   C813      1.0  0.95629  0.99636  0.81377  1.0000
  C   C814      1.0  0.96882  0.06993  0.86712  1.0000
  C   C815      1.0  0.86208  0.14202  0.76755  1.0000
  C   C816      1.0  0.94711  0.20508  0.75341  1.0000
  H   H1431     1.0  0.66735  0.36949  0.65628  1.0000
  H   H1432     1.0  0.85437  0.16417  0.76682  1.0000
  H   H1433     1.0  0.91713  0.18888  0.67641  1.0000
  H   H1434     1.0  0.63087  0.36356  0.69378  1.0000
  H   H1435     1.0  0.59380  0.35309  0.89791  1.0000
  C   C817      1.0  0.57853  0.37251  0.89460  1.0000
  H   H1436     1.0  0.96432  0.18179  0.89026  1.0000
  H   H1437     1.0  0.74275  0.15146  0.94135  1.0000
  C   C818      1.0  0.73328  0.32714  0.97243  1.0000
  H   H1438     1.0  0.80878  0.11001  0.96240  1.0000
  C   C819      1.0  0.77087  0.44255  0.75034  1.0000
  H   H1439     1.0  0.56619  0.37775  0.91323  1.0000
  S   S173      1.0  0.68762  0.35480  0.95251  1.0000
  C   C820      1.0  0.63301  0.45115  0.90991  1.0000
  C   C821      1.0  0.86580  0.41528  0.95077  1.0000
  H   H1440     1.0  0.51581  0.46358  0.70913  1.0000
  C   C822      1.0  0.83193  0.40253  0.81633  1.0000
  C   C823      1.0  0.85286  0.01555  0.92558  1.0000
  C   C824      1.0  0.95813  0.15656  0.76251  1.0000
  H   H1441     1.0  0.84702  0.44901  0.89312  1.0000
  H   H1442     1.0  0.56399  0.37008  0.88294  1.0000
  S   S174      1.0  0.97255  0.11945  0.87393  1.0000
  C   C825      1.0  0.59832  0.48279  0.88839  1.0000
  H   H1443     1.0  0.95719  0.14453  0.68169  1.0000
  S   S175      1.0  0.90420  0.01856  0.74357  1.0000
  H   H1444     1.0  0.72694  0.27222  0.95987  1.0000
  Fe  Fe92      1.0  0.58533  0.35815  0.98070  1.0000
  H   H1445     1.0  0.62351  0.45891  0.66551  1.0000
  H   H1446     1.0  0.63486  0.41219  0.66636  1.0000
  Fe  Fe93      1.0  0.68516  0.44378  0.70917  1.0000
  H   H1447     1.0  0.84629  0.39918  0.83002  1.0000
  H   H1448     1.0  0.93239  0.22424  0.75508  1.0000
  S   S176      1.0  0.62732  0.41172  0.97633  1.0000
  H   H1449     1.0  0.94423  0.00028  0.91273  1.0000
  S   S177      1.0  0.90456  0.18306  0.78095  1.0000
  S   S178      1.0  0.64689  0.44169  0.73879  1.0000
  C   C826      1.0  0.91166  0.41782  0.95755  1.0000
  C   C827      1.0  0.58864  0.44508  0.69124  1.0000
  H   H1450     1.0  0.72474  0.45251  0.96149  1.0000
  H   H1451     1.0  0.68172  0.45830  0.80684  1.0000
  H   H1452     1.0  0.95192  0.13814  0.77121  1.0000
  H   H1453     1.0  0.91346  0.29976  0.94374  1.0000
  H   H1454     1.0  0.87042  0.02528  0.92432  1.0000
  H   H1455     1.0  0.69235  0.43453  0.93772  1.0000
  H   H1456     1.0  0.58144  0.47728  0.80463  1.0000
  H   H1457     1.0  0.96656  0.18837  0.65897  1.0000
  H   H1458     1.0  0.60730  0.41670  0.73364  1.0000
  C   C828      1.0  0.50627  0.48013  0.69644  1.0000
  S   S179      1.0  0.71691  0.46578  0.71235  1.0000
  C   C829      1.0  0.83820  0.19834  0.96394  1.0000
  H   H1459     1.0  0.62323  0.31198  0.97220  1.0000
  H   H1460     1.0  0.86934  0.46213  0.96419  1.0000
  H   H1461     1.0  0.57899  0.35814  0.66212  1.0000
  H   H1462     1.0  0.91366  0.43822  0.94796  1.0000
  S   S180      1.0  0.80815  0.47406  0.79255  1.0000
  S   S181      1.0  0.53013  0.44855  0.65887  1.0000
  C   C830      1.0  0.97570  0.01397  0.79862  1.0000
  H   H1463     1.0  0.96662  0.19490  0.83433  1.0000
  H   H1464     1.0  0.94951  0.21854  0.67324  1.0000
  H   H1465     1.0  0.50725  0.41195  0.96001  1.0000
  Fe  Fe94      1.0  0.71769  0.47496  0.85559  1.0000
  C   C831      1.0  0.59244  0.39575  0.65766  1.0000
  H   H1466     1.0  0.94459  0.99247  0.80033  1.0000
  H   H1467     1.0  0.59659  0.47864  0.97355  1.0000
  H   H1468     1.0  0.73304  0.39236  0.96665  1.0000
  C   C832      1.0  0.62511  0.47396  0.73863  1.0000
  H   H1469     1.0  0.98599  0.08223  0.78503  1.0000
  C   C833      1.0  0.59709  0.47798  0.75062  1.0000
  H   H1470     1.0  0.73138  0.12893  0.96882  1.0000
  C   C834      1.0  0.88596  0.36749  0.98448  1.0000
  C   C835      1.0  0.58720  0.29467  0.98251  1.0000
  H   H1471     1.0  0.75786  0.46705  0.78072  1.0000
  Fe  Fe95      1.0  0.77793  0.46853  0.82870  1.0000
  C   C836      1.0  0.86785  0.44524  0.97973  1.0000
  C   C837      1.0  0.91740  0.13674  0.65914  1.0000
  C   C838      1.0  0.78845  0.47132  0.98008  1.0000
  C   C839      1.0  0.79153  0.44377  0.98015  1.0000
  H   H1472     1.0  0.49669  0.41631  0.92969  1.0000
  S   S182      1.0  0.56277  0.32564  0.98312  1.0000
  C   C840      1.0  0.83574  0.54506  0.20301  1.0000
  C   C841      1.0  0.57258  0.95545  0.01395  1.0000
  H   H1473     1.0  0.51441  0.92006  0.20959  1.0000
  H   H1474     1.0  0.93685  0.54713  0.27627  1.0000
  H   H1475     1.0  0.80559  0.92829  0.25276  1.0000
  H   H1476     1.0  0.70585  0.51097  0.02131  1.0000
  C   C842      1.0  0.84166  0.74298  0.29211  1.0000
  H   H1477     1.0  0.95018  0.60120  0.11232  1.0000
  H   H1478     1.0  0.68329  0.91180  0.22440  1.0000
  H   H1479     1.0  0.80402  0.53872  0.12787  1.0000
  Fe  Fe96      1.0  0.93314  0.61577  0.26604  1.0000
  H   H1480     1.0  0.54906  0.88852  0.99565  1.0000
  C   C843      1.0  0.84439  0.86943  0.24654  1.0000
  H   H1481     1.0  0.59412  0.94423  0.01646  1.0000
  H   H1482     1.0  0.82965  0.52563  0.20481  1.0000
  H   H1483     1.0  0.84772  0.73247  0.27499  1.0000
  C   C844      1.0  0.56146  0.92260  0.22952  1.0000
  C   C845      1.0  0.93555  0.65630  0.17647  1.0000
  C   C846      1.0  0.57726  0.97634  0.99017  1.0000
  H   H1484     1.0  0.92452  0.87663  0.30029  1.0000
  H   H1485     1.0  0.71340  0.85501  0.29946  1.0000
  S   S183      1.0  0.91963  0.65503  0.24263  1.0000
  H   H1486     1.0  0.94105  0.60699  0.16447  1.0000
  H   H1487     1.0  0.61484  0.90956  0.11640  1.0000
  H   H1488     1.0  0.74207  0.80918  0.29811  1.0000
  C   C847      1.0  0.55946  0.92847  0.98699  1.0000
  H   H1489     1.0  0.51418  0.97191  0.98719  1.0000
  C   C848      1.0  0.79706  0.56057  0.12953  1.0000
  Fe  Fe97      1.0  0.92242  0.52571  0.15277  1.0000
  S   S184      1.0  0.90625  0.56926  0.13878  1.0000
  H   H1490     1.0  0.58173  0.92699  0.05695  1.0000
  Fe  Fe98      1.0  0.64127  0.97158  0.20490  1.0000
  C   C849      1.0  0.89945  0.79902  0.29115  1.0000
  H   H1491     1.0  0.84835  0.88996  0.24295  1.0000
  H   H1492     1.0  0.80007  0.56925  0.18768  1.0000
  H   H1493     1.0  0.69612  0.92694  0.26413  1.0000
  H   H1494     1.0  0.60044  0.87852  0.06355  1.0000
  H   H1495     1.0  0.73478  0.52098  0.99926  1.0000
  H   H1496     1.0  0.71185  0.89318  0.20386  1.0000
  H   H1497     1.0  0.89789  0.80840  0.27148  1.0000
  H   H1498     1.0  0.86006  0.85695  0.23312  1.0000
  S   S185      1.0  0.85358  0.64996  0.21984  1.0000
  H   H1499     1.0  0.96992  0.57560  0.31220  1.0000
  C   C850      1.0  0.62770  0.96983  0.05711  1.0000
  H   H1500     1.0  0.98661  0.60063  0.10052  1.0000
  H   H1501     1.0  0.97974  0.65964  0.27845  1.0000
  H   H1502     1.0  0.60498  0.91636  0.21098  1.0000
  C   C851      1.0  0.56713  0.91409  0.05759  1.0000
  H   H1503     1.0  0.59380  0.88601  0.22505  1.0000
  S   S186      1.0  0.89206  0.49926  0.16307  1.0000
  H   H1504     1.0  0.82309  0.87085  0.24307  1.0000
  C   C852      1.0  0.87993  0.89009  0.31129  1.0000
  H   H1505     1.0  0.56704  0.92475  0.24759  1.0000
  H   H1506     1.0  0.54663  0.92329  0.06846  1.0000
  H   H1507     1.0  0.82822  0.55325  0.22138  1.0000
  C   C853      1.0  0.84587  0.55872  0.31358  1.0000
  S   S187      1.0  0.56986  0.95190  0.10287  1.0000
  C   C854      1.0  0.59142  0.94885  0.12505  1.0000
  H   H1508     1.0  0.97956  0.64464  0.16424  1.0000
  C   C855      1.0  0.89162  0.59081  0.16197  1.0000
  C   C856      1.0  0.89464  0.58262  0.18727  1.0000
  C   C857      1.0  0.88321  0.60072  0.20521  1.0000
  C   C858      1.0  0.86819  0.62676  0.19796  1.0000
  C   C859      1.0  0.86486  0.63465  0.17271  1.0000
  C   C860      1.0  0.87697  0.61690  0.15470  1.0000
  H   H1509     1.0  0.90604  0.56253  0.19300  1.0000
  H   H1510     1.0  0.88571  0.59436  0.22466  1.0000
  H   H1511     1.0  0.85343  0.65477  0.16700  1.0000
  H   H1512     1.0  0.87490  0.62340  0.13509  1.0000
  N   N46       1.0  0.84577  0.81386  0.30557  1.0000
  H   H1513     1.0  0.93061  0.66657  0.15778  1.0000
  H   H1514     1.0  0.76762  0.87287  0.27292  1.0000
  C   C861      1.0  0.90378  0.52904  0.27240  1.0000
  H   H1515     1.0  0.56571  0.87248  0.07312  1.0000
  C   C862      1.0  0.56435  0.91054  0.03060  1.0000
  H   H1516     1.0  0.85868  0.49499  0.99610  1.0000
  H   H1517     1.0  0.72902  0.55655  0.15873  1.0000
  H   H1518     1.0  0.80377  0.57710  0.30603  1.0000
  Fe  Fe99      1.0  0.87795  0.64438  0.25113  1.0000
  H   H1519     1.0  0.93796  0.67156  0.18723  1.0000
  H   H1520     1.0  0.74224  0.56389  0.12544  1.0000
  H   H1521     1.0  0.64000  0.95877  0.04117  1.0000
  H   H1522     1.0  0.66885  0.98419  0.14761  1.0000
  H   H1523     1.0  0.66691  0.97980  0.10393  1.0000
  H   H1524     1.0  0.96591  0.62443  0.19250  1.0000
  H   H1525     1.0  0.72957  0.91982  0.22666  1.0000
  C   C863      1.0  0.98771  0.57358  0.17815  1.0000
  S   S188      1.0  0.91394  0.71093  0.28464  1.0000
  C   C864      1.0  0.57864  0.88706  0.07242  1.0000
  H   H1526     1.0  0.76179  0.91630  0.25148  1.0000
  C   C865      1.0  0.97158  0.58810  0.10995  1.0000
  H   H1527     1.0  0.78127  0.61427  0.11130  1.0000
  S   S189      1.0  0.65090  0.93872  0.18038  1.0000
  C   C866      1.0  0.70237  0.89523  0.22399  1.0000
  H   H1528     1.0  0.94924  0.51481  0.26499  1.0000
  H   H1529     1.0  0.64673  0.90439  0.14665  1.0000
  N   N47       1.0  0.73062  0.90433  0.28241  1.0000
  H   H1530     1.0  0.63154  0.48819  0.00959  1.0000
  H   H1531     1.0  0.98316  0.67436  0.30468  1.0000
  S   S190      1.0  0.50677  0.85936  0.04514  1.0000
  C   C867      1.0  0.71015  0.90642  0.26517  1.0000
  H   H1532     1.0  0.69589  0.89274  0.27292  1.0000
  H   H1533     1.0  0.50323  0.82940  0.12522  1.0000
  H   H1534     1.0  0.81697  0.78730  0.31598  1.0000
  H   H1535     1.0  0.81931  0.74356  0.30000  1.0000
  H   H1536     1.0  0.84174  0.53141  0.09662  1.0000
  C   C868      1.0  0.96249  0.63438  0.17333  1.0000
  H   H1537     1.0  0.96062  0.56448  0.14611  1.0000
  C   C869      1.0  0.49609  0.93391  0.21926  1.0000
  H   H1538     1.0  0.69640  0.87616  0.23310  1.0000
  H   H1539     1.0  0.77596  0.55191  0.16855  1.0000
  N   N48       1.0  0.52357  0.96775  0.22528  1.0000
  H   H1540     1.0  0.78331  0.90501  0.29217  1.0000
  C   C870      1.0  0.58744  0.90619  0.21432  1.0000
  H   H1541     1.0  0.86802  0.85763  0.27659  1.0000
  H   H1542     1.0  0.83071  0.53351  0.15847  1.0000
  H   H1543     1.0  0.52024  0.91594  0.98885  1.0000
  H   H1544     1.0  0.96699  0.56988  0.18817  1.0000
  C   C871      1.0  0.79295  0.94007  0.26809  1.0000
  H   H1545     1.0  0.79065  0.56985  0.11105  1.0000
  N   N49       1.0  0.98505  0.59044  0.15285  1.0000
  H   H1546     1.0  0.95749  0.55531  0.10057  1.0000
  C   C872      1.0  0.61258  0.92555  0.12752  1.0000
  C   C873      1.0  0.63071  0.92267  0.14454  1.0000
  C   C874      1.0  0.93320  0.53397  0.26395  1.0000
  H   H1547     1.0  0.78224  0.96007  0.25954  1.0000
  N   N50       1.0  0.82082  0.57108  0.13358  1.0000
  C   C875      1.0  0.81197  0.60048  0.13706  1.0000
  C   C876      1.0  0.83330  0.55455  0.15601  1.0000
  C   C877      1.0  0.84327  0.56828  0.11021  1.0000
  C   C878      1.0  0.51798  0.96256  0.25384  1.0000
  H   H1548     1.0  0.69949  0.53736  0.99532  1.0000
  C   C879      1.0  0.79943  0.62011  0.11530  1.0000
  C   C880      1.0  0.85664  0.53913  0.10406  1.0000
  C   C881      1.0  0.82307  0.56518  0.18214  1.0000
  C   C882      1.0  0.55172  0.95086  0.21481  1.0000
  H   H1549     1.0  0.76199  0.58517  0.15329  1.0000
  C   C883      1.0  0.78945  0.64875  0.12223  1.0000
  C   C884      1.0  0.88306  0.53796  0.08395  1.0000
  H   H1550     1.0  0.83021  0.60735  0.13981  1.0000
  H   H1551     1.0  0.79625  0.60381  0.15454  1.0000
  H   H1552     1.0  0.73720  0.94357  0.26491  1.0000
  H   H1553     1.0  0.85623  0.55268  0.15247  1.0000
  H   H1554     1.0  0.86029  0.57769  0.11180  1.0000
  H   H1555     1.0  0.83499  0.57918  0.09299  1.0000
  H   H1556     1.0  0.74201  0.88459  0.23654  1.0000
  H   H1557     1.0  0.88892  0.54873  0.26966  1.0000
  H   H1558     1.0  0.92994  0.79311  0.31590  1.0000
  C   C885      1.0  0.50078  0.96276  0.21403  1.0000
  H   H1559     1.0  0.81527  0.62079  0.09773  1.0000
  H   H1560     1.0  0.82008  0.83011  0.27699  1.0000
  H   H1561     1.0  0.81323  0.48996  0.14399  1.0000
  H   H1562     1.0  0.56389  0.96648  0.03079  1.0000
  H   H1563     1.0  0.82972  0.58412  0.18159  1.0000
  H   H1564     1.0  0.56853  0.96113  0.21463  1.0000
  H   H1565     1.0  0.86253  0.52530  0.12090  1.0000
  H   H1566     1.0  0.86850  0.76989  0.27538  1.0000
  H   H1567     1.0  0.97264  0.70833  0.26742  1.0000
  H   H1568     1.0  0.58329  0.90363  0.19580  1.0000
  H   H1569     1.0  0.73255  0.85065  0.26837  1.0000
  H   H1570     1.0  0.91784  0.64752  0.18707  1.0000
  H   H1571     1.0  0.80705  0.65573  0.12610  1.0000
  H   H1572     1.0  0.78101  0.66256  0.10625  1.0000
  H   H1573     1.0  0.77263  0.64973  0.13920  1.0000
  C   C886      1.0  0.71341  0.51785  0.00114  1.0000
  H   H1574     1.0  0.94472  0.79175  0.28284  1.0000
  H   H1575     1.0  0.89173  0.51693  0.07972  1.0000
  H   H1576     1.0  0.57861  0.89001  0.09211  1.0000
  H   H1577     1.0  0.83116  0.87117  0.28614  1.0000
  C   C887      1.0  0.51059  0.97376  0.00762  1.0000
  S   S191      1.0  0.89238  0.60386  0.27220  1.0000
  H   H1578     1.0  0.85889  0.54148  0.19886  1.0000
  C   C888      1.0  0.84172  0.82866  0.27970  1.0000
  C   C889      1.0  0.77081  0.56379  0.15051  1.0000
  H   H1579     1.0  0.76172  0.93645  0.30111  1.0000
  H   H1580     1.0  0.85552  0.81737  0.26449  1.0000
  N   N51       1.0  0.55493  0.93605  0.01332  1.0000
  H   H1581     1.0  0.80724  0.94319  0.27964  1.0000
  H   H1582     1.0  0.51626  0.94155  0.26061  1.0000
  H   H1583     1.0  0.58353  0.49506  0.00168  1.0000
  H   H1584     1.0  0.98129  0.63796  0.23355  1.0000
  C   C890      1.0  0.62815  0.94330  0.15882  1.0000
  S   S192      1.0  0.64709  0.96285  0.24538  1.0000
  C   C891      1.0  0.74969  0.92289  0.26977  1.0000
  C   C892      1.0  0.73454  0.85245  0.28783  1.0000
  H   H1585     1.0  0.58504  0.89894  0.02177  1.0000
  H   H1586     1.0  0.53615  0.96486  0.26120  1.0000
  H   H1587     1.0  0.51727  0.88893  0.08024  1.0000
  H   H1588     1.0  0.55274  0.94870  0.19461  1.0000
  C   C893      1.0  0.77171  0.92511  0.28484  1.0000
  H   H1589     1.0  0.54523  0.91083  0.23430  1.0000
  C   C894      1.0  0.84685  0.85752  0.27388  1.0000
  H   H1590     1.0  0.89915  0.54445  0.09095  1.0000
  H   H1591     1.0  0.95725  0.62636  0.13802  1.0000
  C   C895      1.0  0.97839  0.57355  0.13609  1.0000
  H   H1592     1.0  0.51198  0.93243  0.02476  1.0000
  C   C896      1.0  0.96055  0.61418  0.15649  1.0000
  H   H1593     1.0  0.87834  0.55099  0.06622  1.0000
  H   H1594     1.0  0.94210  0.74470  0.30034  1.0000
  H   H1595     1.0  0.83277  0.78224  0.27128  1.0000
  H   H1596     1.0  0.54964  0.89711  0.03341  1.0000
  H   H1597     1.0  0.75505  0.53136  0.14253  1.0000
  C   C897      1.0  0.52452  0.94761  0.02300  1.0000
  C   C898      1.0  0.97257  0.56808  0.09214  1.0000
  C   C899      1.0  0.74820  0.87618  0.28745  1.0000
  C   C900      1.0  0.74795  0.55327  0.14380  1.0000
  S   S193      1.0  0.97196  0.58476  0.25538  1.0000
  H   H1598     1.0  0.50509  0.96744  0.19308  1.0000
  Fe  Fe100     1.0  0.90610  0.67162  0.27978  1.0000
  H   H1599     1.0  0.96691  0.57913  0.07393  1.0000
  C   C901      1.0  0.49862  0.90019  0.07319  1.0000
  S   S194      1.0  0.86276  0.66513  0.28604  1.0000
  C   C902      1.0  0.60752  0.96699  0.15578  1.0000
  H   H1600     1.0  0.87742  0.90335  0.29384  1.0000
  C   C903      1.0  0.58876  0.96958  0.13928  1.0000
  H   H1601     1.0  0.60592  0.97792  0.05370  1.0000
  H   H1602     1.0  0.93570  0.54404  0.24412  1.0000
  H   H1603     1.0  0.83157  0.58471  0.28064  1.0000
  S   S195      1.0  0.78396  0.49663  0.10285  1.0000
  S   S196      1.0  0.94397  0.50794  0.18599  1.0000
  C   C904      1.0  0.92705  0.80209  0.29630  1.0000
  S   S197      1.0  0.57281  0.98567  0.28521  1.0000
  S   S198      1.0  0.95254  0.49947  0.12555  1.0000
  H   H1604     1.0  0.62755  0.95543  0.07479  1.0000
  H   H1605     1.0  0.66209  0.98330  0.06356  1.0000
  H   H1606     1.0  0.90058  0.51609  0.25974  1.0000
  C   C905      1.0  0.72323  0.90143  0.23744  1.0000
  Fe  Fe101     1.0  0.52865  0.98176  0.10724  1.0000
  H   H1607     1.0  0.86620  0.56447  0.30898  1.0000
  H   H1608     1.0  0.75414  0.82620  0.31810  1.0000
  C   C906      1.0  0.84658  0.77144  0.28504  1.0000
  H   H1609     1.0  0.75562  0.87373  0.30578  1.0000
  C   C907      1.0  0.89939  0.51620  0.30047  1.0000
  Fe  Fe102     1.0  0.88126  0.62524  0.30639  1.0000
  S   S199      1.0  0.92374  0.63296  0.30250  1.0000
  H   H1610     1.0  0.92762  0.82364  0.29372  1.0000
  H   H1611     1.0  0.70316  0.97290  0.12985  1.0000
  H   H1612     1.0  0.66916  0.50917  0.98933  1.0000
  H   H1613     1.0  0.50494  0.96882  0.30425  1.0000
  H   H1614     1.0  0.84799  0.53524  0.28344  1.0000
  H   H1615     1.0  0.77333  0.82150  0.28640  1.0000
  C   C908      1.0  0.71452  0.91469  0.30681  1.0000
  H   H1616     1.0  0.52163  0.95224  0.04261  1.0000
  H   H1617     1.0  0.49343  0.73347  0.08671  1.0000
  C   C909      1.0  0.93915  0.72888  0.31568  1.0000
  H   H1618     1.0  0.87024  0.49083  0.27830  1.0000
  H   H1619     1.0  0.60622  0.98344  0.16585  1.0000
  C   C910      1.0  0.68518  0.49003  0.98844  1.0000
  H   H1620     1.0  0.85454  0.73119  0.30628  1.0000
  C   C911      1.0  0.75222  0.82576  0.29826  1.0000
  H   H1621     1.0  0.70241  0.93569  0.30271  1.0000
  H   H1622     1.0  0.91673  0.49805  0.30232  1.0000
  H   H1623     1.0  0.67949  0.89451  0.31274  1.0000
  H   H1624     1.0  0.90056  0.77722  0.29271  1.0000
  C   C912      1.0  0.90653  0.87500  0.31492  1.0000
  H   H1625     1.0  0.87715  0.83207  0.31247  1.0000
  C   C913      1.0  0.87459  0.81191  0.31059  1.0000
  C   C914      1.0  0.92595  0.70923  0.31294  1.0000
  H   H1626     1.0  0.98209  0.62811  0.31520  1.0000
  C   C915      1.0  0.82481  0.58156  0.30152  1.0000
  C   C916      1.0  0.83965  0.78622  0.30881  1.0000
  H   H1627     1.0  0.90308  0.53012  0.31202  1.0000
  N   N52       1.0  0.87161  0.50892  0.31070  1.0000
  C   C917      1.0  0.84767  0.53170  0.30425  1.0000
  H   H1628     1.0  0.82738  0.52632  0.31268  1.0000
  H   H1629     1.0  0.82345  0.60051  0.30897  1.0000
  C   C918      1.0  0.50396  0.56191  0.55244  1.0000
  Fe  Fe103     1.0  0.59669  0.60686  0.59688  1.0000
  S   S200      1.0  0.60974  0.60932  0.55485  1.0000
  S   S201      1.0  0.60060  0.56885  0.62336  1.0000
  Fe  Fe104     1.0  0.57324  0.66683  0.59614  1.0000
  S   S202      1.0  0.58383  0.67492  0.55389  1.0000
  H   H1630     1.0  0.62418  0.67488  0.63827  1.0000
  Fe  Fe105     1.0  0.56816  0.63818  0.55435  1.0000
  C   C919      1.0  0.92308  0.68820  0.33255  1.0000
  Fe  Fe106     1.0  0.62425  0.64556  0.55850  1.0000
  S   S203      1.0  0.66577  0.65360  0.53906  1.0000
  S   S204      1.0  0.55393  0.63268  0.59622  1.0000
  S   S205      1.0  0.61491  0.64030  0.60090  1.0000
  C   C920      1.0  0.85664  0.88825  0.33026  1.0000
  Fe  Fe107     1.0  0.72638  0.73921  0.59517  1.0000
  S   S206      1.0  0.73470  0.74626  0.55286  1.0000
  S   S207      1.0  0.69602  0.71451  0.61551  1.0000
  Fe  Fe108     1.0  0.76173  0.77634  0.60018  1.0000
  S   S208      1.0  0.77281  0.78742  0.55825  1.0000
  H   H1631     1.0  0.70165  0.50385  0.61109  1.0000
  Fe  Fe109     1.0  0.72768  0.78945  0.55782  1.0000
  S   S209      1.0  0.69799  0.82163  0.53698  1.0000
  Fe  Fe110     1.0  0.77868  0.74323  0.55692  1.0000
  S   S210      1.0  0.81533  0.71943  0.53269  1.0000
  S   S211      1.0  0.71604  0.78272  0.60006  1.0000
  S   S212      1.0  0.77113  0.73191  0.59900  1.0000
  Fe  Fe111     1.0  0.94858  0.74762  0.39440  1.0000
  S   S213      1.0  0.91323  0.77771  0.37944  1.0000
  C   C921      1.0  0.79926  0.93390  0.50883  1.0000
  Fe  Fe112     1.0  0.95790  0.78576  0.42574  1.0000
  S   S214      1.0  0.92302  0.81898  0.41400  1.0000
  H   H1632     1.0  0.52563  0.53081  0.46719  1.0000
  Fe  Fe113     1.0  0.89948  0.78681  0.41933  1.0000
  S   S215      1.0  0.85389  0.79563  0.43548  1.0000
  Fe  Fe114     1.0  0.94002  0.80697  0.37530  1.0000
  S   S216      1.0  0.94298  0.83786  0.34108  1.0000
  S   S217      1.0  0.93280  0.75446  0.43485  1.0000
  S   S218      1.0  0.97712  0.77596  0.38640  1.0000
  S   S219      1.0  0.91810  0.89083  0.56586  1.0000
  S   S220      1.0  0.87658  0.87476  0.53448  1.0000
  Fe  Fe115     1.0  0.88529  0.86694  0.57405  1.0000
  C   C922      1.0  0.79689  0.95358  0.45794  1.0000
  Fe  Fe116     1.0  0.90635  0.90190  0.52734  1.0000
  S   S221      1.0  0.94044  0.90290  0.49343  1.0000
  H   H1633     1.0  0.95293  0.66141  0.43443  1.0000
  C   C923      1.0  0.96613  0.72297  0.48974  1.0000
  C   C924      1.0  0.67145  0.98572  0.32274  1.0000
  S   S222      1.0  0.98408  0.79060  0.45224  1.0000
  H   H1634     1.0  0.82918  0.84973  0.32422  1.0000
  C   C925      1.0  0.86002  0.87091  0.35271  1.0000
  C   C926      1.0  0.88653  0.85537  0.35614  1.0000
  H   H1635     1.0  0.77978  0.54263  0.57918  1.0000
  H   H1636     1.0  0.84224  0.86883  0.36724  1.0000
  H   H1637     1.0  0.88883  0.84171  0.37338  1.0000
  C   C927      1.0  0.97152  0.82165  0.46391  1.0000
  H   H1638     1.0  0.69000  0.95880  0.55189  1.0000
  S   S223      1.0  0.82342  0.90635  0.32461  1.0000
  C   C928      1.0  0.95213  0.87150  0.48238  1.0000
  C   C929      1.0  0.93310  0.85769  0.47876  1.0000
  C   C930      1.0  0.94283  0.83300  0.46903  1.0000
  H   H1639     1.0  0.58611  0.51964  0.54833  1.0000
  H   H1640     1.0  0.91095  0.86635  0.48292  1.0000
  H   H1641     1.0  0.92814  0.82258  0.46584  1.0000
  C   C931      1.0  0.87087  0.66542  0.41125  1.0000
  C   C932      1.0  0.81433  0.81684  0.59749  1.0000
  C   C933      1.0  0.83917  0.82590  0.59103  1.0000
  H   H1642     1.0  0.69019  0.91558  0.35797  1.0000
  N   N53       1.0  0.90210  0.91190  0.41088  1.0000
  H   H1643     1.0  0.60710  0.51770  0.58552  1.0000
  H   H1644     1.0  0.79834  0.82439  0.58614  1.0000
  H   H1645     1.0  0.84219  0.84062  0.57459  1.0000
  H   H1646     1.0  0.97387  0.91548  0.62250  1.0000
  H   H1647     1.0  0.94098  0.53463  0.34392  1.0000
  C   C934      1.0  0.71249  0.82974  0.50518  1.0000
  C   C935      1.0  0.70427  0.85576  0.49270  1.0000
  C   C936      1.0  0.71643  0.86239  0.46739  1.0000
  C   C937      1.0  0.73243  0.81030  0.49231  1.0000
  H   H1648     1.0  0.68891  0.87088  0.50269  1.0000
  H   H1649     1.0  0.91919  0.87516  0.39378  1.0000
  H   H1650     1.0  0.73887  0.79034  0.50198  1.0000
  C   C938      1.0  0.82616  0.74061  0.50584  1.0000
  C   C939      1.0  0.80771  0.76416  0.49776  1.0000
  C   C940      1.0  0.81645  0.78095  0.47608  1.0000
  C   C941      1.0  0.84356  0.77417  0.46242  1.0000
  C   C942      1.0  0.86199  0.75056  0.47054  1.0000
  C   C943      1.0  0.85337  0.73389  0.49236  1.0000
  H   H1651     1.0  0.78662  0.76934  0.50803  1.0000
  H   H1652     1.0  0.80227  0.79933  0.46993  1.0000
  H   H1653     1.0  0.88277  0.74511  0.46006  1.0000
  H   H1654     1.0  0.86769  0.71577  0.49878  1.0000
  H   H1655     1.0  0.96598  0.92149  0.58198  1.0000
  C   C944      1.0  0.52417  0.60890  0.53961  1.0000
  C   C945      1.0  0.90486  0.56764  0.34340  1.0000
  S   S224      1.0  0.53931  0.63660  0.52901  1.0000
  C   C946      1.0  0.53072  0.56968  0.64452  1.0000
  H   H1656     1.0  0.79642  0.83076  0.51642  1.0000
  H   H1657     1.0  0.65099  0.50160  0.61896  1.0000
  C   C947      1.0  0.85082  0.68140  0.45352  1.0000
  C   C948      1.0  0.75689  0.54725  0.58619  1.0000
  C   C949      1.0  0.67456  0.67204  0.55884  1.0000
  C   C950      1.0  0.70236  0.67279  0.55770  1.0000
  C   C951      1.0  0.70912  0.68627  0.57485  1.0000
  C   C952      1.0  0.68808  0.69858  0.59327  1.0000
  C   C953      1.0  0.66031  0.69843  0.59386  1.0000
  C   C954      1.0  0.65353  0.68556  0.57643  1.0000
  H   H1658     1.0  0.71868  0.66254  0.54398  1.0000
  H   H1659     1.0  0.73066  0.68650  0.57431  1.0000
  H   H1660     1.0  0.64400  0.70873  0.60750  1.0000
  H   H1661     1.0  0.63188  0.68649  0.57642  1.0000
  H   H1662     1.0  0.61253  0.49625  0.51150  1.0000
  C   C955      1.0  0.52368  0.56561  0.56523  1.0000
  C   C956      1.0  0.53345  0.58934  0.55906  1.0000
  H   H1663     1.0  0.54309  0.50737  0.49052  1.0000
  H   H1664     1.0  0.65631  0.86930  0.56836  1.0000
  H   H1665     1.0  0.87233  0.62993  0.44048  1.0000
  H   H1666     1.0  0.53162  0.55011  0.57964  1.0000
  H   H1667     1.0  0.54912  0.59188  0.56859  1.0000
  H   H1668     1.0  0.91179  0.67368  0.33117  1.0000
  C   C957      1.0  0.72092  0.98151  0.32004  1.0000
  H   H1669     1.0  0.50282  0.69809  0.59439  1.0000
  C   C958      1.0  0.72672  0.90907  0.56112  1.0000
  C   C959      1.0  0.98079  0.86038  0.47677  1.0000
  H   H1670     1.0  0.66258  0.89970  0.35756  1.0000
  H   H1671     1.0  0.96089  0.79016  0.51853  1.0000
  N   N54       1.0  0.99098  0.95084  0.61040  1.0000
  H   H1672     1.0  0.82016  0.66357  0.44311  1.0000
  C   C960      1.0  0.95206  0.73672  0.51328  1.0000
  C   C961      1.0  0.88889  0.95766  0.46370  1.0000
  C   C962      1.0  0.68177  0.55974  0.62717  1.0000
  C   C963      1.0  0.65554  0.56956  0.61987  1.0000
  H   H1673     1.0  0.70138  0.61720  0.61662  1.0000
  H   H1674     1.0  0.50260  0.65813  0.62563  1.0000
  H   H1675     1.0  0.89218  0.59580  0.41130  1.0000
  H   H1676     1.0  0.69958  0.56710  0.61640  1.0000
  H   H1677     1.0  0.65313  0.58455  0.60350  1.0000
  H   H1678     1.0  0.80185  0.82483  0.39043  1.0000
  N   N55       1.0  0.59530  0.55245  0.50072  1.0000
  H   H1679     1.0  0.64393  0.86767  0.60206  1.0000
  C   C964      1.0  0.60107  0.55495  0.52614  1.0000
  C   C965      1.0  0.59140  0.58021  0.48571  1.0000
  C   C966      1.0  0.74284  0.53038  0.57501  1.0000
  S   S225      1.0  0.55716  0.49110  0.59521  1.0000
  C   C967      1.0  0.68325  0.63939  0.64892  1.0000
  C   C968      1.0  0.61564  0.59457  0.48239  1.0000
  H   H1680     1.0  0.81639  0.65434  0.49028  1.0000
  C   C969      1.0  0.97447  0.86199  0.39403  1.0000
  C   C970      1.0  0.71159  0.48927  0.57361  1.0000
  H   H1681     1.0  0.69041  0.95708  0.51906  1.0000
  C   C971      1.0  0.61093  0.62064  0.46414  1.0000
  H   H1682     1.0  0.55167  0.55700  0.51680  1.0000
  C   C972      1.0  0.96825  0.96721  0.62823  1.0000
  H   H1683     1.0  0.62112  0.56105  0.52396  1.0000
  H   H1684     1.0  0.58469  0.57127  0.53477  1.0000
  H   H1685     1.0  0.57205  0.59381  0.49465  1.0000
  H   H1686     1.0  0.58828  0.57941  0.46630  1.0000
  C   C973      1.0  0.82045  0.67978  0.45377  1.0000
  H   H1687     1.0  0.98003  0.81058  0.54620  1.0000
  H   H1688     1.0  0.79411  0.86517  0.50138  1.0000
  H   H1689     1.0  0.50066  0.49801  0.63433  1.0000
  C   C974      1.0  0.88440  0.54304  0.39114  1.0000
  H   H1690     1.0  0.75892  0.88888  0.63533  1.0000
  H   H1691     1.0  0.63594  0.58148  0.47499  1.0000
  H   H1692     1.0  0.61692  0.60029  0.50068  1.0000
  H   H1693     1.0  0.99281  0.59349  0.43008  1.0000
  H   H1694     1.0  0.85017  0.66629  0.40660  1.0000
  C   C975      1.0  0.61958  0.53363  0.48666  1.0000
  H   H1695     1.0  0.62140  0.54631  0.57087  1.0000
  H   H1696     1.0  0.58405  0.54984  0.57921  1.0000
  H   H1697     1.0  0.88234  0.87238  0.44871  1.0000
  H   H1698     1.0  0.77965  0.83188  0.36699  1.0000
  C   C976      1.0  0.68631  0.87322  0.59022  1.0000
  C   C977      1.0  0.70260  0.95012  0.53468  1.0000
  H   H1699     1.0  0.62365  0.51508  0.54020  1.0000
  H   H1700     1.0  0.62818  0.63083  0.46263  1.0000
  H   H1701     1.0  0.61043  0.61643  0.44500  1.0000
  H   H1702     1.0  0.59095  0.63446  0.47127  1.0000
  C   C978      1.0  0.89203  0.80032  0.52123  1.0000
  C   C979      1.0  0.87123  0.79955  0.50438  1.0000
  H   H1703     1.0  0.91049  0.95944  0.46334  1.0000
  C   C980      1.0  0.85591  0.82794  0.49559  1.0000
  H   H1704     1.0  0.90558  0.81355  0.50989  1.0000
  H   H1705     1.0  0.88036  0.81123  0.53756  1.0000
  H   H1706     1.0  0.85365  0.78333  0.55939  1.0000
  H   H1707     1.0  0.88238  0.79024  0.48713  1.0000
  H   H1708     1.0  0.85538  0.78824  0.51468  1.0000
  C   C981      1.0  0.74436  0.87364  0.59362  1.0000
  C   C982      1.0  0.73588  0.84265  0.45434  1.0000
  H   H1709     1.0  0.84133  0.82699  0.48330  1.0000
  H   H1710     1.0  0.84389  0.83834  0.51205  1.0000
  H   H1711     1.0  0.87101  0.83967  0.48442  1.0000
  H   H1712     1.0  0.83515  0.75033  0.37505  1.0000
  H   H1713     1.0  0.65593  0.49395  0.58713  1.0000
  H   H1714     1.0  0.98987  0.63790  0.34959  1.0000
  H   H1715     1.0  0.85130  0.76624  0.39306  1.0000
  H   H1716     1.0  0.62137  0.53953  0.46582  1.0000
  H   H1717     1.0  0.82209  0.90030  0.44243  1.0000
  H   H1718     1.0  0.87421  0.97706  0.46767  1.0000
  C   C983      1.0  0.83838  0.88287  0.44842  1.0000
  H   H1719     1.0  0.77513  0.88077  0.54266  1.0000
  H   H1720     1.0  0.71077  0.59936  0.64637  1.0000
  S   S226      1.0  0.95848  0.70536  0.38549  1.0000
  C   C984      1.0  0.82400  0.81687  0.35296  1.0000
  H   H1721     1.0  0.84712  0.49993  0.34765  1.0000
  H   H1722     1.0  0.87767  0.48776  0.38799  1.0000
  C   C985      1.0  0.88621  0.95070  0.43842  1.0000
  C   C986      1.0  0.92077  0.54357  0.35410  1.0000
  C   C987      1.0  0.89215  0.95434  0.64935  1.0000
  C   C988      1.0  0.99046  0.83522  0.46805  1.0000
  H   H1723     1.0  0.82820  0.95890  0.50569  1.0000
  H   H1724     1.0  0.91970  0.90435  0.35774  1.0000
  H   H1725     1.0  0.51668  0.53658  0.49991  1.0000
  H   H1726     1.0  0.90793  0.65021  0.45607  1.0000
  S   S227      1.0  0.49357  0.53152  0.55758  1.0000
  H   H1727     1.0  0.66358  0.93189  0.33905  1.0000
  H   H1728     1.0  0.85063  0.77253  0.32349  1.0000
  H   H1729     1.0  0.98797  0.50406  0.41471  1.0000
  C   C989      1.0  0.78160  0.92606  0.49643  1.0000
  C   C990      1.0  0.94686  0.70638  0.35728  1.0000
  H   H1730     1.0  0.88504  0.94943  0.38948  1.0000
  H   H1731     1.0  0.84371  0.81618  0.35932  1.0000
  H   H1732     1.0  0.82062  0.79626  0.35576  1.0000
  H   H1733     1.0  0.66079  0.52556  0.59242  1.0000
  S   S228      1.0  0.69127  0.96916  0.36716  1.0000
  H   H1734     1.0  0.88079  0.97515  0.64808  1.0000
  H   H1735     1.0  0.87754  0.79981  0.32920  1.0000
  H   H1736     1.0  0.94846  0.66022  0.46832  1.0000
  C   C991      1.0  0.76987  0.88449  0.59514  1.0000
  C   C992      1.0  0.90982  0.85749  0.33728  1.0000
  S   S229      1.0  0.85071  0.90052  0.58801  1.0000
  H   H1737     1.0  0.72625  0.62688  0.63031  1.0000
  C   C993      1.0  0.92673  0.77795  0.54789  1.0000
  S   S230      1.0  0.89113  0.82681  0.59812  1.0000
  H   H1738     1.0  0.80131  0.85447  0.36758  1.0000
  H   H1739     1.0  0.78023  0.85631  0.62832  1.0000
  C   C994      1.0  0.88259  0.61671  0.40387  1.0000
  C   C995      1.0  0.78075  0.93553  0.47087  1.0000
  C   C996      1.0  0.69440  0.49138  0.60066  1.0000
  H   H1740     1.0  0.54675  0.56630  0.47346  1.0000
  H   H1741     1.0  0.96905  0.85343  0.37899  1.0000
  H   H1742     1.0  0.74830  0.56895  0.58052  1.0000
  H   H1743     1.0  0.64995  0.62818  0.63716  1.0000
  C   C997      1.0  0.82487  0.82973  0.32493  1.0000
  H   H1744     1.0  0.95904  0.74323  0.34012  1.0000
  H   H1745     1.0  0.71997  0.53696  0.58135  1.0000
  H   H1746     1.0  0.87257  0.78764  0.63766  1.0000
  H   H1747     1.0  0.75292  0.54331  0.60719  1.0000
  C   C998      1.0  0.66365  0.50386  0.59969  1.0000
  H   H1748     1.0  0.50621  0.67010  0.57772  1.0000
  C   C999      1.0  0.60366  0.52950  0.54590  1.0000
  H   H1749     1.0  0.66864  0.83935  0.58919  1.0000
  H   H1750     1.0  0.92816  0.92986  0.42641  1.0000
  H   H1751     1.0  0.84072  0.73972  0.56422  1.0000
  H   H1752     1.0  0.63957  0.53544  0.49106  1.0000
  H   H1753     1.0  0.89427  0.62156  0.38454  1.0000
  H   H1754     1.0  0.71030  0.88252  0.45779  1.0000
  C   C1000     1.0  0.94046  0.67132  0.45105  1.0000
  H   H1755     1.0  0.83899  0.55725  0.33444  1.0000
  C   C1001     1.0  0.80022  0.83307  0.37041  1.0000
  N   N56       1.0  0.65943  0.74924  0.50993  1.0000
  C   C1002     1.0  0.69028  0.74145  0.51089  1.0000
  C   C1003     1.0  0.64252  0.75347  0.53605  1.0000
  C   C1004     1.0  0.65223  0.72605  0.50149  1.0000
  C   C1005     1.0  0.65210  0.77376  0.49099  1.0000
  C   C1006     1.0  0.65979  0.79952  0.49485  1.0000
  C   C1007     1.0  0.71036  0.73527  0.48568  1.0000
  C   C1008     1.0  0.62063  0.72733  0.50372  1.0000
  C   C1009     1.0  0.65531  0.76513  0.55393  1.0000
  C   C1010     1.0  0.63402  0.77306  0.57745  1.0000
  C   C1011     1.0  0.65531  0.82146  0.47241  1.0000
  C   C1012     1.0  0.74086  0.72817  0.48913  1.0000
  C   C1013     1.0  0.61643  0.70375  0.49288  1.0000
  H   H1756     1.0  0.69469  0.72344  0.52523  1.0000
  H   H1757     1.0  0.69693  0.75736  0.51750  1.0000
  H   H1758     1.0  0.62132  0.76630  0.53459  1.0000
  H   H1759     1.0  0.63901  0.73398  0.54685  1.0000
  H   H1760     1.0  0.66125  0.70678  0.51255  1.0000
  H   H1761     1.0  0.66179  0.72409  0.48135  1.0000
  H   H1762     1.0  0.66172  0.76926  0.47140  1.0000
  H   H1763     1.0  0.62926  0.77944  0.49114  1.0000
  H   H1764     1.0  0.68193  0.79566  0.49659  1.0000
  H   H1765     1.0  0.64634  0.80765  0.51198  1.0000
  H   H1766     1.0  0.70684  0.71780  0.47877  1.0000
  H   H1767     1.0  0.70763  0.75296  0.47091  1.0000
  H   H1768     1.0  0.61002  0.74606  0.49319  1.0000
  H   H1769     1.0  0.60993  0.72627  0.52379  1.0000
  H   H1770     1.0  0.67304  0.74969  0.56048  1.0000
  H   H1771     1.0  0.66325  0.78299  0.54455  1.0000
  H   H1772     1.0  0.64439  0.77972  0.59045  1.0000
  H   H1773     1.0  0.61670  0.78988  0.57212  1.0000
  H   H1774     1.0  0.62538  0.75569  0.58765  1.0000
  H   H1775     1.0  0.63336  0.82620  0.46939  1.0000
  H   H1776     1.0  0.65987  0.84005  0.47623  1.0000
  H   H1777     1.0  0.66968  0.81509  0.45492  1.0000
  H   H1778     1.0  0.74477  0.71056  0.50388  1.0000
  H   H1779     1.0  0.75474  0.72318  0.47102  1.0000
  H   H1780     1.0  0.74635  0.74540  0.49470  1.0000
  H   H1781     1.0  0.62642  0.68432  0.50299  1.0000
  H   H1782     1.0  0.59376  0.70466  0.49525  1.0000
  H   H1783     1.0  0.62550  0.70453  0.47239  1.0000
  H   H1784     1.0  0.49557  0.57206  0.62803  1.0000
  C   C1014     1.0  0.97551  0.57794  0.33018  1.0000
  C   C1015     1.0  0.85448  0.71332  0.41505  1.0000
  C   C1016     1.0  0.80534  0.67370  0.48088  1.0000
  H   H1785     1.0  0.91351  0.90159  0.61530  1.0000
  C   C1017     1.0  0.81507  0.95227  0.49601  1.0000
  H   H1786     1.0  0.88363  0.94183  0.47924  1.0000
  H   H1787     1.0  0.77356  0.84858  0.55854  1.0000
  H   H1788     1.0  0.88148  0.95940  0.34385  1.0000
  H   H1789     1.0  0.89723  0.70955  0.43253  1.0000
  H   H1790     1.0  0.83418  0.71238  0.41076  1.0000
  H   H1791     1.0  0.84957  0.72901  0.42800  1.0000
  H   H1792     1.0  0.84954  0.69752  0.46498  1.0000
  C   C1018     1.0  0.70679  0.61936  0.63476  1.0000
  H   H1793     1.0  0.97713  0.97094  0.64397  1.0000
  H   H1794     1.0  0.94246  0.97741  0.55475  1.0000
  C   C1019     1.0  0.85617  0.79617  0.62664  1.0000
  H   H1795     1.0  0.87040  0.52015  0.34734  1.0000
  C   C1020     1.0  0.95009  0.95523  0.55599  1.0000
  H   H1796     1.0  0.80819  0.69913  0.44557  1.0000
  C   C1021     1.0  0.87867  0.57930  0.35658  1.0000
  C   C1022     1.0  0.60411  0.53635  0.57187  1.0000
  H   H1797     1.0  0.98682  0.58127  0.46359  1.0000
  H   H1798     1.0  0.84037  0.86617  0.43741  1.0000
  H   H1799     1.0  0.74907  0.85158  0.60024  1.0000
  C   C1023     1.0  0.68511  0.53928  0.64752  1.0000
  H   H1800     1.0  0.69108  0.86515  0.60945  1.0000
  C   C1024     1.0  0.98491  0.95461  0.58388  1.0000
  H   H1801     1.0  0.88991  0.96770  0.42359  1.0000
  C   C1025     1.0  0.75572  0.85757  0.52561  1.0000
  C   C1026     1.0  0.74348  0.81653  0.46673  1.0000
  H   H1802     1.0  0.91258  0.68372  0.41317  1.0000
  H   H1803     1.0  0.70631  0.87847  0.33160  1.0000
  H   H1804     1.0  0.75834  0.80119  0.45659  1.0000
  H   H1805     1.0  0.93239  0.66981  0.36933  1.0000
  H   H1806     1.0  0.96174  0.89696  0.41294  1.0000
  H   H1807     1.0  0.91288  0.78749  0.56416  1.0000
  H   H1808     1.0  0.86813  0.75923  0.36156  1.0000
  C   C1027     1.0  0.87114  0.72412  0.38957  1.0000
  S   S231      1.0  0.77689  0.79107  0.62978  1.0000
  H   H1809     1.0  0.89831  0.68000  0.47132  1.0000
  H   H1810     1.0  0.70532  0.50871  0.56155  1.0000
  H   H1811     1.0  0.93559  0.81760  0.53207  1.0000
  H   H1812     1.0  0.54487  0.55504  0.63218  1.0000
  C   C1028     1.0  0.85532  0.75170  0.37925  1.0000
  C   C1029     1.0  0.56809  0.54393  0.50448  1.0000
  C   C1030     1.0  0.81332  0.96262  0.47073  1.0000
  C   C1031     1.0  0.86847  0.76491  0.56604  1.0000
  H   H1813     1.0  0.87774  0.76924  0.58107  1.0000
  H   H1814     1.0  0.89182  0.72621  0.39176  1.0000
  H   H1815     1.0  0.87438  0.71072  0.37496  1.0000
  H   H1816     1.0  0.98122  0.97606  0.57570  1.0000
  H   H1817     1.0  0.94327  0.69221  0.44854  1.0000
  C   C1032     1.0  0.69479  0.97987  0.33455  1.0000
  H   H1818     1.0  0.74748  0.53511  0.55413  1.0000
  H   H1819     1.0  0.91538  0.75465  0.49646  1.0000
  H   H1820     1.0  0.61684  0.73097  0.65153  1.0000
  C   C1033     1.0  0.49338  0.58222  0.53413  1.0000
  C   C1034     1.0  0.89158  0.75442  0.54396  1.0000
  H   H1821     1.0  0.78380  0.67222  0.48066  1.0000
  H   H1822     1.0  0.93847  0.75843  0.55648  1.0000
  H   H1823     1.0  0.72132  0.91241  0.52153  1.0000
  C   C1035     1.0  0.93426  0.68632  0.35440  1.0000
  C   C1036     1.0  0.50377  0.60553  0.52747  1.0000
  H   H1824     1.0  0.80401  0.69004  0.49211  1.0000
  H   H1825     1.0  0.73891  0.97744  0.32906  1.0000
  H   H1826     1.0  0.72210  0.95762  0.52897  1.0000
  C   C1037     1.0  0.85147  0.74402  0.57822  1.0000
  C   C1038     1.0  0.94912  0.72777  0.33801  1.0000
  H   H1827     1.0  0.71415  0.91857  0.57798  1.0000
  C   C1039     1.0  0.63289  0.55884  0.63305  1.0000
  C   C1040     1.0  0.55654  0.54512  0.48003  1.0000
  H   H1828     1.0  0.87211  0.89163  0.40432  1.0000
  C   C1041     1.0  0.90962  0.67136  0.45369  1.0000
  S   S232      1.0  0.85866  0.60953  0.34380  1.0000
  H   H1829     1.0  0.83145  0.87636  0.46873  1.0000
  C   C1042     1.0  0.66236  0.86167  0.58721  1.0000
  S   S233      1.0  0.79784  0.96402  0.42557  1.0000
  H   H1830     1.0  0.65117  0.98457  0.33395  1.0000
  C   C1043     1.0  0.90127  0.92080  0.36279  1.0000
  C   C1044     1.0  0.86849  0.50269  0.33910  1.0000
  H   H1831     1.0  0.88424  0.66954  0.39264  1.0000
  H   H1832     1.0  0.74160  0.87316  0.51501  1.0000
  H   H1833     1.0  0.83529  0.75184  0.59412  1.0000
  C   C1045     1.0  0.89723  0.68850  0.43066  1.0000
  H   H1834     1.0  0.88134  0.74811  0.53056  1.0000
  H   H1835     1.0  0.67890  0.89537  0.58904  1.0000
  Fe  Fe117     1.0  0.79122  0.91461  0.35962  1.0000
  S   S234      1.0  0.74987  0.84935  0.42218  1.0000
  C   C1046     1.0  0.86829  0.56678  0.38027  1.0000
  H   H1836     1.0  0.59666  0.49947  0.64420  1.0000
  S   S235      1.0  0.93024  0.50168  0.39212  1.0000
  H   H1837     1.0  0.86062  0.61772  0.40257  1.0000
  H   H1838     1.0  0.82499  0.97734  0.46096  1.0000
  C   C1047     1.0  0.95993  0.94375  0.58117  1.0000
  N   N57       1.0  0.86855  0.68653  0.42785  1.0000
  H   H1839     1.0  0.60381  0.49975  0.48099  1.0000
  C   C1048     1.0  0.92810  0.76129  0.50743  1.0000
  S   S236      1.0  0.74996  0.90358  0.36627  1.0000
  S   S237      1.0  0.79916  0.89890  0.39881  1.0000
  N   N58       1.0  0.90962  0.77351  0.53015  1.0000
  Fe  Fe118     1.0  0.77729  0.94047  0.40761  1.0000
  C   C1049     1.0  0.76092  0.86694  0.54920  1.0000
  H   H1840     1.0  0.65475  0.49152  0.46172  1.0000
  C   C1050     1.0  0.86009  0.81558  0.60568  1.0000
  H   H1841     1.0  0.90600  0.63383  0.42220  1.0000
  H   H1842     1.0  0.84795  0.57567  0.39039  1.0000
  Fe  Fe119     1.0  0.75621  0.89091  0.40649  1.0000
  C   C1051     1.0  0.69424  0.89801  0.32350  1.0000
  H   H1843     1.0  0.93764  0.77655  0.49391  1.0000
  C   C1052     1.0  0.70952  0.91941  0.53951  1.0000
  H   H1844     1.0  0.83014  0.93335  0.63068  1.0000
  H   H1845     1.0  0.97789  0.55815  0.34224  1.0000
  H   H1846     1.0  0.74518  0.91812  0.55568  1.0000
  H   H1847     1.0  0.86452  0.94907  0.43975  1.0000
  H   H1848     1.0  0.70539  0.86841  0.55137  1.0000
  C   C1053     1.0  0.91064  0.53142  0.37807  1.0000
  C   C1054     1.0  0.75329  0.49992  0.58357  1.0000
  H   H1849     1.0  0.93252  0.94665  0.55457  1.0000
  H   H1850     1.0  0.74747  0.50211  0.53361  1.0000
  C   C1055     1.0  0.53412  0.52895  0.48476  1.0000
  H   H1851     1.0  0.86507  0.72508  0.58571  1.0000
  H   H1852     1.0  0.90461  0.73555  0.55224  1.0000
  C   C1056     1.0  0.67664  0.91226  0.34582  1.0000
  C   C1057     1.0  0.94728  0.79652  0.53629  1.0000
  C   C1058     1.0  0.83064  0.78844  0.63393  1.0000
  H   H1853     1.0  0.94430  0.72144  0.52799  1.0000
  H   H1854     1.0  0.96834  0.74312  0.52001  1.0000
  H   H1855     1.0  0.95219  0.95567  0.63771  1.0000
  H   H1856     1.0  0.82719  0.77425  0.65072  1.0000
  C   C1059     1.0  0.92406  0.88624  0.40734  1.0000
  H   H1857     1.0  0.78883  0.87533  0.58221  1.0000
  C   C1060     1.0  0.80965  0.79884  0.61935  1.0000
  H   H1858     1.0  0.85677  0.92328  0.41469  1.0000
  H   H1859     1.0  0.86048  0.66247  0.46443  1.0000
  C   C1061     1.0  0.96608  0.79668  0.55478  1.0000
  C   C1062     1.0  0.78287  0.84870  0.50734  1.0000
  C   C1063     1.0  0.86621  0.89084  0.44472  1.0000
  H   H1860     1.0  0.86404  0.90439  0.45901  1.0000
  S   S238      1.0  0.55233  0.70094  0.61873  1.0000
  C   C1064     1.0  0.71250  0.86505  0.56981  1.0000
  C   C1065     1.0  0.53215  0.69078  0.64747  1.0000
  H   H1861     1.0  0.95331  0.80380  0.57265  1.0000
  H   H1862     1.0  0.90917  0.90968  0.44908  1.0000
  S   S239      1.0  0.88249  0.95536  0.60173  1.0000
  Fe  Fe120     1.0  0.73164  0.94448  0.37838  1.0000
  H   H1863     1.0  0.57334  0.53730  0.46457  1.0000
  H   H1864     1.0  0.72701  0.88290  0.60804  1.0000
  C   C1066     1.0  0.88367  0.63613  0.42146  1.0000
  C   C1067     1.0  0.77645  0.87826  0.62193  1.0000
  S   S240      1.0  0.73474  0.93114  0.41939  1.0000
  H   H1865     1.0  0.74794  0.49642  0.60463  1.0000
  H   H1866     1.0  0.77820  0.84327  0.49018  1.0000
  C   C1068     1.0  0.87380  0.90502  0.41750  1.0000
  Fe  Fe121     1.0  0.88259  0.92542  0.57658  1.0000
  H   H1867     1.0  0.76915  0.91212  0.50626  1.0000
  H   H1868     1.0  0.76569  0.90663  0.59004  1.0000
  H   H1869     1.0  0.88213  0.91312  0.36544  1.0000
  H   H1870     1.0  0.76788  0.92863  0.46110  1.0000
  H   H1871     1.0  0.79554  0.88511  0.62206  1.0000
  H   H1872     1.0  0.68948  0.91297  0.54421  1.0000
  S   S241      1.0  0.77238  0.95693  0.36765  1.0000
  S   S242      1.0  0.80124  0.92070  0.54036  1.0000
  N   N59       1.0  0.73576  0.87897  0.56794  1.0000
  Fe  Fe122     1.0  0.84487  0.91095  0.54771  1.0000
  S   S243      1.0  0.87380  0.93892  0.53719  1.0000
  C   C1069     1.0  0.95464  0.88918  0.39840  1.0000
  H   H1873     1.0  0.95698  0.90283  0.38038  1.0000
  H   H1874     1.0  0.94223  0.94891  0.59668  1.0000
  C   C1070     1.0  0.90289  0.93165  0.38703  1.0000
  H   H1875     1.0  0.89960  0.93458  0.32311  1.0000
  H   H1876     1.0  0.74661  0.83982  0.53171  1.0000
  H   H1877     1.0  0.92386  0.87250  0.42545  1.0000
  H   H1878     1.0  0.72038  0.84287  0.57388  1.0000
  C   C1071     1.0  0.90755  0.92445  0.43166  1.0000
  H   H1879     1.0  0.68094  0.65870  0.63622  1.0000
  H   H1880     1.0  0.51626  0.59595  0.61261  1.0000
  C   C1072     1.0  0.90040  0.94295  0.34024  1.0000
  H   H1881     1.0  0.95838  0.59265  0.34024  1.0000
  H   H1882     1.0  0.98354  0.70590  0.49436  1.0000
  C   C1073     1.0  0.61895  0.50336  0.49133  1.0000
  H   H1883     1.0  0.91287  0.57710  0.32495  1.0000
  C   C1074     1.0  0.89580  0.93976  0.62915  1.0000
  H   H1884     1.0  0.89482  0.85723  0.64287  1.0000
  H   H1885     1.0  0.54290  0.58283  0.64879  1.0000
  H   H1886     1.0  0.56935  0.52341  0.51484  1.0000
  H   H1887     1.0  0.87648  0.53360  0.40964  1.0000
  C   C1075     1.0  0.91040  0.91289  0.63084  1.0000
  H   H1888     1.0  0.97482  0.73728  0.47443  1.0000
  H   H1889     1.0  0.93882  0.82629  0.65029  1.0000
  H   H1890     1.0  0.95094  0.71508  0.48287  1.0000
  H   H1891     1.0  0.59492  0.72101  0.63440  1.0000
  Fe  Fe123     1.0  0.52496  0.49539  0.57100  1.0000
  C   C1076     1.0  0.50701  0.58642  0.63112  1.0000
  H   H1892     1.0  0.77652  0.49552  0.57941  1.0000
  H   H1893     1.0  0.97920  0.77625  0.55907  1.0000
  H   H1894     1.0  0.92191  0.93987  0.38328  1.0000
  H   H1895     1.0  0.91496  0.80753  0.64620  1.0000
  H   H1896     1.0  0.97347  0.84763  0.41173  1.0000
  H   H1897     1.0  0.80342  0.83369  0.32063  1.0000
  H   H1898     1.0  0.91935  0.95120  0.33649  1.0000
  H   H1899     1.0  0.96726  0.95004  0.53982  1.0000
  H   H1900     1.0  0.55129  0.64869  0.64717  1.0000
  H   H1901     1.0  0.84566  0.88158  0.64240  1.0000
  H   H1902     1.0  0.49641  0.62070  0.51256  1.0000
  H   H1903     1.0  0.97842  0.50447  0.44814  1.0000
  C   C1077     1.0  0.99249  0.49293  0.43318  1.0000
  C   C1078     1.0  0.82362  0.93575  0.65108  1.0000
  H   H1904     1.0  0.72884  0.91580  0.31922  1.0000
  H   H1905     1.0  0.76664  0.83348  0.69867  1.0000
  H   H1906     1.0  0.63246  0.66805  0.74180  1.0000
  N   N60       1.0  0.95624  0.95152  0.84389  1.0000
  H   H1907     1.0  0.67069  0.53120  0.73411  1.0000
  C   C1079     1.0  0.63598  0.53970  0.65432  1.0000
  H   H1908     1.0  0.66091  0.60862  0.66485  1.0000
  H   H1909     1.0  0.50277  0.50090  0.94836  1.0000
  H   H1910     1.0  0.54612  0.53817  0.93621  1.0000
  S   S244      1.0  0.99131  0.91602  0.71910  1.0000
  C   C1080     1.0  0.63856  0.64509  0.69730  1.0000
  C   C1081     1.0  0.49434  0.76489  0.93034  1.0000
  H   H1911     1.0  0.65772  0.49286  0.71772  1.0000
  Fe  Fe124     1.0  0.52783  0.56972  0.74720  1.0000
  C   C1082     1.0  0.54913  0.90230  0.95633  1.0000
  S   S245      1.0  0.57423  0.55916  0.74527  1.0000
  Fe  Fe125     1.0  0.93541  0.97928  0.73827  1.0000
  H   H1912     1.0  0.90021  0.85695  0.67440  1.0000
  H   H1913     1.0  0.51931  0.56778  0.94313  1.0000
  H   H1914     1.0  0.97957  0.91055  0.83974  1.0000
  H   H1915     1.0  0.97973  0.88089  0.65923  1.0000
  Fe  Fe126     1.0  0.94576  0.92656  0.71735  1.0000
  C   C1083     1.0  0.69747  0.48982  0.78037  1.0000
  H   H1916     1.0  0.50847  0.76968  0.91243  1.0000
  H   H1917     1.0  0.71986  0.56119  0.70517  1.0000
  H   H1918     1.0  0.86294  0.82863  0.65686  1.0000
  H   H1919     1.0  0.72276  0.55752  0.75699  1.0000
  C   C1084     1.0  0.58043  0.50423  0.75148  1.0000
  H   H1920     1.0  0.94952  0.93732  0.81126  1.0000
  S   S246      1.0  0.93145  0.93781  0.75671  1.0000
  H   H1921     1.0  0.50717  0.66362  0.96423  1.0000
  H   H1922     1.0  0.65592  0.50381  0.77087  1.0000
  H   H1923     1.0  0.92160  0.96298  0.82342  1.0000
  H   H1924     1.0  0.52993  0.72758  0.84262  1.0000
  H   H1925     1.0  0.59701  0.66543  0.71712  1.0000
  H   H1926     1.0  0.65033  0.66067  0.69689  1.0000
  H   H1927     1.0  0.71072  0.49105  0.76137  1.0000
  H   H1928     1.0  0.77935  0.51067  0.95862  1.0000
  S   S247      1.0  0.71829  0.52286  0.65395  1.0000
  H   H1929     1.0  0.72062  0.50539  0.96453  1.0000
  H   H1930     1.0  0.60504  0.62973  0.72434  1.0000
  C   C1085     1.0  0.58142  0.59696  0.68534  1.0000
  C   C1086     1.0  0.78187  0.48932  0.95870  1.0000
  H   H1931     1.0  0.57154  0.60353  0.66826  1.0000
  C   C1087     1.0  0.51074  0.72041  0.84351  1.0000
  C   C1088     1.0  0.91700  0.91486  0.67314  1.0000
  C   C1089     1.0  0.60578  0.63570  0.67279  1.0000
  H   H1932     1.0  0.51159  0.73963  0.88752  1.0000
  C   C1090     1.0  0.93725  0.94471  0.82922  1.0000
  H   H1933     1.0  0.65899  0.50833  0.80150  1.0000
  C   C1091     1.0  0.61414  0.64767  0.72032  1.0000
  H   H1934     1.0  0.60655  0.65083  0.76047  1.0000
  H   H1935     1.0  0.67337  0.51832  0.89722  1.0000
  C   C1092     1.0  0.51917  0.65564  0.68004  1.0000
  C   C1093     1.0  0.62425  0.64968  0.74425  1.0000
  C   C1094     1.0  0.90503  0.91590  0.82529  1.0000
  H   H1936     1.0  0.59926  0.64020  0.65398  1.0000
  H   H1937     1.0  0.56717  0.60597  0.70173  1.0000
  C   C1095     1.0  0.65561  0.62965  0.65540  1.0000
  H   H1938     1.0  0.51444  0.70851  0.92378  1.0000
  C   C1096     1.0  0.61963  0.52202  0.72769  1.0000
  N   N61       1.0  0.63125  0.64642  0.67155  1.0000
  H   H1939     1.0  0.92131  0.80811  0.67756  1.0000
  H   H1940     1.0  0.92178  0.98240  0.85912  1.0000
  H   H1941     1.0  0.61414  0.50877  0.85626  1.0000
  H   H1942     1.0  0.87037  0.89278  0.74426  1.0000
  H   H1943     1.0  0.98872  0.92543  0.66120  1.0000
  H   H1944     1.0  0.62833  0.53906  0.71868  1.0000
  C   C1097     1.0  0.86179  0.87671  0.71350  1.0000
  C   C1098     1.0  0.69777  0.57097  0.70367  1.0000
  H   H1945     1.0  0.60725  0.49698  0.79856  1.0000
  C   C1099     1.0  0.86675  0.83770  0.67240  1.0000
  C   C1100     1.0  0.50139  0.49575  0.86279  1.0000
  H   H1946     1.0  0.81265  0.91320  0.68691  1.0000
  C   C1101     1.0  0.61947  0.49265  0.87117  1.0000
  C   C1102     1.0  0.71873  0.54630  0.77616  1.0000
  H   H1947     1.0  0.64482  0.68354  0.65694  1.0000
  H   H1948     1.0  0.62306  0.59412  0.66543  1.0000
  H   H1949     1.0  0.69057  0.56033  0.69133  1.0000
  H   H1950     1.0  0.58211  0.91990  0.98058  1.0000
  C   C1103     1.0  0.84341  0.88563  0.66223  1.0000
  H   H1951     1.0  0.66872  0.53051  0.95135  1.0000
  H   H1952     1.0  0.78298  0.79824  0.69816  1.0000
  H   H1953     1.0  0.58132  0.68914  0.67236  1.0000
  C   C1104     1.0  0.54310  0.90804  0.98377  1.0000
  H   H1954     1.0  0.81216  0.82265  0.71257  1.0000
  H   H1955     1.0  0.84108  0.84443  0.71983  1.0000
  H   H1956     1.0  0.60426  0.69891  0.68870  1.0000
  H   H1957     1.0  0.50647  0.74880  0.94259  1.0000
  H   H1958     1.0  0.88212  0.86190  0.71277  1.0000
  H   H1959     1.0  0.50923  0.73106  0.65312  1.0000
  C   C1105     1.0  0.92024  0.92372  0.84324  1.0000
  H   H1960     1.0  0.64462  0.51648  0.94028  1.0000
  H   H1961     1.0  0.54256  0.92101  0.94352  1.0000
  N   N62       1.0  0.49722  0.49804  0.91061  1.0000
  S   S248      1.0  0.67347  0.49262  0.84968  1.0000
  H   H1962     1.0  0.89858  0.95280  0.68745  1.0000
  S   S249      1.0  0.94578  0.96845  0.69873  1.0000
  H   H1963     1.0  0.93346  0.88011  0.65348  1.0000
  H   H1964     1.0  0.51388  0.69508  0.87875  1.0000
  C   C1106     1.0  0.83965  0.86402  0.70743  1.0000
  C   C1107     1.0  0.60929  0.60501  0.68079  1.0000
  H   H1965     1.0  0.49891  0.53112  0.87993  1.0000
  H   H1966     1.0  0.79946  0.90597  0.66125  1.0000
  C   C1108     1.0  0.60114  0.69558  0.67012  1.0000
  H   H1967     1.0  0.72469  0.57959  0.79215  1.0000
  H   H1968     1.0  0.58487  0.57473  0.68941  1.0000
  H   H1969     1.0  0.81862  0.87625  0.71450  1.0000
  H   H1970     1.0  0.51642  0.70292  0.83275  1.0000
  H   H1971     1.0  0.55395  0.94634  0.97299  1.0000
  H   H1972     1.0  0.57173  0.89358  0.95034  1.0000
  S   S250      1.0  0.76803  0.50233  0.91166  1.0000
  C   C1109     1.0  0.81795  0.90970  0.66680  1.0000
  C   C1110     1.0  0.85367  0.88450  0.74030  1.0000
  C   C1111     1.0  0.49746  0.49938  0.65433  1.0000
  H   H1973     1.0  0.69743  0.53234  0.90816  1.0000
  H   H1974     1.0  0.93378  0.90500  0.85112  1.0000
  H   H1975     1.0  0.90422  0.93215  0.85895  1.0000
  H   H1976     1.0  0.51852  0.53659  0.96355  1.0000
  C   C1112     1.0  0.50734  0.51160  0.83661  1.0000
  C   C1113     1.0  0.62649  0.67488  0.65816  1.0000
  H   H1977     1.0  0.50171  0.58054  0.82387  1.0000
  H   H1978     1.0  0.72967  0.52504  0.77497  1.0000
  N   N63       1.0  0.84195  0.86010  0.68018  1.0000
  C   C1114     1.0  0.90243  0.94178  0.67150  1.0000
  H   H1979     1.0  0.66179  0.55083  0.90818  1.0000
  H   H1980     1.0  0.85126  0.86667  0.75448  1.0000
  H   H1981     1.0  0.65316  0.62563  0.70213  1.0000
  C   C1115     1.0  0.50747  0.50911  0.88366  1.0000
  S   S251      1.0  0.98015  0.97324  0.74226  1.0000
  C   C1116     1.0  0.59203  0.52625  0.74051  1.0000
  C   C1117     1.0  0.63615  0.49594  0.72686  1.0000
  H   H1982     1.0  0.53115  0.65938  0.93446  1.0000
  H   H1983     1.0  0.70370  0.53051  0.73979  1.0000
  H   H1984     1.0  0.78309  0.82072  0.66900  1.0000
  H   H1985     1.0  0.89121  0.93395  0.81658  1.0000
  H   H1986     1.0  0.86448  0.89519  0.70053  1.0000
  H   H1987     1.0  0.61878  0.59803  0.69805  1.0000
  H   H1988     1.0  0.58809  0.49112  0.83022  1.0000
  C   C1118     1.0  0.66675  0.51731  0.93827  1.0000
  N   N64       1.0  0.67021  0.53939  0.77180  1.0000
  H   H1989     1.0  0.53352  0.49962  0.92486  1.0000
  H   H1990     1.0  0.53049  0.50688  0.88041  1.0000
  C   C1119     1.0  0.64045  0.55593  0.77558  1.0000
  C   C1120     1.0  0.68688  0.54960  0.78644  1.0000
  H   H1991     1.0  0.58740  0.64607  0.68556  1.0000
  C   C1121     1.0  0.67905  0.57056  0.72972  1.0000
  C   C1122     1.0  0.62407  0.55474  0.80324  1.0000
  C   C1123     1.0  0.73243  0.55744  0.79310  1.0000
  C   C1124     1.0  0.59682  0.57634  0.80552  1.0000
  H   H1992     1.0  0.83389  0.90020  0.74221  1.0000
  H   H1993     1.0  0.92629  0.95139  0.87883  1.0000
  H   H1994     1.0  0.62804  0.54989  0.76388  1.0000
  H   H1995     1.0  0.63996  0.57753  0.76890  1.0000
  H   H1996     1.0  0.67842  0.57150  0.78762  1.0000
  H   H1997     1.0  0.68442  0.53980  0.80647  1.0000
  C   C1125     1.0  0.66914  0.51050  0.78136  1.0000
  C   C1126     1.0  0.68154  0.54152  0.74372  1.0000
  H   H1998     1.0  0.65719  0.57928  0.72677  1.0000
  H   H1999     1.0  0.68466  0.58374  0.74076  1.0000
  H   H2000     1.0  0.63655  0.55762  0.81658  1.0000
  H   H2001     1.0  0.61826  0.53511  0.80948  1.0000
  H   H2002     1.0  0.64087  0.63169  0.74871  1.0000
  H   H2003     1.0  0.72786  0.54827  0.81305  1.0000
  H   H2004     1.0  0.75545  0.55281  0.78671  1.0000
  H   H2005     1.0  0.58326  0.57373  0.79299  1.0000
  H   H2006     1.0  0.58537  0.57466  0.82535  1.0000
  H   H2007     1.0  0.60109  0.59674  0.80038  1.0000
  C   C1127     1.0  0.93810  0.96526  0.86585  1.0000
  C   C1128     1.0  0.97299  0.96952  0.82587  1.0000
  C   C1129     1.0  0.81597  0.85191  0.67786  1.0000
  H   H2008     1.0  0.79685  0.86681  0.68496  1.0000
  H   H2009     1.0  0.66439  0.51531  0.67790  1.0000
  S   S252      1.0  0.92937  0.89855  0.70082  1.0000
  C   C1130     1.0  0.67543  0.53044  0.91130  1.0000
  H   H2010     1.0  0.61828  0.53205  0.66501  1.0000
  H   H2011     1.0  0.98584  0.95846  0.81010  1.0000
  H   H2012     1.0  0.52231  0.63477  0.68743  1.0000
  H   H2013     1.0  0.50451  0.50068  0.82195  1.0000
  H   H2014     1.0  0.86955  0.82117  0.68837  1.0000
  C   C1131     1.0  0.58634  0.48931  0.66202  1.0000
  H   H2015     1.0  0.81562  0.85161  0.65751  1.0000
  C   C1132     1.0  0.78452  0.81890  0.68929  1.0000
  H   H2016     1.0  0.89204  0.90180  0.83589  1.0000
  S   S253      1.0  0.51040  0.58860  0.71207  1.0000
  H   H2017     1.0  0.98814  0.97468  0.83500  1.0000
  H   H2018     1.0  0.53725  0.88760  0.95463  1.0000
  C   C1133     1.0  0.81222  0.82401  0.69205  1.0000
  H   H2019     1.0  0.86243  0.89259  0.66229  1.0000
  H   H2020     1.0  0.69689  0.59200  0.69471  1.0000
  H   H2021     1.0  0.49499  0.64709  0.82584  1.0000
  H   H2022     1.0  0.51835  0.59357  0.85873  1.0000
  H   H2023     1.0  0.82915  0.80759  0.68426  1.0000
  H   H2024     1.0  0.51129  0.54883  0.90779  1.0000
  S   S254      1.0  0.50491  0.60379  0.76940  1.0000
  Fe  Fe127     1.0  0.97740  0.93064  0.75694  1.0000
  C   C1134     1.0  0.50568  0.53889  0.92726  1.0000
  C   C1135     1.0  0.53580  0.66360  0.65726  1.0000
  C   C1136     1.0  0.51204  0.70999  0.66062  1.0000
  H   H2025     1.0  0.56420  0.49149  0.66058  1.0000
  C   C1137     1.0  0.89520  0.84519  0.66186  1.0000
  H   H2026     1.0  0.96544  0.91623  0.87151  1.0000
  H   H2027     1.0  0.96472  0.95789  0.89438  1.0000
  C   C1138     1.0  0.97556  0.92562  0.85311  1.0000
  H   H2028     1.0  0.70876  0.49300  0.79454  1.0000
  H   H2029     1.0  0.92035  0.90567  0.81007  1.0000
  H   H2030     1.0  0.50620  0.63869  0.94547  1.0000
  Fe  Fe128     1.0  0.99013  0.95906  0.70416  1.0000
  H   H2031     1.0  0.57677  0.49123  0.88664  1.0000
  H   H2032     1.0  0.68976  0.64205  0.66632  1.0000
  H   H2033     1.0  0.84018  0.94186  0.65761  1.0000
  H   H2034     1.0  0.58712  0.49954  0.67801  1.0000
  H   H2035     1.0  0.57951  0.73731  0.66224  1.0000
  C   C1139     1.0  0.59801  0.72285  0.65352  1.0000
  C   C1140     1.0  0.68502  0.48862  0.94278  1.0000
  H   H2036     1.0  0.50351  0.79590  0.94705  1.0000
  S   S255      1.0  0.74752  0.50204  0.84747  1.0000
  H   H2037     1.0  0.80441  0.95209  0.65333  1.0000
  C   C1141     1.0  0.95332  0.97525  0.88273  1.0000
  H   H2038     1.0  0.55788  0.98641  0.98277  1.0000
  H   H2039     1.0  0.49542  0.73662  0.83436  1.0000
  H   H2040     1.0  0.70724  0.48958  0.93570  1.0000
  C   C1142     1.0  0.91895  0.82015  0.65885  1.0000
  H   H2041     1.0  0.52906  0.51444  0.83229  1.0000
  H   H2042     1.0  0.55906  0.50750  0.76144  1.0000
  H   H2043     1.0  0.52239  0.55823  0.66249  1.0000
  C   C1143     1.0  0.52355  0.54564  0.94356  1.0000
  H   H2044     1.0  0.91738  0.98284  0.91321  1.0000
  C   C1144     1.0  0.51049  0.50810  0.92829  1.0000
  C   C1145     1.0  0.66203  0.53014  0.66159  1.0000
  C   C1146     1.0  0.50956  0.65918  0.94457  1.0000
  H   H2045     1.0  0.59223  0.96612  0.97475  1.0000
  C   C1147     1.0  0.49817  0.71200  0.87096  1.0000
  S   S256      1.0  0.49616  0.54443  0.76140  1.0000
  C   C1148     1.0  0.49659  0.59336  0.86055  1.0000
  C   C1149     1.0  0.49858  0.67473  0.69296  1.0000
  H   H2046     1.0  0.62671  0.50807  0.97982  1.0000
  H   H2047     1.0  0.96824  0.98685  0.87144  1.0000
  C   C1150     1.0  0.92139  0.90063  0.65262  1.0000
  C   C1151     1.0  0.49513  0.70196  0.68322  1.0000
  C   C1152     1.0  0.71400  0.49698  0.98438  1.0000
  H   H2048     1.0  0.50032  0.62031  0.65178  1.0000
