data_image0
_chemical_formula_structural       FeSFeS2Fe2S3CHSCH8CH7CH3FeS2HSFeHFeS2C7H4CH3CNHC2SC2H2CH3CSC6H2SHC6H2CHNHCH6NHC2HC3H5C2H2CH4CSCH3CH2C2HCH3CH2C2H2NFeNCHC2H4CH12CH6CH7CH2CH2NHCH3CH2C3NCH2CH2C2H11C3H3C2H4CHC2H2CHC3HC3H2SH2CHCH7CH5NHCH3CH3C2H2CH2CH2C2HCHSH2CH2CHC3HC2HFeS2FeS2FeSFeS4HSHSHCH6SFeS2H4CHSHCFeS4FeS2FeS2FeSFeS3C6H6SH3CH2C4H3C6H6C4HCH2C2HCH5CHCH5C6H4C6H4C5H3CHCH6C7H4NC4HCHC4H9CH3C2HCHCHCH7CHC2H2CH6CHCH7C3FeCH3C2H8C2HCH2CH3CH4CH2NC10H22NC4HC3H2C2H7CSH6C4HFeH7NCH2C3HCHC2H4FeC2H6CH4CH11CHCHFeNCFeCHFeCSH4FeC2HS2C3S2HSH3SCH2FeSCHCH3SH4CHC2H3CH2C2H2C2HCH2NCH3NCH3C2FeHCH5NH2CH10CHCHCH3CH4C3H3CH2CH3C3HCHNCHCH5CH5FeH2SCH5C3HCH3FeH3CH3CH10CSC4H5C2FeH2C2H5C2H9SH2CHS2FeSCFeS2FeS2FeSFeS3FeS2FeS2CHFeS3FeS2FeS2FeSFeS3FeS2FeS2FeHFeS3CFeSHCH10S2HCH2CHSFeHCHCHCHC6H4C6H5CHC2H2CH7SNHCH3SH2C8H4C6H4C6H4C6H5CHS2H2C5NH3C3H4C6H4C6H4C2HC3HS2CHNC8HCHCHSH13SH13C2HCH3FeH4CH2CH6CH4FeCSCHCHCH2CH3CHC3FeH3CNC12H28NC10H20NC4H2CH7CH4CHFeHCH2CH2C2H7CH11CH3FeH4C4H3C3HC2H4CHCHCH3NCH3C4H2CHC5H9CH3NCH5CH2C2H2CHC4H2CH3S2HCHC2H3SH6CNHC3H2CHCH4C2H2C3H4CHCH2CHCSCH7CHCHCHSNH3C2H4CH2CH2CH2C6SH5CH2CHCH2CSH3SCSC5H3CH6CHSH2FeCH2FeHCFeHCHCH2C2H2C2H8SH3CH4NFeH2SHCH9C4SCHCFeCSHSH3CHCH2CFeHFeH2CH2CHC2H2CH3SCSHCH2NH10NFeH2FeHFeH3CH7CNHCH5CHC3SHCH3SCH6SCHSH2C2H3CHFeCSCFeS2CHFeSCSFeS2HSHFeSFeSHSH2SHCHCSHCH8CH8FeH2NH4C2H2C6H5C3H3C6H4C6H4C2H7C2HCSH13CH2C3HC2HCH2CHCH8NC4H6NH2C3HSHFeS2FeS2FeSFeS3HFeS2FeS2FeSFeHS3C6H4C4H3FeHSHC2HCH2C6H4C6H4CHCH5CH2C6H6C2H4C6H3C2H3CH3C2HCH2C2H4C2SFeC3H2SCHCH3CH2SCH2CH2CH3FeH2SH10FeHCNC7HC2HFe2CHCH2CH2SHC3H2CH4FeH5CH3CNH11CSCH2C2HSC2HCH3CH3CH4CSH2SNSHSC3H7FeHC2HC2H2CHSH3NS2HCSH2C2H4CH4C2H2C2HCHC2H4CHCH4CHCHNC6HC3H12CH2CH10CHCHCH3NCH2C2H3NH8CH4C2H2CH2C2HCH8CHCHCH2C2H2CH5CH6CH9NCHCSHFeSHCSH6FeS2FeS2FeSFeS3FeS2H2FeSFeCHFeS2FeS2FeSFeS3H3CSH3C6HNH2C2HCH3C6H4NC7H4C4H3CH4CHC7H4CHC4HCH2C6H6NC5H2C3H14CH10SH5CH2C4H2CH3CH12C2H3CH6CHSHCH5CFeH2CH4CHC2HCH5SHFeHCH6CH6CH2FeH3CSH4CH2CH5SH5C2HCH11C3H2CH3S2H3C2H2CH8C2FeH2C2H2CH2C3HCH2SH2CH8NCH3C3NCH2CH6C2NHC2HCH2CH3C2H3C3HSHCH2CH2CH3C2HC2H4CH2CFeHC2H3CH3NC2H4CHC3FeNH4CH2C4SCHC3HC2HC2H4C2HNC3H4CHCHCH3CH3C2H2CH2CHS2H2C3HSFeS2FeSFeSFeS3H2SH2SHFeS2FeS2FeSFeS3FeCSH2NFeS2FeS2FeSFeS3FeS2FeS2FeSFeS2H4FeS2FeHFeS2CH3SC2HFeSNH2C3HCH6C6NSH2C6H4C6H4CH7C6H4C6H4C6H4C6H4C2H5C6H4C6H4C6H3NC12H28NCH3CH5NC2SNC12H27CNCHC2HCH2C4H3FeH13CH7CH3NC11H28SC2H3C2H4CH13CHC3HC7FeHCH14NC9H20CHCHSCH2CNH2CHFeH3CH2CHC2HCHFeC2H2CH4CHCHC2HSC2HCH2CH2C2SFeHCHC2HCHCHCHSHCH5C2H4CH3CH12NCHC3H2CH9C2NC3H3CHC2H4C3H2SFeC2H3CHC2NCH2C3SHNH2CHCHCH2CHC2HC3H2C2H3CHCH2CH2CHC2HCHCSH4CH6CH2SC3HCH3SH3CSCH4CH3CHCHC2H10C2H2CHCH3CSH2C3H2CH2CHCHCH5C4HCH2CHC2HC4H3C3HCHCH5CH6C2NCH4CH4CHS3H2NHSHC2H2C3H2CHCH2C2H2CH2CH3FeH3SH2CHSC2H5CH4CH9CH3C3H5CH7SHC3FeHCHCHFeC3HSH7CH4C2HFeS2FeS2FeSFeS3FeS2FeSHFeSFeS3FeSHFeSFeSFeS3FeS2FeS2FeSFeS3FeS2FeS2FeSFeS3FeS2FeS2FeHFeS4CHCHCHC6H4FeCHC6H4C6H4CH5C2H2C6H2C6H4C3H2C6H4C2HC6H4C6H4C6H4CH2CHNH4CH4NHNCHC2HC2H2NC2H8CH5CHCHCHCH4SHNC9SCH17CHCHCH4CH4CH2NC12H28NFeHC3HCH2CH3CHSH12C2HCH2CH2CH3CH8NH2CH4C2H2CH3CSH3CHCHCH2CH5CHCH2SHCH2CH2SC2H3C2H2CH3C2H7C2NHCNC3H2C2H2NC3HC2H2CH3CH2CH2CH3C2HCH2C2HCH10C3H2C2H3CH2C2HNHCHCHC2H3CH9CH3C4H12C2HNCHC3HSHC3H2CH8CHC2H6CH3C2HFeC2HCHC4HCH2CH2C3HC5H2C2H4CHCH2C2NCH2CH8C2HC2H2CH2C4H5CH2CH2CHC2H2CH3SH9CH3C2H3CHCH2CSHC3H4CH4NC2H3CHCH2CH8CHCH7CH6CH2CH3CH5CH6CH2CHCH2SH6CH4CH3SC2H9C2H3C2H3CHSH3CH4C2H2C2HCH4C3HSHCHCSCH2FeS2FeS2FeSFeS3FeS2FeSFeHSFeS2FeS2FeSFeS3FeS2CHFeSCHSCH4CHCFeHSH2C2HCH5C2HCH2CHFeHCHSCH2CSFeSC6H3C6H4C6H4C3H2FeC3FeHCH3C6H4C6H6CH4CSH4C2H2CH2C7H3SNHC3H2C3H2CH21CHNH4CH4CHNH2CH2SC2H5CHCH3CH3CH3NHC2H4NC10H2CH3CH8CH4CH14SNHCH7CH2FeH4CH3CH3CH2FeH3CH3CH3C2HCHC2H2C4H2C2H2CH5CH6SH4C2NHCH3CH2C3HCH4CHCH4CH4CHCH5SC2H2CHC2HNC2HCH2C2SCH3CH8CH4CH2CSCHC3HCSH2CH2CH3C2HC2H4CH2CHC4H11CSH6C3H3CH2CHCH2CH2CH9NHFe2HSHCSHFeS2FeS2FeSFeS3HCFeHSHCSFeS2FeS2FeSFeS3CHSCFeHCNHFeS2FeSFeSFeS3FeS2FeSHFeSFeS3FeSCH2CHFeCFeCFeHSH2SFe2HFeS2FeSFeS3C6H4C6H2NHC6H4SH4C2HC3SH2C6H7C2H4C6H4C6H9SCHC6H5C2HC2FeH4CHC6H4C6H4C2HC2H2CHSHSH5C7H8CH2C3H4C2H2SH3CH3CHC4HCNC12H28NC10HCH22CH3C3SH4CH5C2HNC12H28C2H5NC10HCH24CH3NC12H26NC4HC2HC2H3SHSH6CHCH2SHC4H7C3H3CH2C2H6SH3CHSHCH3CH2CHC2H2C3HC2HCH4CNHSH5C3H3CHSH2SCH3C2HCNFeH2C2HCH5CHFeHCHCH4C2H3C4H3CH3C2H3CHNH5CH2CFeH6CH2C2H3C2H4CHCH4CHCHCHC2H6FeHCH2SCSCH2CH2CHSCHC2H6CH2NCHCSC2H2FeHCHCHC3H2CHNHCHCH2C2H2CHCH2FeHSH8CH3CH4CHC2HCFeHCHNSH4CHNHCH3CFeH10C2HC2HCHSH3CH2SCS2H3CSH3C2SFeCH2SNH2CH6CH2SCH3CH7CH4CHCHCH2C2HCHCHCHSCH2SH4C2H3CSHS2CSHCH3C3HC2HC2S2FeCHCH7CH3C2H2FeHC2NSCHCHCHCH9CNH3CHSHCFeH2FeSH3C2SH2CH3CFeH3CHSHFeNH5NHSHCH4C3HCH8FeCHC2H2CHC3HC2H5CHC2HCH7SHCH4CH3CHC3HCHCNH7CHC2H3SH2SFeS2FeS2FeSFeS3FeS2FeS2FeSFeS3H6FeS2FeS2FeSFeS3H4CH2CFeS2FeS2FeSFeS3C6H2CH2C2H2C3HC2H2CHC6H4CH6CHC6H4C6H4C6H4CH9C6H6C2HC6H9FeC6H3CHC3FeH4NC12H37CH6NHNHC2H3C2H2C2H2C2HCH2C2H7CH2SC4H5CHCH8CHCH2CNHC2HC2HC3H4C2H2CH3SH7C2H5CNC12H18CHCH6SCH2CH6C2H2CH4SCHCH6C2HC2FeHN2CH2CHCHC2H2C2H2CH4CH3CHCHCHC2FeH2CH2SC2H4C2HFeHCH4CH5CHC2HCHC2SC2HSHC4H5NC2H3CH3CH4CHC2H2CH2SCH2C2H2C2HCHC3H2CHC2SHCH3FeHCH2CNH3C2H2C2FeH7FeC2H3C3H2CH5CSHCH5C2H6C2HC2HCH2SH5C2HC2H2CH3SFeSCNH2C3H4NCH2SH5SCH8C2HCHCH3NCH7CH2NHCH2CH3CH2CHCH2C2H11SHC2H3FeSH2CHCSH3C2HSH2CHFeHFe2C2S2C2H2CHNHC4HCH4CH3C2H6CHC3H3CH5CH4CH2SH3SH2C3H2CNHC
_chemical_formula_sum              "Fe256 S512 C2304 H4096 N128"
_cell_length_a       113.333
_cell_length_b       112.218
_cell_length_c       35.8373
_cell_angle_alpha    76.955
_cell_angle_beta     76.9668
_cell_angle_gamma    100.675

_space_group_name_H-M_alt    "P 1"
_space_group_IT_number       1

loop_
  _space_group_symop_operation_xyz
  'x, y, z'

loop_
  _atom_site_type_symbol
  _atom_site_label
  _atom_site_symmetry_multiplicity
  _atom_site_fract_x
  _atom_site_fract_y
  _atom_site_fract_z
  _atom_site_occupancy
  Fe  Fe1       1.0  0.05112  0.47846  0.59765  1.0000
  S   S1        1.0  0.05304  0.47883  0.53397  1.0000
  Fe  Fe2       1.0  0.05860  0.45419  0.61846  1.0000
  S   S2        1.0  0.06139  0.45212  0.55549  1.0000
  S   S3        1.0  0.06202  0.44261  0.67413  1.0000
  Fe  Fe3       1.0  0.07103  0.47304  0.53605  1.0000
  Fe  Fe4       1.0  0.04317  0.45804  0.55671  1.0000
  S   S4        1.0  0.02542  0.45103  0.53699  1.0000
  S   S5        1.0  0.06957  0.47431  0.59816  1.0000
  S   S6        1.0  0.03989  0.45842  0.62122  1.0000
  C   C1        1.0  0.01603  0.41149  0.58401  1.0000
  H   H1        1.0  0.16068  0.48315  0.04555  1.0000
  S   S7        1.0  0.99677  0.42005  0.43754  1.0000
  C   C2        1.0  0.12833  0.47284  0.38686  1.0000
  H   H2        1.0  0.05020  0.47095  0.40696  1.0000
  H   H3        1.0  0.04370  0.46718  0.78978  1.0000
  H   H4        1.0  0.00422  0.48947  0.51814  1.0000
  H   H5        1.0  0.14660  0.47848  0.99906  1.0000
  H   H6        1.0  0.10230  0.47096  0.41494  1.0000
  H   H7        1.0  0.00146  0.37841  0.45692  1.0000
  H   H8        1.0  0.02775  0.47985  0.79306  1.0000
  H   H9        1.0  0.10443  0.45669  0.59479  1.0000
  C   C3        1.0  0.02731  0.44189  0.73945  1.0000
  H   H10       1.0  0.01666  0.44835  0.07721  1.0000
  H   H11       1.0  0.03726  0.44364  0.72265  1.0000
  H   H12       1.0  0.01619  0.44587  0.78967  1.0000
  H   H13       1.0  0.02240  0.44641  0.71883  1.0000
  H   H14       1.0  0.03010  0.45782  0.76260  1.0000
  H   H15       1.0  0.00453  0.44123  0.85850  1.0000
  H   H16       1.0  0.00975  0.45221  0.93874  1.0000
  C   C4        1.0  0.10297  0.47914  0.61412  1.0000
  H   H17       1.0  0.98885  0.43559  0.49096  1.0000
  H   H18       1.0  0.04906  0.42925  0.83309  1.0000
  H   H19       1.0  0.10141  0.47588  0.69582  1.0000
  Fe  Fe5       1.0  0.07404  0.47034  0.85972  1.0000
  S   S8        1.0  0.07823  0.45541  0.90543  1.0000
  S   S9        1.0  0.07477  0.47420  0.79355  1.0000
  H   H20       1.0  0.00373  0.38512  0.23141  1.0000
  S   S10       1.0  0.07107  0.47142  0.96999  1.0000
  Fe  Fe6       1.0  0.08844  0.47149  0.92474  1.0000
  H   H21       1.0  0.04360  0.44568  0.78690  1.0000
  Fe  Fe7       1.0  0.06048  0.45683  0.94705  1.0000
  S   S11       1.0  0.04402  0.44129  0.99151  1.0000
  S   S12       1.0  0.05616  0.47110  0.90090  1.0000
  C   C5        1.0  0.03351  0.44177  0.80353  1.0000
  C   C6        1.0  0.03052  0.43312  0.98185  1.0000
  C   C7        1.0  0.03087  0.42229  0.96888  1.0000
  C   C8        1.0  0.01975  0.41360  0.97221  1.0000
  C   C9        1.0  0.00804  0.41549  0.98892  1.0000
  C   C10       1.0  0.00759  0.42666  0.99993  1.0000
  C   C11       1.0  0.01878  0.43539  0.99662  1.0000
  H   H22       1.0  0.03974  0.42010  0.95897  1.0000
  H   H23       1.0  0.02023  0.40499  0.96375  1.0000
  H   H24       1.0  0.99864  0.42828  0.01282  1.0000
  H   H25       1.0  0.01831  0.44352  0.00782  1.0000
  C   C12       1.0  0.00248  0.48007  0.51241  1.0000
  H   H26       1.0  0.04082  0.44549  0.88915  1.0000
  H   H27       1.0  0.17034  0.46095  0.91907  1.0000
  H   H28       1.0  0.06285  0.47853  0.73159  1.0000
  C   C13       1.0  0.14719  0.47790  0.40804  1.0000
  N   N1        1.0  0.10439  0.48871  0.63749  1.0000
  H   H29       1.0  0.13862  0.47117  0.07319  1.0000
  C   C14       1.0  0.12167  0.48461  0.51161  1.0000
  C   C15       1.0  0.16098  0.48516  0.40005  1.0000
  S   S13       1.0  0.00283  0.48684  0.37261  1.0000
  C   C16       1.0  0.05875  0.43237  0.87640  1.0000
  C   C17       1.0  0.04375  0.40445  0.05016  1.0000
  H   H30       1.0  0.03745  0.40579  0.10954  1.0000
  H   H31       1.0  0.99239  0.40696  0.12951  1.0000
  C   C18       1.0  0.04240  0.44365  0.85930  1.0000
  H   H32       1.0  0.10069  0.46252  0.46554  1.0000
  H   H33       1.0  0.00671  0.47677  0.59463  1.0000
  H   H34       1.0  0.13211  0.46007  0.04953  1.0000
  C   C19       1.0  0.02125  0.48791  0.45104  1.0000
  S   S14       1.0  0.10864  0.47610  0.93046  1.0000
  C   C20       1.0  0.06454  0.45077  0.70989  1.0000
  C   C21       1.0  0.06971  0.44568  0.74019  1.0000
  C   C22       1.0  0.07255  0.45250  0.76708  1.0000
  C   C23       1.0  0.07012  0.46442  0.76410  1.0000
  C   C24       1.0  0.06477  0.46934  0.73424  1.0000
  C   C25       1.0  0.06188  0.46255  0.70759  1.0000
  H   H35       1.0  0.07191  0.43662  0.74203  1.0000
  H   H36       1.0  0.07716  0.44879  0.78874  1.0000
  S   S15       1.0  0.08842  0.48453  0.48505  1.0000
  H   H37       1.0  0.05774  0.46655  0.68489  1.0000
  C   C26       1.0  0.01772  0.44262  0.50817  1.0000
  C   C27       1.0  0.02383  0.43638  0.48301  1.0000
  C   C28       1.0  0.01731  0.42972  0.46146  1.0000
  C   C29       1.0  0.00463  0.42935  0.46383  1.0000
  C   C30       1.0  0.99857  0.43576  0.48848  1.0000
  C   C31       1.0  0.00501  0.44218  0.51072  1.0000
  H   H38       1.0  0.03355  0.43654  0.48050  1.0000
  H   H39       1.0  0.02216  0.42481  0.44270  1.0000
  C   C32       1.0  0.16958  0.47986  0.92370  1.0000
  H   H40       1.0  0.00008  0.44687  0.53010  1.0000
  N   N2        1.0  0.17295  0.48685  0.98628  1.0000
  H   H41       1.0  0.10029  0.46143  0.66130  1.0000
  C   C33       1.0  0.99272  0.43951  0.22013  1.0000
  H   H42       1.0  0.08718  0.48655  0.02514  1.0000
  H   H43       1.0  0.05374  0.40813  0.04808  1.0000
  H   H44       1.0  0.02227  0.40637  0.15906  1.0000
  H   H45       1.0  0.12962  0.46345  0.38391  1.0000
  H   H46       1.0  0.08929  0.45929  0.59171  1.0000
  H   H47       1.0  0.03027  0.48231  0.83932  1.0000
  N   N3        1.0  0.98888  0.39121  0.55664  1.0000
  H   H48       1.0  0.15776  0.48916  0.32656  1.0000
  C   C34       1.0  0.04691  0.43129  0.86245  1.0000
  C   C35       1.0  0.02992  0.47103  0.37126  1.0000
  H   H49       1.0  0.99924  0.41360  0.90766  1.0000
  C   C36       1.0  0.99856  0.39480  0.57781  1.0000
  C   C37       1.0  0.14085  0.46454  0.05540  1.0000
  C   C38       1.0  0.10381  0.48944  0.48954  1.0000
  H   H50       1.0  0.06188  0.42350  0.87816  1.0000
  H   H51       1.0  0.02661  0.47747  0.34975  1.0000
  H   H52       1.0  0.01228  0.46809  0.48679  1.0000
  H   H53       1.0  0.99811  0.47267  0.54123  1.0000
  H   H54       1.0  0.99592  0.42657  0.92688  1.0000
  C   C39       1.0  0.04158  0.48275  0.44031  1.0000
  C   C40       1.0  0.01137  0.44358  0.10890  1.0000
  H   H55       1.0  0.02349  0.42551  0.11945  1.0000
  H   H56       1.0  0.00775  0.42826  0.83915  1.0000
  C   C41       1.0  0.09495  0.45656  0.61226  1.0000
  H   H57       1.0  0.01319  0.39195  0.15777  1.0000
  H   H58       1.0  0.00178  0.49251  0.19942  1.0000
  H   H59       1.0  0.05694  0.43400  0.90637  1.0000
  H   H60       1.0  0.00378  0.44828  0.11752  1.0000
  C   C42       1.0  0.09181  0.49136  0.65162  1.0000
  S   S16       1.0  0.99446  0.40313  0.99841  1.0000
  C   C43       1.0  0.10627  0.46449  0.43408  1.0000
  H   H61       1.0  0.03858  0.41971  0.07097  1.0000
  H   H62       1.0  0.99971  0.42552  0.14544  1.0000
  H   H63       1.0  0.04271  0.48864  0.79351  1.0000
  C   C44       1.0  0.11769  0.48453  0.02802  1.0000
  H   H64       1.0  0.10325  0.47191  0.52992  1.0000
  H   H65       1.0  0.02080  0.42702  0.07220  1.0000
  C   C45       1.0  0.11089  0.47975  0.00365  1.0000
  C   C46       1.0  0.11572  0.48363  0.96203  1.0000
  H   H66       1.0  0.08472  0.48248  0.66916  1.0000
  C   C47       1.0  0.15069  0.47160  0.01580  1.0000
  H   H67       1.0  0.03987  0.42306  0.88446  1.0000
  H   H68       1.0  0.02314  0.42052  0.56764  1.0000
  H   H69       1.0  0.02215  0.42444  0.87720  1.0000
  C   C48       1.0  0.02623  0.44746  0.77489  1.0000
  H   H70       1.0  0.01893  0.43544  0.90435  1.0000
  H   H71       1.0  0.15933  0.47703  0.93696  1.0000
  C   C49       1.0  0.14327  0.48259  0.30143  1.0000
  C   C50       1.0  0.00296  0.40249  0.19075  1.0000
  H   H72       1.0  0.08607  0.46510  0.65452  1.0000
  H   H73       1.0  0.12095  0.47267  0.64682  1.0000
  N   N4        1.0  0.01236  0.40836  0.11374  1.0000
  Fe  Fe8       1.0  0.06815  0.48545  0.91992  1.0000
  N   N5        1.0  0.14088  0.48211  0.37616  1.0000
  C   C51       1.0  0.00457  0.39524  0.23009  1.0000
  H   H74       1.0  0.09802  0.48212  0.59145  1.0000
  C   C52       1.0  0.14897  0.48150  0.33712  1.0000
  C   C53       1.0  0.99705  0.42297  0.90019  1.0000
  H   H75       1.0  0.04632  0.46992  0.83470  1.0000
  H   H76       1.0  0.99345  0.44993  0.96401  1.0000
  H   H77       1.0  0.00994  0.41300  0.61064  1.0000
  H   H78       1.0  0.11044  0.49120  0.68894  1.0000
  C   C54       1.0  0.03553  0.40924  0.08055  1.0000
  H   H79       1.0  0.00463  0.47458  0.64729  1.0000
  H   H80       1.0  0.16788  0.47111  0.87635  1.0000
  H   H81       1.0  0.01950  0.39407  0.09021  1.0000
  H   H82       1.0  0.11395  0.48114  0.06011  1.0000
  H   H83       1.0  0.13320  0.47106  0.69550  1.0000
  H   H84       1.0  0.01773  0.44474  0.12800  1.0000
  H   H85       1.0  0.02090  0.47739  0.51106  1.0000
  H   H86       1.0  0.00372  0.41525  0.54784  1.0000
  H   H87       1.0  0.15188  0.47243  0.34164  1.0000
  H   H88       1.0  0.05059  0.45125  0.83919  1.0000
  H   H89       1.0  0.00166  0.40067  0.49787  1.0000
  H   H90       1.0  0.17189  0.48939  0.90245  1.0000
  C   C55       1.0  0.00613  0.47452  0.95778  1.0000
  H   H91       1.0  0.99394  0.39541  0.60799  1.0000
  H   H92       1.0  0.10217  0.47260  0.01718  1.0000
  H   H93       1.0  0.99996  0.38699  0.08922  1.0000
  H   H94       1.0  0.99973  0.42904  0.09410  1.0000
  H   H95       1.0  0.18320  0.47350  0.88430  1.0000
  H   H96       1.0  0.99580  0.47971  0.49401  1.0000
  C   C56       1.0  0.17300  0.47079  0.89946  1.0000
  H   H97       1.0  0.16134  0.48850  0.25622  1.0000
  H   H98       1.0  0.06003  0.47080  0.46112  1.0000
  H   H99       1.0  0.99081  0.45395  0.07708  1.0000
  H   H100      1.0  0.15431  0.47167  0.27147  1.0000
  H   H101      1.0  0.03807  0.47460  0.46769  1.0000
  H   H102      1.0  0.99487  0.46000  0.40122  1.0000
  H   H103      1.0  0.01379  0.39937  0.23375  1.0000
  C   C57       1.0  0.01319  0.40205  0.15473  1.0000
  H   H104      1.0  0.16653  0.47006  0.03682  1.0000
  H   H105      1.0  0.00380  0.38737  0.58268  1.0000
  C   C58       1.0  0.16304  0.47803  0.02264  1.0000
  H   H106      1.0  0.09028  0.44676  0.63114  1.0000
  H   H107      1.0  0.02602  0.46416  0.43556  1.0000
  N   N6        1.0  0.03114  0.48467  0.42175  1.0000
  H   H108      1.0  0.03180  0.43143  0.80680  1.0000
  C   C59       1.0  0.02519  0.47256  0.41370  1.0000
  H   H109      1.0  0.14696  0.46767  0.41303  1.0000
  H   H110      1.0  0.02580  0.45767  0.87483  1.0000
  H   H111      1.0  0.00972  0.47319  0.89579  1.0000
  C   C60       1.0  0.17690  0.48000  0.95555  1.0000
  H   H112      1.0  0.02303  0.43156  0.74968  1.0000
  H   H113      1.0  0.17645  0.47003  0.97074  1.0000
  C   C61       1.0  0.02489  0.45754  0.37011  1.0000
  C   C62       1.0  0.03460  0.48052  0.81078  1.0000
  C   C63       1.0  0.99586  0.39107  0.51555  1.0000
  N   N7        1.0  0.03098  0.44407  0.84427  1.0000
  C   C64       1.0  0.00738  0.43225  0.86495  1.0000
  H   H114      1.0  0.06639  0.44030  0.85534  1.0000
  H   H115      1.0  0.01493  0.47140  0.41858  1.0000
  C   C65       1.0  0.03911  0.46843  0.81873  1.0000
  H   H116      1.0  0.02026  0.40796  0.05330  1.0000
  H   H117      1.0  0.10546  0.45545  0.42599  1.0000
  C   C66       1.0  0.10893  0.48120  0.51279  1.0000
  C   C67       1.0  0.01621  0.42263  0.10467  1.0000
  H   H118      1.0  0.01997  0.45771  0.83313  1.0000
  H   H119      1.0  0.99778  0.47115  0.98429  1.0000
  H   H120      1.0  0.04150  0.39396  0.05925  1.0000
  H   H121      1.0  0.00254  0.38497  0.51804  1.0000
  H   H122      1.0  0.14419  0.45705  0.07299  1.0000
  H   H123      1.0  0.01451  0.45474  0.38065  1.0000
  H   H124      1.0  0.02781  0.45688  0.33907  1.0000
  H   H125      1.0  0.02863  0.45082  0.38921  1.0000
  H   H126      1.0  0.12559  0.47796  0.52872  1.0000
  H   H127      1.0  0.11227  0.47873  0.59669  1.0000
  H   H128      1.0  0.01338  0.46996  0.96677  1.0000
  C   C68       1.0  0.00834  0.40763  0.55675  1.0000
  C   C69       1.0  0.12127  0.47969  0.66414  1.0000
  C   C70       1.0  0.01468  0.47758  0.49111  1.0000
  H   H129      1.0  0.12316  0.46431  0.45163  1.0000
  H   H130      1.0  0.15238  0.46454  0.99929  1.0000
  H   H131      1.0  0.16533  0.47005  0.44090  1.0000
  C   C71       1.0  0.00576  0.42959  0.11453  1.0000
  C   C72       1.0  0.99622  0.38569  0.45032  1.0000
  H   H132      1.0  0.00358  0.41235  0.19191  1.0000
  H   H133      1.0  0.18366  0.47667  0.05185  1.0000
  H   H134      1.0  0.14206  0.47887  0.43720  1.0000
  H   H135      1.0  0.12032  0.47966  0.43738  1.0000
  C   C73       1.0  0.09574  0.46541  0.63881  1.0000
  H   H136      1.0  0.13454  0.47513  0.30834  1.0000
  C   C74       1.0  0.02019  0.43389  0.87416  1.0000
  C   C75       1.0  0.16609  0.48035  0.43508  1.0000
  H   H137      1.0  0.12293  0.47577  0.36568  1.0000
  H   H138      1.0  0.11672  0.46515  0.72067  1.0000
  C   C76       1.0  0.02827  0.45677  0.84387  1.0000
  H   H139      1.0  0.16091  0.48225  0.46246  1.0000
  C   C77       1.0  0.01132  0.47905  0.61725  1.0000
  C   C78       1.0  0.11991  0.47064  0.42963  1.0000
  C   C79       1.0  0.05300  0.48009  0.41352  1.0000
  H   H140      1.0  0.04240  0.40779  0.02021  1.0000
  C   C80       1.0  0.06332  0.47904  0.43417  1.0000
  C   C81       1.0  0.15239  0.48116  0.26508  1.0000
  C   C82       1.0  0.02146  0.40453  0.08358  1.0000
  H   H141      1.0  0.99493  0.44532  0.24016  1.0000
  H   H142      1.0  0.04024  0.47326  0.36070  1.0000
  S   S17       1.0  0.08564  0.48603  0.87520  1.0000
  H   H143      1.0  0.99340  0.47063  0.92146  1.0000
  H   H144      1.0  0.99807  0.45093  0.91194  1.0000
  C   C83       1.0  0.00251  0.46893  0.92487  1.0000
  H   H145      1.0  0.03014  0.48721  0.05115  1.0000
  C   C84       1.0  0.01525  0.49333  0.61036  1.0000
  H   H146      1.0  0.02095  0.40418  0.59369  1.0000
  H   H147      1.0  0.01535  0.47570  0.02316  1.0000
  H   H148      1.0  0.01959  0.47498  0.61566  1.0000
  H   H149      1.0  0.99563  0.38410  0.14275  1.0000
  H   H150      1.0  0.01502  0.40699  0.52978  1.0000
  H   H151      1.0  0.99713  0.39581  0.25536  1.0000
  H   H152      1.0  0.99351  0.39807  0.18957  1.0000
  C   C85       1.0  0.99950  0.40417  0.10875  1.0000
  H   H153      1.0  0.06637  0.48780  0.44270  1.0000
  H   H154      1.0  0.01394  0.49039  0.43666  1.0000
  H   H155      1.0  0.17611  0.48525  0.42803  1.0000
  H   H156      1.0  0.99034  0.38296  0.43118  1.0000
  H   H157      1.0  0.18690  0.48418  0.93833  1.0000
  N   N8        1.0  0.01069  0.48875  0.94685  1.0000
  H   H158      1.0  0.00295  0.39491  0.43337  1.0000
  C   C86       1.0  0.12936  0.49341  0.01136  1.0000
  H   H159      1.0  0.02912  0.48512  0.98452  1.0000
  H   H160      1.0  0.00128  0.44119  0.19543  1.0000
  H   H161      1.0  0.14829  0.48235  0.23948  1.0000
  C   C87       1.0  0.18418  0.49177  0.99967  1.0000
  H   H162      1.0  0.07202  0.48974  0.02840  1.0000
  H   H163      1.0  0.07155  0.47764  0.41367  1.0000
  H   H164      1.0  0.02823  0.48557  0.91648  1.0000
  C   C88       1.0  0.10883  0.48381  0.67325  1.0000
  C   C89       1.0  0.12419  0.47377  0.70272  1.0000
  H   H165      1.0  0.04251  0.49366  0.36045  1.0000
  H   H166      1.0  0.99166  0.49062  0.95737  1.0000
  C   C90       1.0  0.99009  0.47618  0.36882  1.0000
  H   H167      1.0  0.16712  0.48378  0.37334  1.0000
  H   H168      1.0  0.14139  0.49196  0.29242  1.0000
  C   C91       1.0  0.00089  0.45464  0.93565  1.0000
  H   H169      1.0  0.00274  0.48953  0.00672  1.0000
  H   H170      1.0  0.99927  0.40913  0.07834  1.0000
  C   C92       1.0  0.99469  0.38982  0.11450  1.0000
  C   C93       1.0  0.02055  0.48555  0.00587  1.0000
  H   H171      1.0  0.12915  0.48800  0.64672  1.0000
  C   C94       1.0  0.12737  0.49258  0.94538  1.0000
  H   H172      1.0  0.12500  0.48059  0.72074  1.0000
  S   S18       1.0  0.04604  0.49326  0.62628  1.0000
  H   H173      1.0  0.04492  0.49098  0.45092  1.0000
  H   H174      1.0  0.99889  0.49131  0.90715  1.0000
  C   C95       1.0  0.08224  0.49380  0.01512  1.0000
  H   H175      1.0  0.99001  0.42938  0.23713  1.0000
  H   H176      1.0  0.05712  0.48774  0.38524  1.0000
  C   C96       1.0  0.02284  0.49294  0.91394  1.0000
  H   H177      1.0  0.01600  0.49269  0.05771  1.0000
  C   C97       1.0  0.02441  0.49235  0.03532  1.0000
  C   C98       1.0  0.01204  0.49214  0.98436  1.0000
  C   C99       1.0  0.00068  0.49430  0.93325  1.0000
  H   H178      1.0  0.02087  0.49397  0.88448  1.0000
  C   C100      1.0  0.98839  0.46328  0.38582  1.0000
  C   C101      1.0  0.17783  0.60030  0.93849  1.0000
  H   H179      1.0  0.01266  0.51256  0.14861  1.0000
  Fe  Fe9       1.0  0.07999  0.57748  0.60988  1.0000
  S   S19       1.0  0.07888  0.59014  0.55260  1.0000
  S   S20       1.0  0.07357  0.57798  0.67484  1.0000
  Fe  Fe10      1.0  0.08818  0.55863  0.56757  1.0000
  S   S21       1.0  0.08826  0.56984  0.50713  1.0000
  S   S22       1.0  0.09275  0.53973  0.57685  1.0000
  Fe  Fe11      1.0  0.09750  0.58651  0.52496  1.0000
  S   S23       1.0  0.11345  0.60208  0.47810  1.0000
  Fe  Fe12      1.0  0.06976  0.57243  0.53865  1.0000
  S   S24       1.0  0.05136  0.56951  0.51989  1.0000
  S   S25       1.0  0.09894  0.57485  0.58304  1.0000
  S   S26       1.0  0.06935  0.56029  0.59832  1.0000
  S   S27       1.0  0.16352  0.53159  0.39416  1.0000
  H   H180      1.0  0.01251  0.55450  0.93409  1.0000
  S   S28       1.0  0.98893  0.54058  0.29388  1.0000
  H   H181      1.0  0.18489  0.52194  0.17797  1.0000
  S   S29       1.0  0.16637  0.63192  0.48348  1.0000
  H   H182      1.0  0.18367  0.51486  0.95163  1.0000
  C   C102      1.0  0.00785  0.51297  0.17856  1.0000
  H   H183      1.0  0.04158  0.50220  0.50250  1.0000
  H   H184      1.0  0.02110  0.55668  0.16495  1.0000
  H   H185      1.0  0.01503  0.55258  0.88464  1.0000
  H   H186      1.0  0.06086  0.55131  0.70836  1.0000
  H   H187      1.0  0.13942  0.59351  0.88573  1.0000
  H   H188      1.0  0.17382  0.59397  0.87466  1.0000
  S   S30       1.0  0.17948  0.53392  0.08604  1.0000
  Fe  Fe13      1.0  0.18154  0.63462  0.02544  1.0000
  S   S31       1.0  0.17696  0.62169  0.08726  1.0000
  S   S32       1.0  0.16826  0.63535  0.98519  1.0000
  H   H189      1.0  0.08117  0.51368  0.65788  1.0000
  H   H190      1.0  0.08231  0.50493  0.79075  1.0000
  H   H191      1.0  0.07258  0.55322  0.83582  1.0000
  H   H192      1.0  0.05742  0.53660  0.74701  1.0000
  C   C103      1.0  0.03620  0.57301  0.84846  1.0000
  H   H193      1.0  0.99912  0.54351  0.07310  1.0000
  S   S33       1.0  0.17861  0.64068  0.16410  1.0000
  H   H194      1.0  0.01558  0.55484  0.25425  1.0000
  C   C104      1.0  0.99905  0.55084  0.08939  1.0000
  Fe  Fe14      1.0  0.99756  0.50414  0.38433  1.0000
  S   S34       1.0  0.16130  0.55809  0.04463  1.0000
  S   S35       1.0  0.14939  0.52293  0.09681  1.0000
  S   S36       1.0  0.98991  0.53405  0.40710  1.0000
  S   S37       1.0  0.06243  0.50289  0.92969  1.0000
  Fe  Fe15      1.0  0.09938  0.59188  0.84998  1.0000
  S   S38       1.0  0.09354  0.59891  0.90418  1.0000
  S   S39       1.0  0.10098  0.60259  0.78605  1.0000
  Fe  Fe16      1.0  0.10186  0.56753  0.89973  1.0000
  S   S40       1.0  0.09589  0.57224  0.95736  1.0000
  S   S41       1.0  0.10783  0.54987  0.89495  1.0000
  Fe  Fe17      1.0  0.08114  0.57914  0.93227  1.0000
  S   S42       1.0  0.06084  0.57599  0.96756  1.0000
  Fe  Fe18      1.0  0.10894  0.59153  0.92529  1.0000
  S   S43       1.0  0.12167  0.59741  0.96384  1.0000
  S   S44       1.0  0.08615  0.57278  0.87719  1.0000
  S   S45       1.0  0.11569  0.58612  0.86862  1.0000
  C   C105      1.0  0.07509  0.51595  0.91966  1.0000
  C   C106      1.0  0.07281  0.52751  0.92360  1.0000
  C   C107      1.0  0.08282  0.53804  0.91548  1.0000
  C   C108      1.0  0.09514  0.53704  0.90330  1.0000
  C   C109      1.0  0.09742  0.52549  0.89957  1.0000
  C   C110      1.0  0.08741  0.51495  0.90804  1.0000
  H   H195      1.0  0.06329  0.52826  0.93343  1.0000
  H   H196      1.0  0.08099  0.54681  0.91971  1.0000
  H   H197      1.0  0.10693  0.52460  0.89081  1.0000
  H   H198      1.0  0.08931  0.50602  0.90626  1.0000
  H   H199      1.0  0.00877  0.55879  0.12610  1.0000
  H   H200      1.0  0.03102  0.58041  0.84231  1.0000
  S   S46       1.0  0.13780  0.49851  0.04411  1.0000
  H   H201      1.0  0.18074  0.55434  0.94677  1.0000
  H   H202      1.0  0.03816  0.53265  0.64125  1.0000
  H   H203      1.0  0.99025  0.52152  0.54201  1.0000
  C   C111      1.0  0.12878  0.49958  0.36060  1.0000
  H   H204      1.0  0.99019  0.51057  0.88400  1.0000
  H   H205      1.0  0.14286  0.50453  0.95617  1.0000
  C   C112      1.0  0.04044  0.54203  0.96644  1.0000
  C   C113      1.0  0.05058  0.55228  0.96096  1.0000
  C   C114      1.0  0.04853  0.56261  0.97496  1.0000
  C   C115      1.0  0.03630  0.56242  0.99523  1.0000
  H   H206      1.0  0.04208  0.53418  0.95489  1.0000
  H   H207      1.0  0.05995  0.55225  0.94561  1.0000
  H   H208      1.0  0.03461  0.57038  0.00605  1.0000
  C   C116      1.0  0.15557  0.62442  0.97927  1.0000
  C   C117      1.0  0.15015  0.61236  0.00587  1.0000
  C   C118      1.0  0.13966  0.60442  0.00110  1.0000
  C   C119      1.0  0.13464  0.60817  0.96900  1.0000
  C   C120      1.0  0.14018  0.62015  0.94207  1.0000
  C   C121      1.0  0.15048  0.62821  0.94738  1.0000
  H   H209      1.0  0.15399  0.60914  0.03019  1.0000
  H   H210      1.0  0.13554  0.59518  0.02214  1.0000
  H   H211      1.0  0.13647  0.62325  0.91727  1.0000
  H   H212      1.0  0.15454  0.63749  0.92654  1.0000
  H   H213      1.0  0.18453  0.57728  0.93714  1.0000
  H   H214      1.0  0.02484  0.53014  0.52152  1.0000
  C   C122      1.0  0.01788  0.54688  0.18502  1.0000
  C   C123      1.0  0.17217  0.56943  0.05449  1.0000
  C   C124      1.0  0.16868  0.58005  0.06314  1.0000
  C   C125      1.0  0.17723  0.58926  0.07091  1.0000
  H   H215      1.0  0.08438  0.50265  0.06101  1.0000
  C   C126      1.0  0.06118  0.54125  0.71446  1.0000
  H   H216      1.0  0.15936  0.58117  0.06383  1.0000
  H   H217      1.0  0.17444  0.59736  0.07772  1.0000
  C   C127      1.0  0.18020  0.57330  0.91631  1.0000
  C   C128      1.0  0.18092  0.64292  0.23743  1.0000
  H   H218      1.0  0.01609  0.49905  0.20952  1.0000
  C   C129      1.0  0.18015  0.52162  0.20812  1.0000
  H   H219      1.0  0.01949  0.51668  0.61287  1.0000
  H   H220      1.0  0.10423  0.49743  0.15048  1.0000
  H   H221      1.0  0.17098  0.64226  0.24491  1.0000
  H   H222      1.0  0.08030  0.51191  0.02062  1.0000
  H   H223      1.0  0.05273  0.53692  0.08700  1.0000
  C   C130      1.0  0.02536  0.55618  0.23650  1.0000
  H   H224      1.0  0.14398  0.61026  0.86340  1.0000
  C   C131      1.0  0.17861  0.58586  0.43700  1.0000
  H   H225      1.0  0.05338  0.51627  0.32695  1.0000
  H   H226      1.0  0.12198  0.51636  0.34490  1.0000
  H   H227      1.0  0.04456  0.55178  0.84713  1.0000
  H   H228      1.0  0.16903  0.58665  0.44271  1.0000
  H   H229      1.0  0.12490  0.52543  0.56292  1.0000
  C   C132      1.0  0.08289  0.58448  0.70248  1.0000
  C   C133      1.0  0.08230  0.57720  0.74059  1.0000
  C   C134      1.0  0.08827  0.58248  0.76565  1.0000
  C   C135      1.0  0.09440  0.59530  0.75376  1.0000
  C   C136      1.0  0.09496  0.60262  0.71571  1.0000
  C   C137      1.0  0.08933  0.59723  0.69001  1.0000
  H   H230      1.0  0.07693  0.56751  0.75124  1.0000
  H   H231      1.0  0.08790  0.57670  0.79451  1.0000
  H   H232      1.0  0.09955  0.61255  0.70650  1.0000
  H   H233      1.0  0.08947  0.60303  0.66130  1.0000
  C   C138      1.0  0.12905  0.60872  0.47794  1.0000
  C   C139      1.0  0.13674  0.61857  0.44470  1.0000
  C   C140      1.0  0.14867  0.62506  0.44471  1.0000
  C   C141      1.0  0.15308  0.62183  0.47814  1.0000
  C   C142      1.0  0.14559  0.61165  0.51083  1.0000
  C   C143      1.0  0.13371  0.60506  0.51062  1.0000
  H   H234      1.0  0.13328  0.62148  0.41921  1.0000
  H   H235      1.0  0.15418  0.63298  0.41960  1.0000
  H   H236      1.0  0.14890  0.60902  0.53680  1.0000
  H   H237      1.0  0.12799  0.59738  0.53615  1.0000
  C   C144      1.0  0.04481  0.56033  0.49097  1.0000
  C   C145      1.0  0.03246  0.56002  0.48903  1.0000
  C   C146      1.0  0.02671  0.55266  0.46760  1.0000
  C   C147      1.0  0.03322  0.54540  0.44770  1.0000
  C   C148      1.0  0.05141  0.55329  0.47035  1.0000
  H   H238      1.0  0.02725  0.56548  0.50450  1.0000
  H   H239      1.0  0.01719  0.55248  0.46696  1.0000
  H   H240      1.0  0.06092  0.55345  0.47112  1.0000
  C   C149      1.0  0.18110  0.52480  0.27293  1.0000
  H   H241      1.0  0.16498  0.52145  0.93495  1.0000
  C   C150      1.0  0.12429  0.50479  0.46509  1.0000
  H   H242      1.0  0.17562  0.60879  0.92168  1.0000
  H   H243      1.0  0.06480  0.58779  0.78115  1.0000
  H   H244      1.0  0.05663  0.55937  0.80119  1.0000
  H   H245      1.0  0.10779  0.50772  0.44731  1.0000
  H   H246      1.0  0.13011  0.51396  0.44699  1.0000
  H   H247      1.0  0.16344  0.52042  0.31678  1.0000
  C   C151      1.0  0.06743  0.60702  0.86753  1.0000
  C   C152      1.0  0.07932  0.52750  0.58728  1.0000
  C   C153      1.0  0.07990  0.51753  0.57007  1.0000
  C   C154      1.0  0.06957  0.50714  0.58116  1.0000
  C   C155      1.0  0.05879  0.50648  0.61057  1.0000
  C   C156      1.0  0.05814  0.51651  0.62736  1.0000
  C   C157      1.0  0.06830  0.52710  0.61520  1.0000
  H   H248      1.0  0.08831  0.51790  0.54787  1.0000
  H   H249      1.0  0.06998  0.49971  0.56674  1.0000
  H   H250      1.0  0.04985  0.51603  0.65019  1.0000
  H   H251      1.0  0.06776  0.53465  0.62883  1.0000
  N   N9        1.0  0.16072  0.58248  0.93113  1.0000
  C   C158      1.0  0.14663  0.57796  0.94699  1.0000
  C   C159      1.0  0.16361  0.59063  0.88885  1.0000
  C   C160      1.0  0.16580  0.57098  0.93044  1.0000
  C   C161      1.0  0.16575  0.58940  0.95815  1.0000
  H   H252      1.0  0.10574  0.50492  0.00732  1.0000
  C   C162      1.0  0.14138  0.56848  0.98924  1.0000
  H   H253      1.0  0.00251  0.52356  0.49751  1.0000
  C   C163      1.0  0.15839  0.60264  0.88380  1.0000
  C   C164      1.0  0.05445  0.58441  0.79148  1.0000
  C   C165      1.0  0.18712  0.64223  0.19953  1.0000
  C   C166      1.0  0.12720  0.56620  0.00456  1.0000
  H   H254      1.0  0.18708  0.59634  0.98527  1.0000
  H   H255      1.0  0.14265  0.57349  0.92624  1.0000
  H   H256      1.0  0.14245  0.58610  0.94854  1.0000
  H   H257      1.0  0.18145  0.58289  0.30218  1.0000
  H   H258      1.0  0.16026  0.58490  0.86986  1.0000
  H   H259      1.0  0.16164  0.56566  0.91178  1.0000
  H   H260      1.0  0.16309  0.56437  0.96082  1.0000
  H   H261      1.0  0.15867  0.59367  0.97333  1.0000
  H   H262      1.0  0.16742  0.58258  0.98297  1.0000
  C   C167      1.0  0.18163  0.55682  0.17034  1.0000
  H   H263      1.0  0.07693  0.50765  0.71129  1.0000
  H   H264      1.0  0.14327  0.55915  0.98881  1.0000
  H   H265      1.0  0.14557  0.57208  0.01092  1.0000
  C   C168      1.0  0.17782  0.50919  0.93757  1.0000
  C   C169      1.0  0.10361  0.50771  0.09211  1.0000
  H   H266      1.0  0.15566  0.60510  0.91221  1.0000
  C   C170      1.0  0.18753  0.64470  0.26559  1.0000
  H   H267      1.0  0.00275  0.50662  0.55713  1.0000
  C   C171      1.0  0.11393  0.50055  0.61057  1.0000
  H   H268      1.0  0.16409  0.50189  0.99496  1.0000
  C   C172      1.0  0.99211  0.51325  0.91040  1.0000
  H   H269      1.0  0.12255  0.49812  0.59566  1.0000
  H   H270      1.0  0.16175  0.49543  0.39554  1.0000
  H   H271      1.0  0.12475  0.57476  0.01123  1.0000
  H   H272      1.0  0.12254  0.56369  0.98222  1.0000
  H   H273      1.0  0.12359  0.55837  0.03261  1.0000
  H   H274      1.0  0.16588  0.61086  0.86313  1.0000
  H   H275      1.0  0.03658  0.50380  0.93622  1.0000
  C   C173      1.0  0.18790  0.59540  0.44038  1.0000
  H   H276      1.0  0.09102  0.49489  0.70958  1.0000
  C   C174      1.0  0.04253  0.50988  0.87229  1.0000
  C   C175      1.0  0.03213  0.50536  0.91160  1.0000
  H   H277      1.0  0.00817  0.54595  0.20306  1.0000
  H   H278      1.0  0.05401  0.59358  0.71326  1.0000
  C   C176      1.0  0.11066  0.50455  0.12327  1.0000
  H   H279      1.0  0.18537  0.60333  0.44955  1.0000
  H   H280      1.0  0.11284  0.59240  0.66247  1.0000
  H   H281      1.0  0.12852  0.59197  0.63843  1.0000
  H   H282      1.0  0.11229  0.64038  0.18545  1.0000
  H   H283      1.0  0.03867  0.51269  0.84670  1.0000
  H   H284      1.0  0.17285  0.59730  0.20982  1.0000
  C   C177      1.0  0.16650  0.60631  0.36319  1.0000
  H   H285      1.0  0.09285  0.63840  0.66626  1.0000
  C   C178      1.0  0.04252  0.51796  0.53066  1.0000
  H   H286      1.0  0.18185  0.49777  0.01972  1.0000
  H   H287      1.0  0.06738  0.57357  0.83495  1.0000
  H   H288      1.0  0.04698  0.54813  0.05553  1.0000
  H   H289      1.0  0.98975  0.54859  0.11139  1.0000
  H   H290      1.0  0.16677  0.61623  0.34843  1.0000
  H   H291      1.0  0.15678  0.60048  0.37052  1.0000
  H   H292      1.0  0.16902  0.60596  0.39156  1.0000
  C   C179      1.0  0.18427  0.56811  0.05320  1.0000
  C   C180      1.0  0.12289  0.59597  0.65977  1.0000
  C   C181      1.0  0.18161  0.57526  0.42672  1.0000
  Fe  Fe19      1.0  0.18246  0.52865  0.36927  1.0000
  C   C182      1.0  0.04145  0.50865  0.38823  1.0000
  H   H293      1.0  0.17665  0.55775  0.24736  1.0000
  H   H294      1.0  0.99867  0.53606  0.16201  1.0000
  H   H295      1.0  0.03617  0.54775  0.19772  1.0000
  C   C183      1.0  0.17026  0.59676  0.18204  1.0000
  C   C184      1.0  0.06249  0.54830  0.84721  1.0000
  H   H296      1.0  0.09085  0.51333  0.81809  1.0000
  H   H297      1.0  0.05580  0.56644  0.88057  1.0000
  H   H298      1.0  0.18724  0.60310  0.25619  1.0000
  H   H299      1.0  0.00123  0.50012  0.23881  1.0000
  H   H300      1.0  0.00371  0.53475  0.52650  1.0000
  H   H301      1.0  0.10150  0.62447  0.50208  1.0000
  H   H302      1.0  0.02327  0.53682  0.23685  1.0000
  H   H303      1.0  0.17996  0.55635  0.89582  1.0000
  C   C185      1.0  0.03071  0.54039  0.13242  1.0000
  C   C186      1.0  0.00943  0.55140  0.11029  1.0000
  H   H304      1.0  0.08818  0.49499  0.62602  1.0000
  C   C187      1.0  0.08238  0.51223  0.80721  1.0000
  H   H305      1.0  0.07712  0.61313  0.85652  1.0000
  H   H306      1.0  0.02200  0.51656  0.50499  1.0000
  C   C188      1.0  0.17530  0.57544  0.18452  1.0000
  H   H307      1.0  0.02930  0.53906  0.56587  1.0000
  H   H308      1.0  0.08584  0.55741  0.70207  1.0000
  H   H309      1.0  0.05090  0.60853  0.71697  1.0000
  C   C189      1.0  0.03037  0.56563  0.89317  1.0000
  H   H310      1.0  0.03772  0.53869  0.14894  1.0000
  H   H311      1.0  0.11815  0.63347  0.22577  1.0000
  H   H312      1.0  0.04444  0.53655  0.56790  1.0000
  H   H313      1.0  0.11168  0.62365  0.19821  1.0000
  C   C190      1.0  0.05934  0.51547  0.47498  1.0000
  H   H314      1.0  0.11853  0.54781  0.60022  1.0000
  H   H315      1.0  0.06352  0.52583  0.46523  1.0000
  N   N10       1.0  0.14134  0.63630  0.09393  1.0000
  C   C191      1.0  0.15304  0.64311  0.10122  1.0000
  C   C192      1.0  0.14227  0.62307  0.09362  1.0000
  C   C193      1.0  0.14105  0.64311  0.05267  1.0000
  C   C194      1.0  0.12948  0.63611  0.12394  1.0000
  C   C195      1.0  0.13028  0.63593  0.16685  1.0000
  C   C196      1.0  0.15465  0.65753  0.09512  1.0000
  C   C197      1.0  0.13060  0.63679  0.03663  1.0000
  C   C198      1.0  0.14244  0.61414  0.13318  1.0000
  C   C199      1.0  0.14399  0.60132  0.12771  1.0000
  C   C200      1.0  0.16406  0.66290  0.11532  1.0000
  H   H316      1.0  0.16148  0.64198  0.08066  1.0000
  H   H317      1.0  0.15375  0.63881  0.13146  1.0000
  H   H318      1.0  0.13419  0.61803  0.08578  1.0000
  H   H319      1.0  0.15079  0.62350  0.07013  1.0000
  H   H320      1.0  0.15015  0.64443  0.03044  1.0000
  H   H321      1.0  0.13989  0.65280  0.05168  1.0000
  H   H322      1.0  0.12594  0.64454  0.11356  1.0000
  H   H323      1.0  0.12187  0.62789  0.12619  1.0000
  H   H324      1.0  0.13563  0.64525  0.16707  1.0000
  H   H325      1.0  0.13501  0.62882  0.17903  1.0000
  H   H326      1.0  0.15819  0.66254  0.06271  1.0000
  H   H327      1.0  0.14566  0.65978  0.10687  1.0000
  H   H328      1.0  0.12132  0.63417  0.05891  1.0000
  H   H329      1.0  0.13257  0.62818  0.02897  1.0000
  H   H330      1.0  0.15019  0.61813  0.14442  1.0000
  H   H331      1.0  0.13339  0.61226  0.15603  1.0000
  H   H332      1.0  0.15307  0.60238  0.10595  1.0000
  H   H333      1.0  0.14369  0.59495  0.15670  1.0000
  H   H334      1.0  0.13631  0.59685  0.11697  1.0000
  H   H335      1.0  0.16080  0.65849  0.14810  1.0000
  H   H336      1.0  0.17331  0.66115  0.10336  1.0000
  H   H337      1.0  0.16519  0.67325  0.10956  1.0000
  N   N11       1.0  0.10638  0.52268  0.02194  1.0000
  C   C201      1.0  0.09734  0.52981  0.03840  1.0000
  C   C202      1.0  0.11236  0.51754  0.05363  1.0000
  C   C203      1.0  0.11665  0.53210  0.98781  1.0000
  C   C204      1.0  0.10034  0.51226  0.00676  1.0000
  H   H338      1.0  0.01118  0.51270  0.89150  1.0000
  C   C205      1.0  0.09195  0.53746  0.00744  1.0000
  C   C206      1.0  0.12751  0.52697  0.96787  1.0000
  C   C207      1.0  0.08635  0.50556  0.02819  1.0000
  H   H339      1.0  0.18504  0.59775  0.91748  1.0000
  H   H340      1.0  0.14868  0.50233  0.35491  1.0000
  C   C208      1.0  0.07998  0.54065  0.02732  1.0000
  C   C209      1.0  0.13616  0.53681  0.93012  1.0000
  H   H341      1.0  0.10196  0.53664  0.05217  1.0000
  H   H342      1.0  0.08937  0.52340  0.06303  1.0000
  H   H343      1.0  0.11939  0.51266  0.04186  1.0000
  H   H344      1.0  0.11759  0.52546  0.06221  1.0000
  H   H345      1.0  0.12084  0.54021  0.99767  1.0000
  H   H346      1.0  0.11275  0.53613  0.96346  1.0000
  H   H347      1.0  0.10080  0.51591  0.97474  1.0000
  C   C210      1.0  0.02493  0.49983  0.56903  1.0000
  S   S47       1.0  0.14568  0.49964  0.48500  1.0000
  H   H348      1.0  0.00045  0.56012  0.06765  1.0000
  H   H349      1.0  0.09893  0.54647  0.99002  1.0000
  H   H350      1.0  0.08984  0.53218  0.98617  1.0000
  H   H351      1.0  0.12383  0.51843  0.95927  1.0000
  H   H352      1.0  0.13335  0.52462  0.98818  1.0000
  H   H353      1.0  0.17679  0.60680  0.99187  1.0000
  C   C211      1.0  0.11159  0.50127  0.46568  1.0000
  C   C212      1.0  0.13404  0.49758  0.96972  1.0000
  C   C213      1.0  0.10970  0.50856  0.57714  1.0000
  C   C214      1.0  0.18398  0.56091  0.91617  1.0000
  H   H354      1.0  0.17857  0.60127  0.15586  1.0000
  Fe  Fe20      1.0  0.18262  0.52237  0.04260  1.0000
  H   H355      1.0  0.18316  0.56054  0.13762  1.0000
  H   H356      1.0  0.07258  0.53188  0.04405  1.0000
  H   H357      1.0  0.08181  0.54639  0.04787  1.0000
  H   H358      1.0  0.07652  0.54618  0.00411  1.0000
  H   H359      1.0  0.13097  0.53912  0.90767  1.0000
  H   H360      1.0  0.14014  0.54557  0.93718  1.0000
  H   H361      1.0  0.14397  0.53297  0.91696  1.0000
  N   N12       1.0  0.17109  0.56122  0.19276  1.0000
  C   C215      1.0  0.15999  0.55775  0.17711  1.0000
  H   H362      1.0  0.16618  0.51293  0.89755  1.0000
  H   H363      1.0  0.06093  0.54000  0.83538  1.0000
  C   C216      1.0  0.16842  0.55475  0.23659  1.0000
  C   C217      1.0  0.15721  0.55716  0.26492  1.0000
  C   C218      1.0  0.15497  0.54352  0.18169  1.0000
  H   H364      1.0  0.03379  0.55064  0.11624  1.0000
  C   C219      1.0  0.16513  0.58302  0.18356  1.0000
  H   H365      1.0  0.04951  0.51817  0.87279  1.0000
  C   C220      1.0  0.15523  0.54961  0.30803  1.0000
  C   C221      1.0  0.14300  0.54119  0.16870  1.0000
  H   H366      1.0  0.01853  0.55431  0.08701  1.0000
  H   H367      1.0  0.16239  0.56276  0.14471  1.0000
  H   H368      1.0  0.15194  0.56098  0.19166  1.0000
  H   H369      1.0  0.10556  0.50265  0.56009  1.0000
  Fe  Fe21      1.0  0.99594  0.52191  0.03243  1.0000
  C   C222      1.0  0.04890  0.59532  0.77403  1.0000
  C   C223      1.0  0.05251  0.58897  0.85726  1.0000
  H   H370      1.0  0.16710  0.54439  0.24178  1.0000
  H   H371      1.0  0.18269  0.64547  0.29433  1.0000
  H   H372      1.0  0.14842  0.55433  0.25689  1.0000
  H   H373      1.0  0.15902  0.56726  0.26431  1.0000
  H   H374      1.0  0.16186  0.54000  0.16256  1.0000
  H   H375      1.0  0.15277  0.53780  0.21309  1.0000
  C   C224      1.0  0.07456  0.54017  0.69935  1.0000
  H   H376      1.0  0.13171  0.51709  0.37811  1.0000
  H   H377      1.0  0.16194  0.58306  0.15640  1.0000
  H   H378      1.0  0.15686  0.57896  0.20983  1.0000
  H   H379      1.0  0.10266  0.51325  0.59029  1.0000
  C   C225      1.0  0.00053  0.52462  0.52820  1.0000
  H   H380      1.0  0.18718  0.56017  0.04523  1.0000
  H   H381      1.0  0.16357  0.55250  0.31834  1.0000
  H   H382      1.0  0.14706  0.55137  0.32789  1.0000
  H   H383      1.0  0.15342  0.53935  0.31083  1.0000
  H   H384      1.0  0.14483  0.54630  0.13674  1.0000
  H   H385      1.0  0.13960  0.53093  0.17259  1.0000
  H   H386      1.0  0.13557  0.54432  0.18716  1.0000
  H   H387      1.0  0.11728  0.52455  0.52430  1.0000
  H   H388      1.0  0.03804  0.51948  0.33478  1.0000
  H   H389      1.0  0.01130  0.56685  0.89420  1.0000
  H   H390      1.0  0.12768  0.49694  0.33350  1.0000
  C   C226      1.0  0.04542  0.53800  0.07132  1.0000
  H   H391      1.0  0.16304  0.60211  0.17927  1.0000
  C   C227      1.0  0.06600  0.59763  0.84296  1.0000
  H   H392      1.0  0.11852  0.50055  0.11162  1.0000
  Fe  Fe22      1.0  0.15446  0.51190  0.05303  1.0000
  N   N13       1.0  0.01786  0.53734  0.16116  1.0000
  C   C228      1.0  0.02618  0.55213  0.00093  1.0000
  Fe  Fe23      1.0  0.16238  0.51662  0.44946  1.0000
  C   C229      1.0  0.09122  0.50022  0.67915  1.0000
  H   H393      1.0  0.04101  0.51692  0.47117  1.0000
  Fe  Fe24      1.0  0.16508  0.53888  0.05566  1.0000
  C   C230      1.0  0.02818  0.54190  0.98640  1.0000
  S   S48       1.0  0.16915  0.52859  0.00911  1.0000
  H   H394      1.0  0.17428  0.59112  0.35121  1.0000
  H   H395      1.0  0.04881  0.51523  0.54911  1.0000
  H   H396      1.0  0.05067  0.58454  0.88984  1.0000
  H   H397      1.0  0.12444  0.59264  0.68949  1.0000
  Fe  Fe25      1.0  0.16407  0.51714  0.12471  1.0000
  C   C231      1.0  0.04568  0.54596  0.44879  1.0000
  C   C232      1.0  0.02125  0.51977  0.53240  1.0000
  H   H398      1.0  0.10725  0.65060  0.64898  1.0000
  S   S49       1.0  0.15802  0.51153  0.19271  1.0000
  S   S50       1.0  0.00984  0.52332  0.35092  1.0000
  C   C233      1.0  0.12503  0.63280  0.54715  1.0000
  C   C234      1.0  0.03295  0.53750  0.62245  1.0000
  C   C235      1.0  0.11728  0.63319  0.19569  1.0000
  S   S51       1.0  0.17128  0.53040  0.47830  1.0000
  S   S52       1.0  0.16818  0.50483  0.08409  1.0000
  H   H399      1.0  0.17920  0.54637  0.17682  1.0000
  S   S53       1.0  0.02607  0.53466  0.42412  1.0000
  H   H400      1.0  0.11360  0.61181  0.61144  1.0000
  H   H401      1.0  0.10320  0.62410  0.63626  1.0000
  H   H402      1.0  0.10448  0.62391  0.56850  1.0000
  S   S54       1.0  0.99602  0.50737  0.44442  1.0000
  C   C236      1.0  0.12988  0.64561  0.99833  1.0000
  H   H403      1.0  0.10496  0.63878  0.59944  1.0000
  H   H404      1.0  0.03303  0.49561  0.57015  1.0000
  Fe  Fe26      1.0  0.17399  0.54500  0.42079  1.0000
  S   S55       1.0  0.16988  0.56391  0.42009  1.0000
  C   C237      1.0  0.16715  0.51714  0.22231  1.0000
  H   H405      1.0  0.05091  0.54054  0.43328  1.0000
  C   C238      1.0  0.01467  0.52431  0.19026  1.0000
  H   H406      1.0  0.07403  0.50890  0.83361  1.0000
  H   H407      1.0  0.12274  0.64064  0.98662  1.0000
  H   H408      1.0  0.11359  0.61518  0.54382  1.0000
  S   S56       1.0  0.99289  0.51173  0.09685  1.0000
  H   H409      1.0  0.10816  0.64013  0.50420  1.0000
  H   H410      1.0  0.12590  0.64698  0.60072  1.0000
  H   H411      1.0  0.10575  0.63605  0.68615  1.0000
  H   H412      1.0  0.99820  0.51368  0.17856  1.0000
  C   C239      1.0  0.04525  0.51257  0.49416  1.0000
  H   H413      1.0  0.13904  0.64842  0.97519  1.0000
  C   C240      1.0  0.10788  0.63429  0.62563  1.0000
  C   C241      1.0  0.10320  0.64022  0.65878  1.0000
  H   H414      1.0  0.11788  0.63163  0.47874  1.0000
  H   H415      1.0  0.13695  0.61326  0.64264  1.0000
  H   H416      1.0  0.99405  0.52370  0.90379  1.0000
  C   C242      1.0  0.16117  0.51672  0.26164  1.0000
  H   H417      1.0  0.15111  0.51352  0.27245  1.0000
  H   H418      1.0  0.12722  0.65420  0.00413  1.0000
  C   C243      1.0  0.12383  0.61542  0.60567  1.0000
  C   C244      1.0  0.12680  0.61042  0.64565  1.0000
  H   H419      1.0  0.12817  0.61058  0.58435  1.0000
  H   H420      1.0  0.12169  0.61398  0.66929  1.0000
  C   C245      1.0  0.11271  0.62488  0.54370  1.0000
  C   C246      1.0  0.16809  0.52058  0.28679  1.0000
  H   H421      1.0  0.09941  0.50849  0.66819  1.0000
  C   C247      1.0  0.10993  0.63070  0.50478  1.0000
  H   H422      1.0  0.02868  0.56580  0.21536  1.0000
  H   H423      1.0  0.03147  0.52290  0.11543  1.0000
  N   N14       1.0  0.12798  0.62953  0.58684  1.0000
  C   C248      1.0  0.12227  0.63663  0.61428  1.0000
  H   H424      1.0  0.07298  0.59204  0.84607  1.0000
  H   H425      1.0  0.03491  0.55795  0.90213  1.0000
  H   H426      1.0  0.03874  0.59181  0.77815  1.0000
  N   N15       1.0  0.02916  0.51412  0.55655  1.0000
  C   C249      1.0  0.00791  0.53841  0.13976  1.0000
  H   H427      1.0  0.18030  0.57785  0.20628  1.0000
  H   H428      1.0  0.13249  0.63146  0.52331  1.0000
  H   H429      1.0  0.12521  0.63474  0.64221  1.0000
  C   C250      1.0  0.02905  0.51912  0.59242  1.0000
  C   C251      1.0  0.03431  0.53360  0.58383  1.0000
  Fe  Fe27      1.0  0.00734  0.52727  0.41102  1.0000
  H   H430      1.0  0.08171  0.53154  0.79892  1.0000
  C   C252      1.0  0.14203  0.63351  0.57923  1.0000
  H   H431      1.0  0.12509  0.64298  0.53799  1.0000
  H   H432      1.0  0.14659  0.62682  0.56620  1.0000
  H   H433      1.0  0.14449  0.63312  0.60777  1.0000
  H   H434      1.0  0.10593  0.56389  0.81146  1.0000
  H   H435      1.0  0.04575  0.52837  0.51822  1.0000
  N   N16       1.0  0.05006  0.57892  0.83620  1.0000
  H   H436      1.0  0.05992  0.54493  0.88027  1.0000
  H   H437      1.0  0.02554  0.53372  0.08314  1.0000
  C   C253      1.0  0.08208  0.52482  0.78063  1.0000
  H   H438      1.0  0.10199  0.52845  0.75214  1.0000
  H   H439      1.0  0.11443  0.51313  0.13165  1.0000
  H   H440      1.0  0.03689  0.54786  0.61511  1.0000
  H   H441      1.0  0.03460  0.51440  0.61024  1.0000
  H   H442      1.0  0.10629  0.56192  0.70910  1.0000
  H   H443      1.0  0.09562  0.53691  0.66373  1.0000
  H   H444      1.0  0.10236  0.55326  0.65413  1.0000
  H   H445      1.0  0.07319  0.52329  0.77223  1.0000
  H   H446      1.0  0.11028  0.57268  0.75965  1.0000
  H   H447      1.0  0.05217  0.57702  0.77633  1.0000
  C   C254      1.0  0.10161  0.54378  0.67408  1.0000
  H   H448      1.0  0.09565  0.51115  0.10599  1.0000
  C   C255      1.0  0.01645  0.55955  0.90183  1.0000
  H   H449      1.0  0.06569  0.60195  0.89948  1.0000
  C   C256      1.0  0.09346  0.52964  0.74269  1.0000
  H   H450      1.0  0.11356  0.54984  0.72665  1.0000
  H   H451      1.0  0.09213  0.52275  0.72507  1.0000
  H   H452      1.0  0.11509  0.53256  0.68678  1.0000
  C   C257      1.0  0.14876  0.64694  0.55069  1.0000
  H   H453      1.0  0.14385  0.65419  0.55741  1.0000
  H   H454      1.0  0.14932  0.64700  0.51929  1.0000
  H   H455      1.0  0.17241  0.60186  0.30817  1.0000
  H   H456      1.0  0.11711  0.50688  0.62809  1.0000
  C   C258      1.0  0.00708  0.51669  0.55329  1.0000
  C   C259      1.0  0.11857  0.53933  0.62326  1.0000
  C   C260      1.0  0.05448  0.55711  0.83409  1.0000
  H   H457      1.0  0.02324  0.52212  0.19744  1.0000
  H   H458      1.0  0.03132  0.57201  0.91247  1.0000
  H   H459      1.0  0.04588  0.59511  0.85517  1.0000
  C   C261      1.0  0.10936  0.56335  0.78044  1.0000
  H   H460      1.0  0.09992  0.54393  0.79421  1.0000
  H   H461      1.0  0.11871  0.56129  0.77672  1.0000
  C   C262      1.0  0.16212  0.65109  0.55326  1.0000
  H   H462      1.0  0.16206  0.65233  0.58317  1.0000
  H   H463      1.0  0.16745  0.64401  0.54755  1.0000
  H   H464      1.0  0.09085  0.55496  0.78001  1.0000
  C   C263      1.0  0.10437  0.55223  0.72949  1.0000
  C   C264      1.0  0.11478  0.54116  0.66490  1.0000
  C   C265      1.0  0.10016  0.55293  0.77300  1.0000
  H   H465      1.0  0.12191  0.54932  0.66552  1.0000
  C   C266      1.0  0.00343  0.50890  0.91950  1.0000
  H   H466      1.0  0.02115  0.49648  0.54612  1.0000
  N   N17       1.0  0.09559  0.54300  0.71710  1.0000
  C   C267      1.0  0.05518  0.60095  0.72926  1.0000
  H   H467      1.0  0.04982  0.52797  0.35201  1.0000
  C   C268      1.0  0.07942  0.50513  0.68283  1.0000
  H   H468      1.0  0.07848  0.54652  0.74927  1.0000
  H   H469      1.0  0.11201  0.53100  0.62112  1.0000
  H   H470      1.0  0.16700  0.66023  0.53042  1.0000
  H   H471      1.0  0.12814  0.53780  0.61690  1.0000
  H   H472      1.0  0.07773  0.54448  0.66655  1.0000
  C   C269      1.0  0.08364  0.54720  0.71839  1.0000
  H   H473      1.0  0.04741  0.50234  0.86825  1.0000
  H   H474      1.0  0.00825  0.52405  0.21926  1.0000
  H   H475      1.0  0.12796  0.51484  0.53280  1.0000
  H   H476      1.0  0.06120  0.51179  0.44855  1.0000
  H   H477      1.0  0.10005  0.49878  0.08528  1.0000
  Fe  Fe28      1.0  0.18717  0.63807  0.10356  1.0000
  H   H478      1.0  0.05025  0.60307  0.78830  1.0000
  H   H479      1.0  0.07446  0.53002  0.70517  1.0000
  S   S57       1.0  0.01563  0.52934  0.98918  1.0000
  C   C270      1.0  0.13042  0.51385  0.35192  1.0000
  H   H480      1.0  0.03128  0.55538  0.25737  1.0000
  H   H481      1.0  0.00711  0.53137  0.12265  1.0000
  H   H482      1.0  0.01542  0.50249  0.97873  1.0000
  H   H483      1.0  0.01679  0.55233  0.01520  1.0000
  H   H484      1.0  0.02519  0.49638  0.45961  1.0000
  C   C271      1.0  0.12066  0.51895  0.54762  1.0000
  C   C272      1.0  0.17542  0.60120  0.33572  1.0000
  C   C273      1.0  0.04595  0.51865  0.34788  1.0000
  H   H485      1.0  0.03008  0.50213  0.01930  1.0000
  C   C274      1.0  0.14729  0.60147  0.86614  1.0000
  H   H486      1.0  0.03390  0.56662  0.83005  1.0000
  H   H487      1.0  0.04962  0.50832  0.40022  1.0000
  H   H488      1.0  0.00592  0.51321  0.94242  1.0000
  Fe  Fe29      1.0  0.18616  0.63823  0.44048  1.0000
  H   H489      1.0  0.06398  0.51090  0.49646  1.0000
  H   H490      1.0  0.06534  0.60509  0.72362  1.0000
  H   H491      1.0  0.00520  0.51864  0.58271  1.0000
  C   C275      1.0  0.02621  0.54614  0.21409  1.0000
  H   H492      1.0  0.06839  0.60319  0.81128  1.0000
  H   H493      1.0  0.02762  0.51316  0.91431  1.0000
  H   H494      1.0  0.18416  0.50584  0.91610  1.0000
  C   C276      1.0  0.03237  0.53296  0.10083  1.0000
  H   H495      1.0  0.02294  0.53526  0.63942  1.0000
  H   H496      1.0  0.06083  0.61314  0.86475  1.0000
  H   H497      1.0  0.15003  0.60002  0.83605  1.0000
  H   H498      1.0  0.18418  0.57973  0.88569  1.0000
  H   H499      1.0  0.13864  0.51890  0.32601  1.0000
  H   H500      1.0  0.07131  0.49799  0.68208  1.0000
  H   H501      1.0  0.05515  0.53656  0.69878  1.0000
  H   H502      1.0  0.04635  0.53266  0.04865  1.0000
  H   H503      1.0  0.18229  0.57969  0.15475  1.0000
  H   H504      1.0  0.03455  0.51198  0.40789  1.0000
  C   C277      1.0  0.05722  0.56928  0.84773  1.0000
  S   S58       1.0  0.18098  0.51283  0.42306  1.0000
  C   C278      1.0  0.18367  0.60417  0.96974  1.0000
  C   C279      1.0  0.13986  0.49549  0.37426  1.0000
  C   C280      1.0  0.17149  0.51797  0.91436  1.0000
  C   C281      1.0  0.00670  0.50042  0.20850  1.0000
  H   H505      1.0  0.17869  0.52622  0.89279  1.0000
  H   H506      1.0  0.11987  0.49502  0.38441  1.0000
  H   H507      1.0  0.18656  0.56244  0.30084  1.0000
  H   H508      1.0  0.02757  0.49664  0.37144  1.0000
  H   H509      1.0  0.13132  0.49556  0.91333  1.0000
  C   C282      1.0  0.18709  0.52541  0.23339  1.0000
  C   C283      1.0  0.03554  0.49554  0.38408  1.0000
  Fe  Fe30      1.0  0.99169  0.52843  0.34960  1.0000
  H   H510      1.0  0.13903  0.49727  0.40397  1.0000
  H   H511      1.0  0.08423  0.49620  0.98216  1.0000
  C   C284      1.0  0.12948  0.49636  0.48743  1.0000
  C   C285      1.0  0.16807  0.49800  0.97029  1.0000
  H   H512      1.0  0.00675  0.49696  0.61346  1.0000
  H   H513      1.0  0.01941  0.49493  0.63463  1.0000
  H   H514      1.0  0.16010  0.49511  0.95851  1.0000
  H   H515      1.0  0.38440  0.42378  0.07599  1.0000
  H   H516      1.0  0.20923  0.49307  0.99732  1.0000
  C   C286      1.0  0.20245  0.48775  0.02666  1.0000
  C   C287      1.0  0.18990  0.48168  0.02144  1.0000
  H   H517      1.0  0.20642  0.48031  0.04167  1.0000
  H   H518      1.0  0.37811  0.47362  0.96576  1.0000
  H   H519      1.0  0.38704  0.43867  0.08775  1.0000
  H   H520      1.0  0.19144  0.47467  0.00462  1.0000
  H   H521      1.0  0.38349  0.49191  0.58104  1.0000
  H   H522      1.0  0.20118  0.49430  0.04548  1.0000
  H   H523      1.0  0.38805  0.46089  0.00766  1.0000
  H   H524      1.0  0.36816  0.50480  0.57493  1.0000
  H   H525      1.0  0.23363  0.65655  0.07261  1.0000
  S   S59       1.0  0.34933  0.55916  0.38347  1.0000
  H   H526      1.0  0.37776  0.63281  0.17476  1.0000
  H   H527      1.0  0.37412  0.69078  0.47657  1.0000
  C   C288      1.0  0.28517  0.72820  0.73077  1.0000
  H   H528      1.0  0.30472  0.64202  0.87714  1.0000
  S   S60       1.0  0.37196  0.53274  0.03640  1.0000
  S   S61       1.0  0.36957  0.53853  0.14175  1.0000
  Fe  Fe31      1.0  0.37627  0.55208  0.99305  1.0000
  S   S62       1.0  0.36508  0.56138  0.95446  1.0000
  C   C289      1.0  0.30709  0.66016  0.43427  1.0000
  Fe  Fe32      1.0  0.28865  0.58651  0.52853  1.0000
  S   S63       1.0  0.26830  0.58085  0.56208  1.0000
  S   S64       1.0  0.29732  0.60736  0.50089  1.0000
  Fe  Fe33      1.0  0.29076  0.55949  0.54489  1.0000
  S   S65       1.0  0.27053  0.55167  0.58092  1.0000
  S   S66       1.0  0.30349  0.54634  0.53749  1.0000
  Fe  Fe34      1.0  0.26643  0.56534  0.53157  1.0000
  S   S67       1.0  0.25263  0.56317  0.49360  1.0000
  Fe  Fe35      1.0  0.27414  0.56782  0.60837  1.0000
  S   S68       1.0  0.26662  0.56728  0.67375  1.0000
  S   S69       1.0  0.28658  0.57221  0.49432  1.0000
  S   S70       1.0  0.29457  0.57441  0.57619  1.0000
  Fe  Fe36      1.0  0.35638  0.67314  0.39378  1.0000
  S   S71       1.0  0.37524  0.68185  0.35013  1.0000
  S   S72       1.0  0.34274  0.68533  0.39547  1.0000
  Fe  Fe37      1.0  0.36262  0.64844  0.42094  1.0000
  S   S73       1.0  0.38214  0.65515  0.37939  1.0000
  S   S74       1.0  0.35593  0.62842  0.46075  1.0000
  C   C290      1.0  0.25926  0.72987  0.84766  1.0000
  H   H529      1.0  0.21053  0.59458  0.57718  1.0000
  Fe  Fe38      1.0  0.37299  0.66358  0.33385  1.0000
  S   S75       1.0  0.37937  0.66519  0.26771  1.0000
  S   S76       1.0  0.36394  0.66550  0.44450  1.0000
  S   S77       1.0  0.35344  0.65552  0.37383  1.0000
  Fe  Fe39      1.0  0.29750  0.56458  0.93552  1.0000
  S   S78       1.0  0.30843  0.58237  0.88782  1.0000
  S   S79       1.0  0.30651  0.55086  0.96962  1.0000
  Fe  Fe40      1.0  0.27199  0.57026  0.93214  1.0000
  S   S80       1.0  0.28155  0.58876  0.88495  1.0000
  S   S81       1.0  0.25075  0.56728  0.95532  1.0000
  Fe  Fe41      1.0  0.29370  0.57778  0.85609  1.0000
  S   S82       1.0  0.29988  0.57962  0.78905  1.0000
  Fe  Fe42      1.0  0.29530  0.59165  0.92093  1.0000
  S   S83       1.0  0.30053  0.60962  0.94001  1.0000
  S   S84       1.0  0.28366  0.55910  0.90178  1.0000
  S   S85       1.0  0.28482  0.57404  0.97005  1.0000
  Fe  Fe43      1.0  0.35579  0.64504  0.10119  1.0000
  S   S86       1.0  0.36802  0.66452  0.07075  1.0000
  S   S87       1.0  0.35006  0.63690  0.16853  1.0000
  Fe  Fe44      1.0  0.35571  0.63863  0.02231  1.0000
  S   S88       1.0  0.36835  0.65756  0.98604  1.0000
  S   S89       1.0  0.35110  0.62433  0.98824  1.0000
  Fe  Fe45      1.0  0.37913  0.65539  0.03105  1.0000
  H   H530      1.0  0.34369  0.73703  0.92187  1.0000
  Fe  Fe46      1.0  0.35626  0.66520  0.02831  1.0000
  S   S90       1.0  0.35333  0.68393  0.99998  1.0000
  S   S91       1.0  0.36780  0.63566  0.06413  1.0000
  S   S92       1.0  0.34268  0.64644  0.06200  1.0000
  C   C291      1.0  0.34666  0.72511  0.52170  1.0000
  Fe  Fe47      1.0  0.20854  0.64634  0.02672  1.0000
  S   S93       1.0  0.20388  0.52513  0.48565  1.0000
  H   H531      1.0  0.24823  0.52334  0.58053  1.0000
  C   C292      1.0  0.33238  0.69822  0.44419  1.0000
  H   H532      1.0  0.25417  0.64940  0.10953  1.0000
  H   H533      1.0  0.33982  0.68198  0.12814  1.0000
  H   H534      1.0  0.36715  0.67285  0.53940  1.0000
  H   H535      1.0  0.22341  0.61638  0.56650  1.0000
  H   H536      1.0  0.29912  0.69619  0.04210  1.0000
  H   H537      1.0  0.24908  0.56920  0.87367  1.0000
  H   H538      1.0  0.25977  0.67119  0.85293  1.0000
  H   H539      1.0  0.19377  0.55501  0.21040  1.0000
  H   H540      1.0  0.20566  0.57774  0.55074  1.0000
  H   H541      1.0  0.24418  0.66432  0.13801  1.0000
  S   S94       1.0  0.31599  0.72073  0.89890  1.0000
  S   S95       1.0  0.20195  0.52126  0.00939  1.0000
  H   H542      1.0  0.38493  0.63854  0.98453  1.0000
  C   C293      1.0  0.22912  0.62086  0.32129  1.0000
  H   H543      1.0  0.28794  0.55862  0.38708  1.0000
  H   H544      1.0  0.27788  0.69214  0.71608  1.0000
  C   C294      1.0  0.25693  0.54624  0.82773  1.0000
  H   H545      1.0  0.35362  0.62536  0.37823  1.0000
  S   S96       1.0  0.25965  0.71446  0.95985  1.0000
  Fe  Fe48      1.0  0.28938  0.71956  0.60162  1.0000
  H   H546      1.0  0.27997  0.67456  0.86834  1.0000
  C   C295      1.0  0.30901  0.68894  0.83845  1.0000
  H   H547      1.0  0.33090  0.61395  0.40566  1.0000
  C   C296      1.0  0.33589  0.61610  0.37356  1.0000
  H   H548      1.0  0.35810  0.60388  0.31084  1.0000
  C   C297      1.0  0.25764  0.52230  0.43873  1.0000
  H   H549      1.0  0.27601  0.57323  0.41200  1.0000
  C   C298      1.0  0.31446  0.61321  0.95459  1.0000
  C   C299      1.0  0.31516  0.62074  0.98092  1.0000
  C   C300      1.0  0.32625  0.62412  0.99192  1.0000
  C   C301      1.0  0.33690  0.62038  0.97552  1.0000
  C   C302      1.0  0.33624  0.61303  0.94872  1.0000
  C   C303      1.0  0.32506  0.60935  0.93863  1.0000
  H   H550      1.0  0.30711  0.62400  0.99283  1.0000
  H   H551      1.0  0.32661  0.62976  0.01266  1.0000
  H   H552      1.0  0.34442  0.61013  0.93565  1.0000
  H   H553      1.0  0.32473  0.60367  0.91798  1.0000
  C   C304      1.0  0.23743  0.55422  0.97006  1.0000
  C   C305      1.0  0.22548  0.55634  0.98231  1.0000
  C   C306      1.0  0.21459  0.54635  0.99503  1.0000
  C   C307      1.0  0.21549  0.53408  0.99500  1.0000
  C   C308      1.0  0.22742  0.53196  0.98233  1.0000
  C   C309      1.0  0.23835  0.54194  0.97022  1.0000
  H   H554      1.0  0.22462  0.56579  0.98208  1.0000
  H   H555      1.0  0.20550  0.54817  0.00449  1.0000
  H   H556      1.0  0.22822  0.52250  0.98249  1.0000
  H   H557      1.0  0.24746  0.54012  0.96139  1.0000
  H   H558      1.0  0.34855  0.60467  0.42344  1.0000
  C   C310      1.0  0.19968  0.59242  0.30794  1.0000
  H   H559      1.0  0.28165  0.67322  0.39778  1.0000
  C   C311      1.0  0.33894  0.68306  0.98955  1.0000
  C   C312      1.0  0.32839  0.67345  0.01281  1.0000
  H   H560      1.0  0.34818  0.58295  0.44319  1.0000
  H   H561      1.0  0.23224  0.66444  0.20128  1.0000
  C   C313      1.0  0.32423  0.61368  0.66659  1.0000
  H   H562      1.0  0.32915  0.66607  0.03671  1.0000
  H   H563      1.0  0.37370  0.62311  0.34602  1.0000
  H   H564      1.0  0.37254  0.62115  0.39709  1.0000
  H   H565      1.0  0.26342  0.65651  0.40213  1.0000
  H   H566      1.0  0.33198  0.72941  0.62316  1.0000
  H   H567      1.0  0.19460  0.58455  0.26100  1.0000
  H   H568      1.0  0.36164  0.58761  0.36108  1.0000
  S   S97       1.0  0.29478  0.73667  0.89281  1.0000
  N   N18       1.0  0.19884  0.60600  0.29575  1.0000
  H   H569      1.0  0.27400  0.55007  0.37908  1.0000
  C   C314      1.0  0.31668  0.67379  0.00637  1.0000
  H   H570      1.0  0.35305  0.67208  0.57621  1.0000
  H   H571      1.0  0.30234  0.67562  0.39672  1.0000
  H   H572      1.0  0.23896  0.50843  0.94929  1.0000
  S   S98       1.0  0.19305  0.54322  0.39196  1.0000
  H   H573      1.0  0.33676  0.55460  0.06299  1.0000
  H   H574      1.0  0.24092  0.69024  0.89858  1.0000
  C   C315      1.0  0.20159  0.60953  0.18316  1.0000
  C   C316      1.0  0.31458  0.65805  0.39619  1.0000
  C   C317      1.0  0.36933  0.65771  0.24397  1.0000
  C   C318      1.0  0.36329  0.64486  0.25912  1.0000
  C   C319      1.0  0.35711  0.63861  0.23627  1.0000
  C   C320      1.0  0.35695  0.64517  0.19807  1.0000
  C   C321      1.0  0.36250  0.65814  0.18381  1.0000
  C   C322      1.0  0.36872  0.66436  0.20653  1.0000
  H   H575      1.0  0.36381  0.63965  0.28775  1.0000
  H   H576      1.0  0.35272  0.62860  0.24775  1.0000
  H   H577      1.0  0.36202  0.66337  0.15519  1.0000
  H   H578      1.0  0.37324  0.67433  0.19481  1.0000
  C   C323      1.0  0.27623  0.57157  0.70397  1.0000
  C   C324      1.0  0.28883  0.57130  0.69527  1.0000
  C   C325      1.0  0.29601  0.57418  0.72097  1.0000
  C   C326      1.0  0.29063  0.57707  0.75621  1.0000
  C   C327      1.0  0.27809  0.57758  0.76451  1.0000
  C   C328      1.0  0.27095  0.57485  0.73852  1.0000
  H   H579      1.0  0.29296  0.56859  0.66918  1.0000
  H   H580      1.0  0.30572  0.57383  0.71408  1.0000
  H   H581      1.0  0.27391  0.58012  0.79090  1.0000
  H   H582      1.0  0.26124  0.57518  0.74537  1.0000
  C   C329      1.0  0.31365  0.61287  0.48915  1.0000
  C   C330      1.0  0.31903  0.62587  0.47358  1.0000
  C   C331      1.0  0.33199  0.63067  0.46468  1.0000
  C   C332      1.0  0.33965  0.62248  0.47199  1.0000
  C   C333      1.0  0.33426  0.60947  0.48839  1.0000
  C   C334      1.0  0.32131  0.60464  0.49619  1.0000
  H   H583      1.0  0.31313  0.63226  0.46836  1.0000
  H   H584      1.0  0.33601  0.64072  0.45267  1.0000
  H   H585      1.0  0.34012  0.60310  0.49446  1.0000
  H   H586      1.0  0.31723  0.59457  0.50790  1.0000
  C   C335      1.0  0.23923  0.55220  0.49201  1.0000
  C   C336      1.0  0.23282  0.54136  0.52337  1.0000
  C   C337      1.0  0.22208  0.53321  0.52085  1.0000
  C   C338      1.0  0.21740  0.53587  0.48740  1.0000
  C   C339      1.0  0.22383  0.54671  0.45606  1.0000
  C   C340      1.0  0.23471  0.55472  0.45822  1.0000
  H   H587      1.0  0.23607  0.53929  0.54969  1.0000
  H   H588      1.0  0.21724  0.52482  0.54522  1.0000
  H   H589      1.0  0.22045  0.54888  0.43001  1.0000
  H   H590      1.0  0.23955  0.56302  0.43360  1.0000
  H   H591      1.0  0.37772  0.59468  0.34977  1.0000
  C   C341      1.0  0.29132  0.69515  0.41148  1.0000
  H   H592      1.0  0.25141  0.73184  0.83553  1.0000
  S   S99       1.0  0.38277  0.56981  0.32985  1.0000
  S   S100      1.0  0.28368  0.72791  0.54658  1.0000
  H   H593      1.0  0.19747  0.57055  0.17627  1.0000
  H   H594      1.0  0.35303  0.73502  0.99960  1.0000
  C   C342      1.0  0.35896  0.57662  0.48204  1.0000
  C   C343      1.0  0.30355  0.70251  0.05758  1.0000
  C   C344      1.0  0.32990  0.67990  0.51461  1.0000
  C   C345      1.0  0.33525  0.67811  0.47753  1.0000
  C   C346      1.0  0.33643  0.68729  0.44231  1.0000
  N   N19       1.0  0.25436  0.69506  0.84030  1.0000
  H   H595      1.0  0.32872  0.67274  0.54193  1.0000
  H   H596      1.0  0.33820  0.66955  0.47616  1.0000
  H   H597      1.0  0.36052  0.57637  0.42180  1.0000
  C   C347      1.0  0.27118  0.67181  0.89295  1.0000
  C   C348      1.0  0.24705  0.67559  0.51595  1.0000
  C   C349      1.0  0.23891  0.66997  0.49631  1.0000
  H   H598      1.0  0.36624  0.60127  0.44486  1.0000
  H   H599      1.0  0.32372  0.65270  0.82007  1.0000
  H   H600      1.0  0.31762  0.57306  0.61770  1.0000
  H   H601      1.0  0.23253  0.66080  0.51124  1.0000
  C   C350      1.0  0.34871  0.55824  0.96002  1.0000
  C   C351      1.0  0.34416  0.56677  0.93521  1.0000
  C   C352      1.0  0.33129  0.56477  0.93833  1.0000
  C   C353      1.0  0.32277  0.55406  0.96595  1.0000
  C   C354      1.0  0.32730  0.54558  0.99108  1.0000
  C   C355      1.0  0.34019  0.54766  0.98827  1.0000
  H   H602      1.0  0.35066  0.57499  0.91331  1.0000
  H   H603      1.0  0.32799  0.57139  0.91880  1.0000
  H   H604      1.0  0.32081  0.53727  0.01258  1.0000
  H   H605      1.0  0.34355  0.54100  0.00755  1.0000
  C   C356      1.0  0.31696  0.55096  0.49623  1.0000
  C   C357      1.0  0.31832  0.56086  0.46263  1.0000
  C   C358      1.0  0.32851  0.56351  0.42868  1.0000
  C   C359      1.0  0.33759  0.55650  0.42837  1.0000
  C   C360      1.0  0.33654  0.54698  0.46258  1.0000
  C   C361      1.0  0.32617  0.54412  0.49621  1.0000
  H   H606      1.0  0.31131  0.56620  0.46227  1.0000
  H   H607      1.0  0.32925  0.57086  0.40225  1.0000
  H   H608      1.0  0.34344  0.54148  0.46254  1.0000
  H   H609      1.0  0.32517  0.53645  0.52208  1.0000
  C   C362      1.0  0.30026  0.71864  0.69750  1.0000
  C   C363      1.0  0.27873  0.66461  0.42320  1.0000
  H   H610      1.0  0.26582  0.69603  0.03556  1.0000
  C   C364      1.0  0.37848  0.54330  0.17261  1.0000
  C   C365      1.0  0.37261  0.54138  0.21314  1.0000
  C   C366      1.0  0.37954  0.54491  0.23856  1.0000
  H   H611      1.0  0.30366  0.69440  0.44993  1.0000
  S   S101      1.0  0.30143  0.71330  0.49955  1.0000
  S   S102      1.0  0.30084  0.68484  0.97156  1.0000
  C   C367      1.0  0.26059  0.67564  0.87715  1.0000
  H   H612      1.0  0.18844  0.56663  0.34504  1.0000
  N   N20       1.0  0.22512  0.58600  0.51657  1.0000
  C   C368      1.0  0.21195  0.57892  0.52089  1.0000
  C   C369      1.0  0.22541  0.59926  0.52009  1.0000
  C   C370      1.0  0.23299  0.58707  0.47528  1.0000
  C   C371      1.0  0.23077  0.57902  0.54631  1.0000
  C   C372      1.0  0.22363  0.57594  0.59085  1.0000
  C   C373      1.0  0.21036  0.56569  0.51351  1.0000
  C   C374      1.0  0.24664  0.59530  0.46264  1.0000
  C   C375      1.0  0.21359  0.60131  0.54705  1.0000
  H   H613      1.0  0.20722  0.61606  0.56987  1.0000
  C   C376      1.0  0.23000  0.56813  0.61712  1.0000
  H   H614      1.0  0.20200  0.54657  0.15353  1.0000
  C   C377      1.0  0.25333  0.59592  0.41988  1.0000
  H   H615      1.0  0.20795  0.58460  0.49962  1.0000
  S   S103      1.0  0.19793  0.65718  0.39801  1.0000
  H   H616      1.0  0.23366  0.60294  0.52998  1.0000
  H   H617      1.0  0.22673  0.60590  0.49032  1.0000
  H   H618      1.0  0.22836  0.59088  0.45254  1.0000
  H   H619      1.0  0.23377  0.57762  0.47223  1.0000
  H   H620      1.0  0.23212  0.57004  0.53996  1.0000
  H   H621      1.0  0.24033  0.58454  0.54319  1.0000
  H   H622      1.0  0.21389  0.57036  0.59731  1.0000
  H   H623      1.0  0.22364  0.58477  0.59975  1.0000
  H   H624      1.0  0.21448  0.56662  0.48152  1.0000
  H   H625      1.0  0.21485  0.55959  0.53170  1.0000
  H   H626      1.0  0.25213  0.59127  0.48200  1.0000
  H   H627      1.0  0.24694  0.60513  0.46399  1.0000
  H   H628      1.0  0.35269  0.72675  0.90459  1.0000
  S   S104      1.0  0.19996  0.59918  0.08087  1.0000
  H   H629      1.0  0.19190  0.49811  0.97371  1.0000
  H   H630      1.0  0.37720  0.68936  0.09689  1.0000
  H   H631      1.0  0.23023  0.55907  0.60967  1.0000
  H   H632      1.0  0.23972  0.57344  0.61304  1.0000
  H   H633      1.0  0.22474  0.56598  0.64899  1.0000
  H   H634      1.0  0.33742  0.71575  0.96990  1.0000
  H   H635      1.0  0.37684  0.69061  0.93382  1.0000
  H   H636      1.0  0.22891  0.65529  0.14544  1.0000
  H   H637      1.0  0.24842  0.60019  0.39880  1.0000
  H   H638      1.0  0.26306  0.60182  0.41150  1.0000
  H   H639      1.0  0.25374  0.58631  0.41733  1.0000
  H   H640      1.0  0.31457  0.71512  0.72633  1.0000
  H   H641      1.0  0.32788  0.69747  0.10539  1.0000
  C   C378      1.0  0.21592  0.61471  0.55156  1.0000
  C   C379      1.0  0.33870  0.74129  0.06693  1.0000
  H   H642      1.0  0.21728  0.67276  0.17246  1.0000
  C   C380      1.0  0.36898  0.70772  0.40136  1.0000
  H   H643      1.0  0.34765  0.59619  0.07419  1.0000
  H   H644      1.0  0.22324  0.67083  0.07177  1.0000
  H   H645      1.0  0.26550  0.71429  0.87592  1.0000
  Fe  Fe49      1.0  0.20409  0.64575  0.35585  1.0000
  H   H646      1.0  0.21348  0.55892  0.15944  1.0000
  H   H647      1.0  0.32167  0.59354  0.02632  1.0000
  H   H648      1.0  0.30687  0.56932  0.01575  1.0000
  H   H649      1.0  0.24974  0.64471  0.06874  1.0000
  C   C381      1.0  0.37810  0.50870  0.55718  1.0000
  H   H650      1.0  0.29053  0.71358  0.37817  1.0000
  H   H651      1.0  0.21360  0.61939  0.21071  1.0000
  C   C382      1.0  0.20458  0.55681  0.15132  1.0000
  H   H652      1.0  0.36371  0.72548  0.45226  1.0000
  H   H653      1.0  0.22130  0.67330  0.92812  1.0000
  H   H654      1.0  0.31690  0.64876  0.40327  1.0000
  H   H655      1.0  0.25925  0.73409  0.87289  1.0000
  H   H656      1.0  0.36626  0.72796  0.51608  1.0000
  H   H657      1.0  0.34209  0.70453  0.11529  1.0000
  C   C383      1.0  0.26337  0.52908  0.86953  1.0000
  H   H658      1.0  0.25593  0.54924  0.88740  1.0000
  H   H659      1.0  0.33742  0.60606  0.12402  1.0000
  H   H660      1.0  0.30391  0.55257  0.80961  1.0000
  H   H661      1.0  0.32830  0.58350  0.12907  1.0000
  Fe  Fe50      1.0  0.21379  0.65343  0.42473  1.0000
  C   C384      1.0  0.30428  0.67339  0.42615  1.0000
  S   S105      1.0  0.22038  0.64304  0.38017  1.0000
  C   C385      1.0  0.32722  0.70005  0.48116  1.0000
  H   H662      1.0  0.32796  0.61099  0.09181  1.0000
  C   C386      1.0  0.32373  0.71739  0.05477  1.0000
  H   H663      1.0  0.33830  0.64201  0.52770  1.0000
  C   C387      1.0  0.32137  0.58441  0.01923  1.0000
  H   H664      1.0  0.20944  0.59169  0.29672  1.0000
  H   H665      1.0  0.30906  0.65811  0.37421  1.0000
  C   C388      1.0  0.25385  0.69010  0.09676  1.0000
  H   H666      1.0  0.24378  0.52870  0.89798  1.0000
  H   H667      1.0  0.26194  0.70297  0.44370  1.0000
  H   H668      1.0  0.35985  0.71013  0.40915  1.0000
  C   C389      1.0  0.33793  0.69255  0.95860  1.0000
  H   H669      1.0  0.30416  0.58489  0.00339  1.0000
  C   C390      1.0  0.36847  0.59696  0.35218  1.0000
  C   C391      1.0  0.28975  0.72355  0.69852  1.0000
  C   C392      1.0  0.29104  0.72798  0.76160  1.0000
  Fe  Fe51      1.0  0.30580  0.70589  0.55697  1.0000
  H   H670      1.0  0.30388  0.71501  0.67291  1.0000
  H   H671      1.0  0.23020  0.63100  0.30659  1.0000
  H   H672      1.0  0.33844  0.71754  0.52424  1.0000
  C   C393      1.0  0.20648  0.61025  0.21915  1.0000
  N   N21       1.0  0.25833  0.59923  0.02068  1.0000
  C   C394      1.0  0.25018  0.58665  0.02293  1.0000
  C   C395      1.0  0.26546  0.60626  0.97777  1.0000
  C   C396      1.0  0.26780  0.59652  0.04307  1.0000
  C   C397      1.0  0.25095  0.60722  0.03995  1.0000
  C   C398      1.0  0.23997  0.61017  0.02360  1.0000
  C   C399      1.0  0.24247  0.57820  0.06528  1.0000
  C   C400      1.0  0.27793  0.60815  0.04180  1.0000
  C   C401      1.0  0.25892  0.60457  0.94493  1.0000
  C   C402      1.0  0.26604  0.61431  0.90503  1.0000
  C   C403      1.0  0.23251  0.61718  0.04830  1.0000
  C   C404      1.0  0.23401  0.56623  0.06309  1.0000
  C   C405      1.0  0.28774  0.60397  0.06131  1.0000
  H   H673      1.0  0.25613  0.58106  0.00902  1.0000
  H   H674      1.0  0.24340  0.58780  0.00523  1.0000
  H   H675      1.0  0.26857  0.61655  0.97442  1.0000
  H   H676      1.0  0.27421  0.60314  0.96895  1.0000
  H   H677      1.0  0.27274  0.58978  0.03156  1.0000
  H   H678      1.0  0.26313  0.59182  0.07524  1.0000
  H   H679      1.0  0.24728  0.60285  0.07274  1.0000
  H   H680      1.0  0.25716  0.61656  0.03645  1.0000
  H   H681      1.0  0.23337  0.60146  0.02416  1.0000
  H   H682      1.0  0.24363  0.61648  0.99272  1.0000
  H   H683      1.0  0.24868  0.57510  0.08332  1.0000
  H   H684      1.0  0.23639  0.58324  0.08117  1.0000
  H   H685      1.0  0.27364  0.61423  0.05841  1.0000
  H   H686      1.0  0.28290  0.61395  0.01084  1.0000
  H   H687      1.0  0.25872  0.59505  0.94062  1.0000
  H   H688      1.0  0.24916  0.60542  0.95241  1.0000
  H   H689      1.0  0.26567  0.62398  0.90698  1.0000
  H   H690      1.0  0.27597  0.61387  0.89634  1.0000
  H   H691      1.0  0.26171  0.61232  0.88147  1.0000
  H   H692      1.0  0.22816  0.61120  0.07952  1.0000
  H   H693      1.0  0.23859  0.62618  0.04817  1.0000
  H   H694      1.0  0.22491  0.61946  0.03525  1.0000
  H   H695      1.0  0.22918  0.55997  0.09362  1.0000
  H   H696      1.0  0.22683  0.56862  0.04814  1.0000
  H   H697      1.0  0.23959  0.56093  0.04652  1.0000
  H   H698      1.0  0.29447  0.61238  0.06226  1.0000
  H   H699      1.0  0.28328  0.59790  0.09236  1.0000
  H   H700      1.0  0.29303  0.59869  0.04378  1.0000
  N   N22       1.0  0.31415  0.65713  0.89640  1.0000
  C   C406      1.0  0.32676  0.66228  0.90179  1.0000
  C   C407      1.0  0.31183  0.66690  0.86411  1.0000
  C   C408      1.0  0.30437  0.65431  0.93566  1.0000
  C   C409      1.0  0.31371  0.64511  0.88399  1.0000
  C   C410      1.0  0.32422  0.64577  0.84683  1.0000
  C   C411      1.0  0.33163  0.65288  0.92963  1.0000
  C   C412      1.0  0.29067  0.64930  0.93554  1.0000
  C   C413      1.0  0.30929  0.67899  0.87502  1.0000
  C   C414      1.0  0.34487  0.65868  0.92989  1.0000
  C   C415      1.0  0.28147  0.64883  0.97460  1.0000
  H   H701      1.0  0.32655  0.67043  0.91458  1.0000
  H   H702      1.0  0.33400  0.66618  0.87247  1.0000
  H   H703      1.0  0.30385  0.66276  0.85385  1.0000
  H   H704      1.0  0.30500  0.66276  0.94709  1.0000
  H   H705      1.0  0.30614  0.64698  0.95886  1.0000
  H   H706      1.0  0.31370  0.63722  0.90910  1.0000
  H   H707      1.0  0.33362  0.64853  0.85115  1.0000
  H   H708      1.0  0.32563  0.65021  0.96079  1.0000
  H   H709      1.0  0.33195  0.64420  0.92000  1.0000
  H   H710      1.0  0.28922  0.63955  0.93235  1.0000
  H   H711      1.0  0.28828  0.65534  0.91084  1.0000
  H   H712      1.0  0.30012  0.67676  0.89759  1.0000
  H   H713      1.0  0.31822  0.69202  0.81558  1.0000
  H   H714      1.0  0.33040  0.63366  0.81101  1.0000
  H   H715      1.0  0.34800  0.65163  0.94999  1.0000
  H   H716      1.0  0.35144  0.66132  0.89954  1.0000
  H   H717      1.0  0.34512  0.66715  0.94108  1.0000
  H   H718      1.0  0.28223  0.65848  0.97846  1.0000
  H   H719      1.0  0.27176  0.64498  0.97415  1.0000
  H   H720      1.0  0.28337  0.64267  0.00038  1.0000
  N   N23       1.0  0.36572  0.60378  0.38364  1.0000
  C   C416      1.0  0.37476  0.61660  0.37261  1.0000
  C   C417      1.0  0.36721  0.59599  0.42186  1.0000
  C   C418      1.0  0.38715  0.69457  0.08261  1.0000
  C   C419      1.0  0.35806  0.58268  0.44043  1.0000
  H   H721      1.0  0.25253  0.51914  0.95188  1.0000
  H   H722      1.0  0.32000  0.67005  0.83712  1.0000
  C   C420      1.0  0.35233  0.60500  0.39167  1.0000
  H   H723      1.0  0.20202  0.56844  0.30440  1.0000
  H   H724      1.0  0.24896  0.66666  0.06376  1.0000
  H   H725      1.0  0.29837  0.65249  0.44715  1.0000
  H   H726      1.0  0.19592  0.61649  0.17772  1.0000
  H   H727      1.0  0.30695  0.69735  0.84736  1.0000
  H   H728      1.0  0.26367  0.69722  0.71869  1.0000
  H   H729      1.0  0.32062  0.60173  0.14286  1.0000
  C   C421      1.0  0.32296  0.63294  0.83815  1.0000
  H   H730      1.0  0.31662  0.68333  0.88721  1.0000
  H   H731      1.0  0.31372  0.62969  0.83312  1.0000
  H   H732      1.0  0.34616  0.59675  0.38733  1.0000
  H   H733      1.0  0.37998  0.59280  0.08525  1.0000
  C   C422      1.0  0.34988  0.61723  0.36776  1.0000
  H   H734      1.0  0.32418  0.61865  0.55355  1.0000
  Fe  Fe52      1.0  0.37938  0.54337  0.07604  1.0000
  H   H735      1.0  0.21647  0.64555  0.21119  1.0000
  C   C423      1.0  0.33489  0.64310  0.55806  1.0000
  H   H736      1.0  0.34197  0.64168  0.57449  1.0000
  H   H737      1.0  0.33382  0.65286  0.55501  1.0000
  C   C424      1.0  0.26820  0.69062  0.73500  1.0000
  H   H738      1.0  0.26303  0.68073  0.73962  1.0000
  H   H739      1.0  0.30167  0.68523  0.82515  1.0000
  C   C425      1.0  0.36790  0.60371  0.31016  1.0000
  C   C426      1.0  0.31095  0.53001  0.42561  1.0000
  H   H740      1.0  0.33231  0.61912  0.58968  1.0000
  H   H741      1.0  0.26868  0.66141  0.90601  1.0000
  H   H742      1.0  0.33142  0.60917  0.65379  1.0000
  H   H743      1.0  0.33414  0.60015  0.59212  1.0000
  H   H744      1.0  0.36909  0.69728  0.89821  1.0000
  H   H745      1.0  0.37851  0.71251  0.52037  1.0000
  H   H746      1.0  0.30843  0.66660  0.02516  1.0000
  C   C427      1.0  0.24124  0.68628  0.08744  1.0000
  H   H747      1.0  0.26163  0.54363  0.74977  1.0000
  H   H748      1.0  0.24894  0.56813  0.82447  1.0000
  H   H749      1.0  0.25104  0.68075  0.80900  1.0000
  H   H750      1.0  0.32807  0.62405  0.65456  1.0000
  H   H751      1.0  0.33446  0.57784  0.60253  1.0000
  H   H752      1.0  0.19619  0.68596  0.08220  1.0000
  H   H753      1.0  0.27276  0.67637  0.91649  1.0000
  H   H754      1.0  0.28043  0.53338  0.50955  1.0000
  H   H755      1.0  0.29561  0.54669  0.44544  1.0000
  H   H756      1.0  0.25495  0.51163  0.56260  1.0000
  H   H757      1.0  0.31815  0.71257  0.00424  1.0000
  C   C428      1.0  0.24745  0.68819  0.43908  1.0000
  H   H758      1.0  0.31940  0.59986  0.72461  1.0000
  H   H759      1.0  0.35436  0.61948  0.33542  1.0000
  H   H760      1.0  0.33182  0.60854  0.36146  1.0000
  Fe  Fe53      1.0  0.19000  0.52784  0.44806  1.0000
  H   H761      1.0  0.27700  0.55355  0.46003  1.0000
  H   H762      1.0  0.29811  0.52732  0.48263  1.0000
  H   H763      1.0  0.29451  0.54112  0.40338  1.0000
  H   H764      1.0  0.27216  0.70315  0.06928  1.0000
  C   C429      1.0  0.32325  0.61992  0.58387  1.0000
  C   C430      1.0  0.32231  0.63371  0.58057  1.0000
  C   C431      1.0  0.25522  0.69099  0.80250  1.0000
  C   C432      1.0  0.26861  0.69319  0.77485  1.0000
  H   H765      1.0  0.27369  0.68676  0.78914  1.0000
  H   H766      1.0  0.35143  0.54322  0.08732  1.0000
  H   H767      1.0  0.31562  0.52302  0.43932  1.0000
  C   C433      1.0  0.27338  0.52913  0.49586  1.0000
  C   C434      1.0  0.29136  0.53833  0.43659  1.0000
  C   C435      1.0  0.25687  0.52167  0.56299  1.0000
  H   H768      1.0  0.36267  0.53713  0.22491  1.0000
  C   C436      1.0  0.32556  0.59295  0.61128  1.0000
  C   C437      1.0  0.32587  0.58081  0.59886  1.0000
  H   H769      1.0  0.25183  0.67174  0.90198  1.0000
  H   H770      1.0  0.31911  0.63518  0.61043  1.0000
  H   H771      1.0  0.32575  0.59086  0.64287  1.0000
  H   H772      1.0  0.32596  0.58234  0.56705  1.0000
  C   C438      1.0  0.32234  0.61028  0.71166  1.0000
  H   H773      1.0  0.24964  0.69577  0.78479  1.0000
  C   C439      1.0  0.21989  0.67513  0.89791  1.0000
  H   H774      1.0  0.32396  0.62577  0.86346  1.0000
  C   C440      1.0  0.37225  0.59665  0.27996  1.0000
  H   H775      1.0  0.33445  0.62518  0.35755  1.0000
  H   H776      1.0  0.34195  0.54784  0.12646  1.0000
  H   H777      1.0  0.31089  0.52909  0.39543  1.0000
  N   N24       1.0  0.27723  0.53525  0.45130  1.0000
  C   C441      1.0  0.27334  0.54750  0.44247  1.0000
  H   H778      1.0  0.26434  0.52353  0.57790  1.0000
  H   H779      1.0  0.27610  0.57315  0.36167  1.0000
  H   H780      1.0  0.26174  0.54025  0.52259  1.0000
  C   C442      1.0  0.27759  0.55550  0.39821  1.0000
  C   C443      1.0  0.29762  0.52767  0.45178  1.0000
  C   C444      1.0  0.26076  0.53041  0.52054  1.0000
  C   C445      1.0  0.27269  0.56740  0.39334  1.0000
  H   H781      1.0  0.26306  0.54596  0.45259  1.0000
  H   H782      1.0  0.27328  0.51892  0.50213  1.0000
  C   C446      1.0  0.20656  0.64495  0.21837  1.0000
  H   H783      1.0  0.31551  0.63593  0.56366  1.0000
  C   C447      1.0  0.27205  0.52639  0.42953  1.0000
  C   C448      1.0  0.25545  0.68758  0.49748  1.0000
  C   C449      1.0  0.19396  0.57415  0.42053  1.0000
  C   C450      1.0  0.26303  0.69017  0.86270  1.0000
  C   C451      1.0  0.34944  0.55143  0.09775  1.0000
  H   H784      1.0  0.35805  0.55655  0.10275  1.0000
  H   H785      1.0  0.22719  0.68825  0.15163  1.0000
  H   H786      1.0  0.26231  0.56486  0.40222  1.0000
  H   H787      1.0  0.29239  0.51823  0.45235  1.0000
  H   H788      1.0  0.31250  0.59694  0.57731  1.0000
  H   H789      1.0  0.31511  0.61453  0.72624  1.0000
  H   H790      1.0  0.27421  0.70295  0.76800  1.0000
  H   H791      1.0  0.26233  0.69341  0.89002  1.0000
  H   H792      1.0  0.38218  0.59653  0.27689  1.0000
  C   C452      1.0  0.34542  0.56014  0.06644  1.0000
  H   H793      1.0  0.27605  0.53049  0.39672  1.0000
  H   H794      1.0  0.25302  0.52831  0.50717  1.0000
  H   H795      1.0  0.34848  0.57825  0.99487  1.0000
  N   N25       1.0  0.31248  0.60978  0.61377  1.0000
  C   C453      1.0  0.31353  0.59714  0.60731  1.0000
  H   H796      1.0  0.25361  0.51568  0.46912  1.0000
  H   H797      1.0  0.27511  0.51749  0.43617  1.0000
  H   H798      1.0  0.35287  0.56271  0.03795  1.0000
  H   H799      1.0  0.25335  0.53045  0.43633  1.0000
  H   H800      1.0  0.33125  0.61385  0.71815  1.0000
  C   C454      1.0  0.31171  0.60967  0.65654  1.0000
  H   H801      1.0  0.24678  0.67061  0.54585  1.0000
  H   H802      1.0  0.27296  0.69428  0.84468  1.0000
  C   C455      1.0  0.24628  0.64742  0.09640  1.0000
  C   C456      1.0  0.25090  0.69856  0.97164  1.0000
  H   H803      1.0  0.37137  0.60145  0.25037  1.0000
  H   H804      1.0  0.32780  0.56769  0.03222  1.0000
  C   C457      1.0  0.30774  0.57838  0.02373  1.0000
  H   H805      1.0  0.30127  0.61329  0.57272  1.0000
  C   C458      1.0  0.23777  0.69572  0.98035  1.0000
  C   C459      1.0  0.32575  0.69081  0.51641  1.0000
  C   C460      1.0  0.34320  0.57201  0.07944  1.0000
  C   C461      1.0  0.19281  0.57730  0.06121  1.0000
  H   H806      1.0  0.33584  0.56849  0.10849  1.0000
  H   H807      1.0  0.32011  0.57107  0.07578  1.0000
  C   C462      1.0  0.30053  0.61213  0.60496  1.0000
  H   H808      1.0  0.30580  0.58946  0.62906  1.0000
  H   H809      1.0  0.29900  0.62114  0.61068  1.0000
  H   H810      1.0  0.30595  0.61607  0.66609  1.0000
  S   S106      1.0  0.31013  0.72398  0.79614  1.0000
  S   S107      1.0  0.31837  0.69257  0.56269  1.0000
  H   H811      1.0  0.21288  0.58302  0.41735  1.0000
  C   C463      1.0  0.25830  0.70934  0.82806  1.0000
  H   H812      1.0  0.25255  0.71328  0.80928  1.0000
  C   C464      1.0  0.32702  0.57556  0.04602  1.0000
  C   C465      1.0  0.23675  0.67337  0.98803  1.0000
  H   H813      1.0  0.30659  0.60013  0.67692  1.0000
  H   H814      1.0  0.38103  0.59910  0.96661  1.0000
  H   H815      1.0  0.23307  0.70328  0.98013  1.0000
  S   S108      1.0  0.22889  0.66966  0.43079  1.0000
  H   H816      1.0  0.23038  0.67998  0.83661  1.0000
  H   H817      1.0  0.23677  0.67063  0.87090  1.0000
  H   H818      1.0  0.25214  0.52272  0.74258  1.0000
  H   H819      1.0  0.26519  0.53179  0.70045  1.0000
  H   H820      1.0  0.35177  0.57646  0.08638  1.0000
  H   H821      1.0  0.32463  0.70876  0.48228  1.0000
  C   C466      1.0  0.24100  0.69108  0.86691  1.0000
  N   N26       1.0  0.33950  0.58158  0.05040  1.0000
  H   H822      1.0  0.36623  0.58295  0.02437  1.0000
  C   C467      1.0  0.26243  0.52667  0.73274  1.0000
  C   C468      1.0  0.34893  0.58590  0.00989  1.0000
  C   C469      1.0  0.23242  0.67869  0.86598  1.0000
  H   H823      1.0  0.31957  0.71386  0.08769  1.0000
  H   H824      1.0  0.26719  0.51885  0.73672  1.0000
  C   C470      1.0  0.32795  0.59102  0.10356  1.0000
  H   H825      1.0  0.30005  0.66829  0.57322  1.0000
  C   C471      1.0  0.28834  0.60184  0.62923  1.0000
  H   H826      1.0  0.28823  0.59301  0.62020  1.0000
  H   H827      1.0  0.27733  0.60801  0.58940  1.0000
  H   H828      1.0  0.23591  0.69848  0.85919  1.0000
  H   H829      1.0  0.24879  0.71170  0.88651  1.0000
  C   C472      1.0  0.36273  0.59075  0.00918  1.0000
  C   C473      1.0  0.26627  0.53583  0.75611  1.0000
  H   H830      1.0  0.28658  0.65591  0.57783  1.0000
  H   H831      1.0  0.38455  0.50325  0.60876  1.0000
  C   C474      1.0  0.29009  0.66620  0.57314  1.0000
  C   C475      1.0  0.31558  0.68377  0.97694  1.0000
  C   C476      1.0  0.37115  0.59610  0.96638  1.0000
  H   H832      1.0  0.25238  0.52457  0.81046  1.0000
  H   H833      1.0  0.36844  0.60443  0.95054  1.0000
  H   H834      1.0  0.27652  0.53979  0.74389  1.0000
  H   H835      1.0  0.28736  0.59969  0.66173  1.0000
  C   C477      1.0  0.27680  0.60601  0.62165  1.0000
  H   H836      1.0  0.27595  0.61457  0.63160  1.0000
  C   C478      1.0  0.26257  0.52909  0.80158  1.0000
  H   H837      1.0  0.26713  0.52110  0.80579  1.0000
  H   H838      1.0  0.27860  0.67117  0.53482  1.0000
  C   C479      1.0  0.25683  0.68867  0.97230  1.0000
  H   H839      1.0  0.26686  0.69060  0.96683  1.0000
  C   C480      1.0  0.34295  0.70909  0.05149  1.0000
  S   S109      1.0  0.26564  0.69432  0.52370  1.0000
  C   C481      1.0  0.32625  0.69296  0.95243  1.0000
  H   H840      1.0  0.26810  0.71287  0.80923  1.0000
  H   H841      1.0  0.35960  0.73870  0.92503  1.0000
  H   H842      1.0  0.25798  0.68196  0.10408  1.0000
  H   H843      1.0  0.29137  0.68384  0.53232  1.0000
  H   H844      1.0  0.25906  0.55276  0.79742  1.0000
  H   H845      1.0  0.28759  0.53114  0.78935  1.0000
  H   H846      1.0  0.34656  0.59370  0.99002  1.0000
  C   C482      1.0  0.33892  0.59289  0.06624  1.0000
  H   H847      1.0  0.24701  0.54095  0.83442  1.0000
  C   C483      1.0  0.38547  0.63381  0.14796  1.0000
  H   H848      1.0  0.21495  0.68280  0.89362  1.0000
  C   C484      1.0  0.20046  0.64600  0.25580  1.0000
  H   H849      1.0  0.32854  0.74048  0.07172  1.0000
  S   S110      1.0  0.20583  0.63371  0.08804  1.0000
  N   N27       1.0  0.26543  0.53736  0.82795  1.0000
  H   H850      1.0  0.26725  0.53465  0.88809  1.0000
  H   H851      1.0  0.36380  0.59840  0.02397  1.0000
  H   H852      1.0  0.26829  0.59831  0.63859  1.0000
  C   C485      1.0  0.29705  0.67105  0.49749  1.0000
  C   C486      1.0  0.25774  0.71565  0.86260  1.0000
  H   H853      1.0  0.36858  0.70932  0.34031  1.0000
  H   H854      1.0  0.28460  0.66894  0.59826  1.0000
  H   H855      1.0  0.28039  0.55191  0.78340  1.0000
  H   H856      1.0  0.28864  0.53151  0.83854  1.0000
  C   C487      1.0  0.28891  0.53738  0.80881  1.0000
  H   H857      1.0  0.24343  0.51218  0.41772  1.0000
  H   H858      1.0  0.23827  0.55623  0.86809  1.0000
  C   C488      1.0  0.27882  0.54503  0.81270  1.0000
  H   H859      1.0  0.37046  0.58882  0.94993  1.0000
  H   H860      1.0  0.35615  0.58230  0.50264  1.0000
  C   C489      1.0  0.20331  0.58381  0.42314  1.0000
  H   H861      1.0  0.23477  0.67720  0.24697  1.0000
  H   H862      1.0  0.25457  0.66870  0.98001  1.0000
  C   C490      1.0  0.24785  0.56253  0.85539  1.0000
  C   C491      1.0  0.25761  0.55479  0.85612  1.0000
  C   C492      1.0  0.24886  0.51346  0.93338  1.0000
  C   C493      1.0  0.24962  0.52200  0.89266  1.0000
  C   C494      1.0  0.23895  0.67625  0.45763  1.0000
  C   C495      1.0  0.25562  0.69377  0.45863  1.0000
  S   S111      1.0  0.30988  0.72457  0.57013  1.0000
  H   H863      1.0  0.19371  0.61897  0.25137  1.0000
  H   H864      1.0  0.28140  0.69114  0.41349  1.0000
  H   H865      1.0  0.28094  0.55091  0.83257  1.0000
  H   H866      1.0  0.26869  0.52171  0.86856  1.0000
  H   H867      1.0  0.30910  0.54052  0.78939  1.0000
  C   C496      1.0  0.30202  0.54617  0.79090  1.0000
  H   H868      1.0  0.20574  0.60010  0.53327  1.0000
  H   H869      1.0  0.24545  0.51596  0.87601  1.0000
  C   C497      1.0  0.29434  0.68894  0.45015  1.0000
  H   H870      1.0  0.35916  0.69235  0.47263  1.0000
  C   C498      1.0  0.34242  0.68778  0.09662  1.0000
  H   H871      1.0  0.26691  0.56154  0.84681  1.0000
  H   H872      1.0  0.38354  0.65145  0.11516  1.0000
  C   C499      1.0  0.26344  0.70003  0.06112  1.0000
  S   S112      1.0  0.28575  0.70006  0.59344  1.0000
  H   H873      1.0  0.19434  0.56281  0.90588  1.0000
  H   H874      1.0  0.23174  0.62015  0.34964  1.0000
  H   H875      1.0  0.30306  0.55193  0.76024  1.0000
  S   S113      1.0  0.21223  0.60688  0.43381  1.0000
  C   C500      1.0  0.24982  0.67621  0.98009  1.0000
  S   S114      1.0  0.20152  0.63535  0.46995  1.0000
  C   C501      1.0  0.36080  0.69021  0.53146  1.0000
  C   C502      1.0  0.32856  0.60321  0.11624  1.0000
  C   C503      1.0  0.30167  0.72326  0.76026  1.0000
  C   C504      1.0  0.37380  0.68969  0.90699  1.0000
  C   C505      1.0  0.35852  0.72028  0.51613  1.0000
  H   H876      1.0  0.21119  0.60249  0.22540  1.0000
  H   H877      1.0  0.23555  0.61699  0.30180  1.0000
  H   H878      1.0  0.19158  0.56461  0.50644  1.0000
  C   C506      1.0  0.28863  0.67367  0.53386  1.0000
  H   H879      1.0  0.25250  0.69437  0.12199  1.0000
  H   H880      1.0  0.31323  0.68036  0.42168  1.0000
  H   H881      1.0  0.21387  0.66639  0.89604  1.0000
  H   H882      1.0  0.21483  0.60345  0.34554  1.0000
  H   H883      1.0  0.21891  0.61287  0.26966  1.0000
  H   H884      1.0  0.37906  0.50715  0.52719  1.0000
  C   C507      1.0  0.23071  0.68317  0.98858  1.0000
  H   H885      1.0  0.36642  0.58678  0.28947  1.0000
  S   S115      1.0  0.28201  0.72400  0.66054  1.0000
  H   H886      1.0  0.28664  0.71113  0.43137  1.0000
  H   H887      1.0  0.29876  0.71028  0.05815  1.0000
  Fe  Fe54      1.0  0.28091  0.71890  0.93611  1.0000
  C   C508      1.0  0.19995  0.64300  0.19049  1.0000
  H   H888      1.0  0.33338  0.70538  0.41699  1.0000
  H   H889      1.0  0.35336  0.71196  0.04357  1.0000
  Fe  Fe55      1.0  0.28132  0.70838  0.53607  1.0000
  H   H890      1.0  0.31878  0.58847  0.09746  1.0000
  C   C509      1.0  0.21130  0.61461  0.29179  1.0000
  Fe  Fe56      1.0  0.30434  0.73194  0.51474  1.0000
  H   H891      1.0  0.30688  0.67579  0.49463  1.0000
  C   C510      1.0  0.21557  0.61344  0.33033  1.0000
  H   H892      1.0  0.21989  0.67695  0.23703  1.0000
  C   C511      1.0  0.28117  0.66733  0.46181  1.0000
  H   H893      1.0  0.36694  0.68044  0.91504  1.0000
  H   H894      1.0  0.38771  0.50154  0.34846  1.0000
  C   C512      1.0  0.36669  0.69562  0.48584  1.0000
  C   C513      1.0  0.34369  0.72900  0.00241  1.0000
  H   H895      1.0  0.28396  0.65780  0.41430  1.0000
  H   H896      1.0  0.26143  0.65001  0.45466  1.0000
  C   C514      1.0  0.35823  0.67581  0.54407  1.0000
  C   C515      1.0  0.23017  0.68032  0.22350  1.0000
  H   H897      1.0  0.25929  0.66562  0.43610  1.0000
  H   H898      1.0  0.32662  0.58627  0.98748  1.0000
  H   H899      1.0  0.34617  0.69976  0.93981  1.0000
  H   H900      1.0  0.20980  0.61744  0.35117  1.0000
  H   H901      1.0  0.32552  0.70043  0.92888  1.0000
  H   H902      1.0  0.23280  0.69081  0.21329  1.0000
  H   H903      1.0  0.23876  0.63938  0.11772  1.0000
  H   H904      1.0  0.24768  0.69320  0.40926  1.0000
  S   S116      1.0  0.29294  0.71666  0.97803  1.0000
  H   H905      1.0  0.36692  0.69375  0.54873  1.0000
  H   H906      1.0  0.28739  0.69062  0.47436  1.0000
  H   H907      1.0  0.37621  0.72378  0.34805  1.0000
  C   C516      1.0  0.26487  0.65881  0.42958  1.0000
  H   H908      1.0  0.33854  0.60104  0.04277  1.0000
  H   H909      1.0  0.27386  0.67189  0.47441  1.0000
  H   H910      1.0  0.32155  0.69955  0.03637  1.0000
  H   H911      1.0  0.27900  0.65789  0.48378  1.0000
  N   N28       1.0  0.29403  0.67507  0.45825  1.0000
  Fe  Fe57      1.0  0.30059  0.70465  0.94132  1.0000
  H   H912      1.0  0.29644  0.66074  0.50572  1.0000
  H   H913      1.0  0.24455  0.67844  0.17639  1.0000
  S   S117      1.0  0.28792  0.70605  0.90196  1.0000
  H   H914      1.0  0.35258  0.56699  0.49392  1.0000
  C   C517      1.0  0.23430  0.67484  0.18876  1.0000
  H   H915      1.0  0.37389  0.61348  0.29903  1.0000
  H   H916      1.0  0.33785  0.74195  0.12791  1.0000
  H   H917      1.0  0.35271  0.71075  0.47456  1.0000
  H   H918      1.0  0.22066  0.68115  0.99426  1.0000
  H   H919      1.0  0.30195  0.57664  0.05479  1.0000
  H   H920      1.0  0.23754  0.69486  0.08387  1.0000
  H   H921      1.0  0.21122  0.62467  0.28020  1.0000
  H   H922      1.0  0.35716  0.71229  0.54250  1.0000
  H   H923      1.0  0.25430  0.50630  0.92994  1.0000
  C   C518      1.0  0.30628  0.71866  0.72793  1.0000
  C   C519      1.0  0.20033  0.59456  0.43251  1.0000
  C   C520      1.0  0.25380  0.51526  0.40978  1.0000
  C   C521      1.0  0.37769  0.71258  0.42535  1.0000
  S   S118      1.0  0.37601  0.53911  0.36334  1.0000
  C   C522      1.0  0.31746  0.70778  0.03563  1.0000
  H   H924      1.0  0.31278  0.65936  0.45587  1.0000
  C   C523      1.0  0.19219  0.56925  0.31212  1.0000
  Fe  Fe58      1.0  0.30253  0.72317  0.86177  1.0000
  C   C524      1.0  0.22045  0.67245  0.10161  1.0000
  S   S119      1.0  0.20963  0.64962  0.28780  1.0000
  H   H925      1.0  0.38402  0.71107  0.34721  1.0000
  S   S120      1.0  0.22872  0.65755  0.99460  1.0000
  H   H926      1.0  0.31647  0.53960  0.42259  1.0000
  H   H927      1.0  0.25979  0.70842  0.05170  1.0000
  H   H928      1.0  0.32036  0.72602  0.04570  1.0000
  C   C525      1.0  0.24125  0.65911  0.08621  1.0000
  H   H929      1.0  0.35251  0.67163  0.52668  1.0000
  C   C526      1.0  0.29295  0.70934  0.40569  1.0000
  H   H930      1.0  0.30228  0.69691  0.08864  1.0000
  H   H931      1.0  0.38453  0.67058  0.12727  1.0000
  C   C527      1.0  0.19657  0.55887  0.52383  1.0000
  Fe  Fe59      1.0  0.20701  0.62554  0.42316  1.0000
  H   H932      1.0  0.20479  0.64216  0.16196  1.0000
  Fe  Fe60      1.0  0.30759  0.73326  0.93291  1.0000
  H   H933      1.0  0.30278  0.71402  0.40281  1.0000
  H   H934      1.0  0.28752  0.73172  0.78596  1.0000
  C   C528      1.0  0.33823  0.70005  0.09452  1.0000
  H   H935      1.0  0.33771  0.68219  0.07979  1.0000
  H   H936      1.0  0.37495  0.54337  0.26979  1.0000
  C   C529      1.0  0.18913  0.60862  0.32725  1.0000
  H   H937      1.0  0.19716  0.52867  0.22243  1.0000
  C   C530      1.0  0.19589  0.60956  0.25627  1.0000
  C   C531      1.0  0.22719  0.67808  0.15696  1.0000
  H   H938      1.0  0.27704  0.73200  0.73185  1.0000
  H   H939      1.0  0.32347  0.66551  0.38267  1.0000
  C   C532      1.0  0.21323  0.68294  0.09643  1.0000
  H   H940      1.0  0.24313  0.68469  0.05737  1.0000
  H   H941      1.0  0.34097  0.70336  0.03113  1.0000
  H   H942      1.0  0.35272  0.68976  0.08414  1.0000
  S   S121      1.0  0.20019  0.63037  0.00454  1.0000
  C   C533      1.0  0.34606  0.72234  0.96901  1.0000
  S   S122      1.0  0.37913  0.55662  0.42524  1.0000
  H   H943      1.0  0.19118  0.60629  0.35657  1.0000
  C   C534      1.0  0.36155  0.71654  0.47651  1.0000
  H   H944      1.0  0.21053  0.68586  0.12408  1.0000
  H   H945      1.0  0.38600  0.70854  0.41952  1.0000
  N   N29       1.0  0.23162  0.67513  0.11763  1.0000
  H   H946      1.0  0.29751  0.69388  0.38474  1.0000
  H   H947      1.0  0.19495  0.66999  0.10971  1.0000
  H   H948      1.0  0.37670  0.59422  0.41718  1.0000
  H   H949      1.0  0.38652  0.59226  0.03507  1.0000
  H   H950      1.0  0.21902  0.69139  0.07194  1.0000
  H   H951      1.0  0.19638  0.56597  0.41304  1.0000
  H   H952      1.0  0.35330  0.71702  0.97219  1.0000
  H   H953      1.0  0.38121  0.72296  0.41154  1.0000
  H   H954      1.0  0.33687  0.72277  0.10411  1.0000
  H   H955      1.0  0.38157  0.62867  0.12863  1.0000
  N   N30       1.0  0.33784  0.72067  0.04478  1.0000
  Fe  Fe61      1.0  0.19597  0.61836  0.06728  1.0000
  H   H956      1.0  0.25758  0.50676  0.41141  1.0000
  H   H957      1.0  0.20339  0.67580  0.05720  1.0000
  Fe  Fe62      1.0  0.38277  0.67288  0.39921  1.0000
  H   H958      1.0  0.26825  0.73440  0.82421  1.0000
  Fe  Fe63      1.0  0.36831  0.55492  0.38044  1.0000
  H   H959      1.0  0.37945  0.51229  0.36636  1.0000
  H   H960      1.0  0.25723  0.52152  0.37872  1.0000
  H   H961      1.0  0.21363  0.66357  0.12130  1.0000
  C   C535      1.0  0.23642  0.66334  0.12397  1.0000
  H   H962      1.0  0.38265  0.63862  0.48944  1.0000
  H   H963      1.0  0.20218  0.57628  0.06001  1.0000
  H   H964      1.0  0.36730  0.69731  0.40753  1.0000
  H   H965      1.0  0.19200  0.55693  0.55617  1.0000
  H   H966      1.0  0.21867  0.62178  0.52187  1.0000
  H   H967      1.0  0.38358  0.65536  0.47456  1.0000
  H   H968      1.0  0.35168  0.69263  0.54002  1.0000
  C   C536      1.0  0.20121  0.67835  0.08572  1.0000
  N   N31       1.0  0.37186  0.70975  0.46975  1.0000
  H   H969      1.0  0.19585  0.59987  0.18809  1.0000
  C   C537      1.0  0.38645  0.50211  0.57818  1.0000
  H   H970      1.0  0.18950  0.61892  0.31954  1.0000
  H   H971      1.0  0.38130  0.64734  0.52614  1.0000
  H   H972      1.0  0.38426  0.73428  0.46364  1.0000
  H   H973      1.0  0.34761  0.73335  0.49629  1.0000
  H   H974      1.0  0.36865  0.57579  0.48081  1.0000
  C   C538      1.0  0.38499  0.69032  0.87300  1.0000
  H   H975      1.0  0.33792  0.73568  0.99442  1.0000
  C   C539      1.0  0.37487  0.71337  0.35647  1.0000
  C   C540      1.0  0.19438  0.56030  0.17955  1.0000
  C   C541      1.0  0.38218  0.71380  0.48796  1.0000
  S   S123      1.0  0.19019  0.52949  0.30382  1.0000
  H   H976      1.0  0.35185  0.72955  0.06900  1.0000
  C   C542      1.0  0.18930  0.58789  0.07004  1.0000
  H   H977      1.0  0.38063  0.51902  0.55372  1.0000
  H   H978      1.0  0.38147  0.68906  0.84733  1.0000
  H   H979      1.0  0.19747  0.58896  0.34103  1.0000
  S   S124      1.0  0.38251  0.56266  0.03454  1.0000
  C   C543      1.0  0.34162  0.72811  0.07238  1.0000
  H   H980      1.0  0.34434  0.74374  0.60690  1.0000
  H   H981      1.0  0.38754  0.67682  0.48907  1.0000
  H   H982      1.0  0.38713  0.63877  0.93312  1.0000
  H   H983      1.0  0.38592  0.68019  0.99322  1.0000
  H   H984      1.0  0.20956  0.61161  0.15613  1.0000
  H   H985      1.0  0.33139  0.74266  0.58499  1.0000
  S   S125      1.0  0.19126  0.62750  0.39617  1.0000
  C   C544      1.0  0.19140  0.58266  0.29387  1.0000
  H   H986      1.0  0.20608  0.56235  0.12003  1.0000
  S   S126      1.0  0.19023  0.65172  0.04313  1.0000
  H   H987      1.0  0.34493  0.72808  0.54955  1.0000
  H   H988      1.0  0.19576  0.54971  0.51633  1.0000
  C   C545      1.0  0.38607  0.64783  0.49496  1.0000
  C   C546      1.0  0.35082  0.73183  0.92768  1.0000
  H   H989      1.0  0.32972  0.74151  0.67280  1.0000
  H   H990      1.0  0.19177  0.61248  0.95496  1.0000
  H   H991      1.0  0.31678  0.74031  0.65163  1.0000
  C   C547      1.0  0.33412  0.73988  0.61301  1.0000
  H   H992      1.0  0.38801  0.70473  0.08057  1.0000
  Fe  Fe64      1.0  0.38824  0.54211  0.40394  1.0000
  C   C548      1.0  0.31503  0.78502  0.40769  1.0000
  S   S127      1.0  0.38601  0.81997  0.08848  1.0000
  C   C549      1.0  0.35026  0.83674  0.94389  1.0000
  Fe  Fe65      1.0  0.38189  0.82877  0.36445  1.0000
  S   S128      1.0  0.36863  0.83318  0.41358  1.0000
  S   S129      1.0  0.38179  0.83447  0.29909  1.0000
  C   C550      1.0  0.38232  0.86982  0.24283  1.0000
  H   H993      1.0  0.31844  0.77553  0.72630  1.0000
  Fe  Fe66      1.0  0.36761  0.81348  0.44975  1.0000
  S   S130      1.0  0.34856  0.80020  0.48742  1.0000
  C   C551      1.0  0.34279  0.74774  0.09683  1.0000
  S   S131      1.0  0.38016  0.80895  0.39947  1.0000
  Fe  Fe67      1.0  0.36928  0.80476  0.12724  1.0000
  S   S132      1.0  0.35645  0.81140  0.09162  1.0000
  S   S133      1.0  0.36691  0.79809  0.19445  1.0000
  H   H994      1.0  0.31181  0.75418  0.01930  1.0000
  S   S134      1.0  0.37796  0.81294  0.01034  1.0000
  H   H995      1.0  0.37665  0.80684  0.31422  1.0000
  Fe  Fe68      1.0  0.37391  0.82567  0.04966  1.0000
  S   S135      1.0  0.37549  0.84660  0.02255  1.0000
  Fe  Fe69      1.0  0.36136  0.79807  0.05456  1.0000
  S   S136      1.0  0.34548  0.78409  0.04318  1.0000
  H   H996      1.0  0.32390  0.78398  0.21946  1.0000
  S   S137      1.0  0.37313  0.79069  0.09295  1.0000
  H   H997      1.0  0.37163  0.83375  0.89287  1.0000
  H   H998      1.0  0.38402  0.77795  0.15939  1.0000
  S   S138      1.0  0.31847  0.74895  0.46693  1.0000
  H   H999      1.0  0.29492  0.77897  0.41655  1.0000
  C   C552      1.0  0.31308  0.76574  0.73058  1.0000
  H   H1000     1.0  0.34695  0.77279  0.30284  1.0000
  C   C553      1.0  0.34438  0.76961  0.33587  1.0000
  S   S139      1.0  0.32281  0.74779  0.94534  1.0000
  H   H1001     1.0  0.32968  0.76229  0.60046  1.0000
  C   C554      1.0  0.32943  0.75933  0.63238  1.0000
  H   H1002     1.0  0.28560  0.75184  0.63577  1.0000
  H   H1003     1.0  0.32987  0.76076  0.70347  1.0000
  H   H1004     1.0  0.38144  0.87386  0.99532  1.0000
  H   H1005     1.0  0.30178  0.75225  0.67608  1.0000
  H   H1006     1.0  0.31649  0.78243  0.29061  1.0000
  H   H1007     1.0  0.33315  0.80110  0.28985  1.0000
  H   H1008     1.0  0.30511  0.74899  0.78132  1.0000
  H   H1009     1.0  0.32127  0.79197  0.41685  1.0000
  C   C555      1.0  0.32017  0.75968  0.70048  1.0000
  H   H1010     1.0  0.36937  0.84077  0.12406  1.0000
  H   H1011     1.0  0.35072  0.82498  0.36249  1.0000
  H   H1012     1.0  0.34033  0.78998  0.38847  1.0000
  H   H1013     1.0  0.31220  0.76733  0.58745  1.0000
  H   H1014     1.0  0.29146  0.75715  0.58223  1.0000
  H   H1015     1.0  0.37916  0.84856  0.81568  1.0000
  H   H1016     1.0  0.33465  0.80541  0.56271  1.0000
  H   H1017     1.0  0.34840  0.82782  0.93523  1.0000
  Fe  Fe70      1.0  0.38534  0.84014  0.43501  1.0000
  H   H1018     1.0  0.37509  0.78086  0.01330  1.0000
  H   H1019     1.0  0.32414  0.76660  0.34921  1.0000
  N   N32       1.0  0.32045  0.76480  0.65731  1.0000
  H   H1020     1.0  0.35214  0.75333  0.33528  1.0000
  H   H1021     1.0  0.37712  0.83920  0.22303  1.0000
  H   H1022     1.0  0.35093  0.79380  0.34077  1.0000
  H   H1023     1.0  0.34371  0.74761  0.03664  1.0000
  C   C556      1.0  0.32982  0.78974  0.23306  1.0000
  C   C557      1.0  0.33378  0.80028  0.59398  1.0000
  H   H1024     1.0  0.36839  0.84880  0.87846  1.0000
  H   H1025     1.0  0.33459  0.78128  0.65302  1.0000
  C   C558      1.0  0.33943  0.77413  0.01512  1.0000
  C   C559      1.0  0.34682  0.77267  0.98011  1.0000
  C   C560      1.0  0.34160  0.76467  0.95929  1.0000
  C   C561      1.0  0.32890  0.75792  0.97289  1.0000
  C   C562      1.0  0.32156  0.75925  0.00813  1.0000
  C   C563      1.0  0.32677  0.76728  0.02887  1.0000
  H   H1026     1.0  0.35655  0.77779  0.96888  1.0000
  H   H1027     1.0  0.34744  0.76375  0.93223  1.0000
  H   H1028     1.0  0.37949  0.86651  0.88943  1.0000
  H   H1029     1.0  0.32090  0.76823  0.05582  1.0000
  H   H1030     1.0  0.30781  0.75065  0.60899  1.0000
  C   C564      1.0  0.31869  0.78739  0.36166  1.0000
  C   C565      1.0  0.32747  0.78632  0.60194  1.0000
  C   C566      1.0  0.38461  0.85540  0.12578  1.0000
  H   H1031     1.0  0.31830  0.78592  0.59549  1.0000
  H   H1032     1.0  0.36542  0.84975  0.95142  1.0000
  H   H1033     1.0  0.32811  0.79934  0.22728  1.0000
  C   C567      1.0  0.34072  0.78555  0.48251  1.0000
  C   C568      1.0  0.32818  0.78011  0.50494  1.0000
  C   C569      1.0  0.32153  0.76853  0.50228  1.0000
  C   C570      1.0  0.32726  0.76228  0.47653  1.0000
  C   C571      1.0  0.33982  0.76772  0.45398  1.0000
  C   C572      1.0  0.34654  0.77922  0.45715  1.0000
  H   H1034     1.0  0.32347  0.78507  0.52378  1.0000
  H   H1035     1.0  0.31574  0.74934  0.71134  1.0000
  H   H1036     1.0  0.34434  0.76306  0.43368  1.0000
  H   H1037     1.0  0.35618  0.78325  0.43970  1.0000
  C   C573      1.0  0.37733  0.82401  0.27138  1.0000
  C   C574      1.0  0.37587  0.82912  0.23365  1.0000
  C   C575      1.0  0.37271  0.82132  0.20978  1.0000
  C   C576      1.0  0.37086  0.80825  0.22362  1.0000
  C   C577      1.0  0.37221  0.80308  0.26158  1.0000
  C   C578      1.0  0.37550  0.81091  0.28529  1.0000
  H   H1038     1.0  0.31156  0.78042  0.35548  1.0000
  H   H1039     1.0  0.37164  0.82539  0.18077  1.0000
  H   H1040     1.0  0.37079  0.79297  0.27259  1.0000
  H   H1041     1.0  0.33975  0.79047  0.21840  1.0000
  C   C579      1.0  0.37261  0.84314  0.89911  1.0000
  C   C580      1.0  0.31148  0.75849  0.77371  1.0000
  H   H1042     1.0  0.38621  0.86223  0.92876  1.0000
  H   H1043     1.0  0.38035  0.87327  0.12849  1.0000
  H   H1044     1.0  0.31905  0.78331  0.66359  1.0000
  H   H1045     1.0  0.30732  0.76362  0.79430  1.0000
  H   H1046     1.0  0.37977  0.87915  0.18710  1.0000
  H   H1047     1.0  0.32834  0.77391  0.28166  1.0000
  H   H1048     1.0  0.30217  0.76845  0.66122  1.0000
  C   C581      1.0  0.30580  0.75967  0.61295  1.0000
  C   C582      1.0  0.29247  0.75931  0.61029  1.0000
  H   H1049     1.0  0.31723  0.79675  0.34805  1.0000
  C   C583      1.0  0.32661  0.78346  0.27784  1.0000
  S   S140      1.0  0.38319  0.82076  0.47535  1.0000
  H   H1050     1.0  0.33918  0.76314  0.63295  1.0000
  H   H1051     1.0  0.37243  0.86850  0.25959  1.0000
  H   H1052     1.0  0.37827  0.76986  0.98507  1.0000
  H   H1053     1.0  0.34534  0.81328  0.31634  1.0000
  H   H1054     1.0  0.33351  0.78264  0.58076  1.0000
  H   H1055     1.0  0.35305  0.74934  0.09217  1.0000
  H   H1056     1.0  0.35218  0.77415  0.34593  1.0000
  H   H1057     1.0  0.33578  0.75036  0.33740  1.0000
  H   H1058     1.0  0.36440  0.85238  0.14722  1.0000
  H   H1059     1.0  0.34334  0.80140  0.59795  1.0000
  H   H1060     1.0  0.31545  0.77541  0.42282  1.0000
  H   H1061     1.0  0.29934  0.78430  0.45637  1.0000
  H   H1062     1.0  0.36605  0.83340  0.96355  1.0000
  C   C584      1.0  0.37139  0.85097  0.12247  1.0000
  H   H1063     1.0  0.34445  0.83502  0.97496  1.0000
  H   H1064     1.0  0.34645  0.81065  0.40277  1.0000
  C   C585      1.0  0.35017  0.81470  0.36990  1.0000
  C   C586      1.0  0.32549  0.77897  0.64586  1.0000
  C   C587      1.0  0.30168  0.78609  0.42345  1.0000
  H   H1065     1.0  0.30076  0.79570  0.41016  1.0000
  C   C588      1.0  0.36407  0.84099  0.94179  1.0000
  C   C589      1.0  0.38327  0.87093  0.19890  1.0000
  H   H1066     1.0  0.32063  0.75746  0.77851  1.0000
  C   C590      1.0  0.34166  0.80837  0.34876  1.0000
  H   H1067     1.0  0.37343  0.76465  0.03913  1.0000
  H   H1068     1.0  0.33049  0.76946  0.38770  1.0000
  C   C591      1.0  0.30727  0.76135  0.65368  1.0000
  H   H1069     1.0  0.34461  0.79249  0.28319  1.0000
  C   C592      1.0  0.37906  0.77254  0.01258  1.0000
  H   H1070     1.0  0.34066  0.75168  0.38131  1.0000
  H   H1071     1.0  0.32819  0.80463  0.61421  1.0000
  H   H1072     1.0  0.34744  0.84415  0.92401  1.0000
  H   H1073     1.0  0.34045  0.75705  0.09270  1.0000
  H   H1074     1.0  0.33228  0.80993  0.35975  1.0000
  H   H1075     1.0  0.31178  0.76471  0.51877  1.0000
  H   H1076     1.0  0.30366  0.76597  0.72685  1.0000
  H   H1077     1.0  0.35975  0.81343  0.36020  1.0000
  N   N33       1.0  0.33169  0.78643  0.34268  1.0000
  C   C593      1.0  0.34138  0.79414  0.35629  1.0000
  C   C594      1.0  0.33204  0.77276  0.35496  1.0000
  C   C595      1.0  0.33455  0.79139  0.29798  1.0000
  C   C596      1.0  0.34313  0.75537  0.34829  1.0000
  H   H1078     1.0  0.29034  0.76858  0.61026  1.0000
  H   H1079     1.0  0.38435  0.86402  0.82096  1.0000
  H   H1080     1.0  0.38602  0.84061  0.95186  1.0000
  H   H1081     1.0  0.38490  0.85077  0.15614  1.0000
  H   H1082     1.0  0.38574  0.89367  0.11328  1.0000
  H   H1083     1.0  0.37043  0.85624  0.09357  1.0000
  N   N34       1.0  0.38626  0.84953  0.89134  1.0000
  H   H1084     1.0  0.38556  0.86154  0.25623  1.0000
  H   H1085     1.0  0.37683  0.86237  0.19770  1.0000
  C   C597      1.0  0.38733  0.86265  0.89672  1.0000
  C   C598      1.0  0.38745  0.85553  0.81617  1.0000
  C   C599      1.0  0.32685  0.74473  0.64529  1.0000
  H   H1086     1.0  0.38802  0.87850  0.24614  1.0000
  S   S141      1.0  0.54722  0.10399  0.50380  1.0000
  H   H1087     1.0  0.50523  0.05990  0.10242  1.0000
  Fe  Fe71      1.0  0.50912  0.04978  0.42337  1.0000
  S   S142      1.0  0.52295  0.04585  0.37464  1.0000
  S   S143      1.0  0.51190  0.07021  0.42860  1.0000
  Fe  Fe72      1.0  0.49354  0.02181  0.45187  1.0000
  S   S144      1.0  0.50654  0.01630  0.40589  1.0000
  S   S145      1.0  0.47809  0.00639  0.50057  1.0000
  Fe  Fe73      1.0  0.52171  0.02830  0.42126  1.0000
  S   S146      1.0  0.53863  0.02145  0.42840  1.0000
  Fe  Fe74      1.0  0.50650  0.03420  0.36257  1.0000
  S   S147      1.0  0.50924  0.03220  0.29931  1.0000
  S   S148      1.0  0.50892  0.03270  0.47084  1.0000
  S   S149      1.0  0.49242  0.03935  0.40787  1.0000
  H   H1088     1.0  0.52743  0.04955  0.23252  1.0000
  Fe  Fe75      1.0  0.49047  0.02710  0.10680  1.0000
  S   S150      1.0  0.48525  0.03266  0.04876  1.0000
  S   S151      1.0  0.48043  0.02954  0.16639  1.0000
  Fe  Fe76      1.0  0.51264  0.01883  0.06862  1.0000
  S   S152      1.0  0.50946  0.02382  0.00848  1.0000
  S   S153      1.0  0.52881  0.01037  0.07495  1.0000
  Fe  Fe77      1.0  0.50593  0.04174  0.02157  1.0000
  S   S154      1.0  0.51554  0.05990  0.97057  1.0000
  Fe  Fe78      1.0  0.48912  0.01422  0.03943  1.0000
  H   H1089     1.0  0.58383  0.01810  0.40702  1.0000
  S   S155      1.0  0.51070  0.03737  0.07964  1.0000
  S   S156      1.0  0.49277  0.00813  0.09948  1.0000
  S   S157      1.0  0.54494  0.11434  0.97279  1.0000
  C   C600      1.0  0.52377  0.07492  0.97193  1.0000
  C   C601      1.0  0.53121  0.08381  0.93596  1.0000
  C   C602      1.0  0.53779  0.09587  0.93554  1.0000
  C   C603      1.0  0.53688  0.09927  0.97115  1.0000
  C   C604      1.0  0.52939  0.09040  0.00707  1.0000
  C   C605      1.0  0.52296  0.07828  0.00754  1.0000
  H   H1090     1.0  0.53181  0.08139  0.90814  1.0000
  H   H1091     1.0  0.54340  0.10260  0.90761  1.0000
  H   H1092     1.0  0.52844  0.09297  0.03468  1.0000
  H   H1093     1.0  0.51720  0.07163  0.03532  1.0000
  C   C606      1.0  0.53989  0.02055  0.08798  1.0000
  C   C607      1.0  0.53618  0.02908  0.10822  1.0000
  C   C608      1.0  0.56160  0.03014  0.08136  1.0000
  C   C609      1.0  0.55259  0.02077  0.07583  1.0000
  H   H1094     1.0  0.52639  0.02845  0.11994  1.0000
  H   H1095     1.0  0.57141  0.03054  0.07068  1.0000
  H   H1096     1.0  0.55547  0.01391  0.06124  1.0000
  Fe  Fe79      1.0  0.57426  0.15880  0.90577  1.0000
  H   H1097     1.0  0.58461  0.17586  0.49728  1.0000
  S   S158      1.0  0.48127  0.00166  0.00278  1.0000
  H   H1098     1.0  0.57353  0.08720  0.37061  1.0000
  C   C610      1.0  0.54603  0.09062  0.62566  1.0000
  C   C611      1.0  0.57245  0.09556  0.43381  1.0000
  H   H1099     1.0  0.55674  0.15688  0.61259  1.0000
  C   C612      1.0  0.57948  0.09535  0.99081  1.0000
  H   H1100     1.0  0.57975  0.09817  0.52154  1.0000
  H   H1101     1.0  0.53632  0.08191  0.08942  1.0000
  C   C613      1.0  0.50073  0.03142  0.26367  1.0000
  C   C614      1.0  0.48939  0.03489  0.26666  1.0000
  C   C615      1.0  0.48327  0.03436  0.23657  1.0000
  C   C616      1.0  0.48850  0.03050  0.20313  1.0000
  C   C617      1.0  0.49988  0.02717  0.20010  1.0000
  C   C618      1.0  0.50585  0.02746  0.23043  1.0000
  H   H1102     1.0  0.48539  0.03806  0.29188  1.0000
  H   H1103     1.0  0.47450  0.03704  0.23903  1.0000
  H   H1104     1.0  0.50399  0.02413  0.17467  1.0000
  H   H1105     1.0  0.51453  0.02459  0.22805  1.0000
  C   C619      1.0  0.54877  0.03280  0.44047  1.0000
  C   C620      1.0  0.54599  0.04430  0.44292  1.0000
  C   C621      1.0  0.55448  0.05344  0.45127  1.0000
  C   C622      1.0  0.46650  0.01876  0.38414  1.0000
  C   C623      1.0  0.56822  0.03941  0.45609  1.0000
  C   C624      1.0  0.55984  0.03035  0.44730  1.0000
  H   H1106     1.0  0.53738  0.04623  0.43800  1.0000
  H   H1107     1.0  0.57656  0.03729  0.46253  1.0000
  H   H1108     1.0  0.56202  0.02151  0.44525  1.0000
  H   H1109     1.0  0.45201  0.01038  0.20350  1.0000
  C   C625      1.0  0.55786  0.03921  0.09926  1.0000
  H   H1110     1.0  0.43189  0.00000  0.00607  1.0000
  C   C626      1.0  0.55780  0.13420  0.75504  1.0000
  H   H1111     1.0  0.57463  0.12773  0.33888  1.0000
  H   H1112     1.0  0.57585  0.17242  0.57394  1.0000
  H   H1113     1.0  0.56697  0.08803  0.82400  1.0000
  H   H1114     1.0  0.42954  0.00066  0.88744  1.0000
  H   H1115     1.0  0.44091  0.01249  0.84826  1.0000
  C   C627      1.0  0.57454  0.14762  0.69808  1.0000
  H   H1116     1.0  0.55554  0.00816  0.60296  1.0000
  H   H1117     1.0  0.57896  0.05781  0.28725  1.0000
  C   C628      1.0  0.53711  0.09471  0.48338  1.0000
  C   C629      1.0  0.53627  0.08165  0.49078  1.0000
  C   C630      1.0  0.52869  0.07401  0.47433  1.0000
  C   C631      1.0  0.52171  0.07930  0.45037  1.0000
  C   C632      1.0  0.52240  0.09232  0.44362  1.0000
  C   C633      1.0  0.53003  0.09997  0.45986  1.0000
  H   H1118     1.0  0.54167  0.07740  0.50891  1.0000
  H   H1119     1.0  0.52827  0.06402  0.48006  1.0000
  H   H1120     1.0  0.51701  0.09654  0.42540  1.0000
  H   H1121     1.0  0.53047  0.10995  0.45395  1.0000
  H   H1122     1.0  0.57437  0.19685  0.55888  1.0000
  H   H1123     1.0  0.55940  0.09077  0.96126  1.0000
  C   C634      1.0  0.54608  0.10082  0.08341  1.0000
  C   C635      1.0  0.55987  0.03732  0.31561  1.0000
  H   H1124     1.0  0.52675  0.09027  0.14939  1.0000
  H   H1125     1.0  0.58457  0.18458  0.04021  1.0000
  H   H1126     1.0  0.55543  0.03656  0.34742  1.0000
  H   H1127     1.0  0.54913  0.05007  0.22956  1.0000
  C   C636      1.0  0.56962  0.14143  0.67278  1.0000
  C   C637      1.0  0.51476  0.00172  0.93919  1.0000
  C   C638      1.0  0.51942  0.06459  0.15337  1.0000
  C   C639      1.0  0.56835  0.09465  0.93726  1.0000
  C   C640      1.0  0.51000  0.07185  0.13985  1.0000
  C   C641      1.0  0.54008  0.00782  0.55547  1.0000
  H   H1128     1.0  0.57943  0.08545  0.99038  1.0000
  H   H1129     1.0  0.51296  0.06348  0.29765  1.0000
  H   H1130     1.0  0.49441  0.05569  0.15159  1.0000
  C   C642      1.0  0.58009  0.03999  0.19587  1.0000
  C   C643      1.0  0.53372  0.05050  0.20304  1.0000
  H   H1131     1.0  0.49523  0.00057  0.21902  1.0000
  H   H1132     1.0  0.53802  0.05911  0.06849  1.0000
  H   H1133     1.0  0.57193  0.21916  0.54363  1.0000
  C   C644      1.0  0.55966  0.07208  0.87705  1.0000
  H   H1134     1.0  0.55201  0.10613  0.09805  1.0000
  H   H1135     1.0  0.46930  0.02801  0.36109  1.0000
  H   H1136     1.0  0.45623  0.01623  0.39801  1.0000
  C   C645      1.0  0.58544  0.18925  0.00949  1.0000
  C   C646      1.0  0.53442  0.09576  0.62650  1.0000
  H   H1137     1.0  0.45527  0.00234  0.86308  1.0000
  C   C647      1.0  0.55470  0.99678  0.52245  1.0000
  H   H1138     1.0  0.49446  0.06935  0.11394  1.0000
  H   H1139     1.0  0.50603  0.99809  0.89314  1.0000
  C   C648      1.0  0.43656  0.00215  0.85882  1.0000
  C   C649      1.0  0.46338  0.00627  0.33457  1.0000
  H   H1140     1.0  0.51337  0.01441  0.88574  1.0000
  H   H1141     1.0  0.46832  0.99991  0.39095  1.0000
  H   H1142     1.0  0.57205  0.08684  0.92907  1.0000
  H   H1143     1.0  0.53282  0.02055  0.30161  1.0000
  C   C650      1.0  0.56935  0.21823  0.57618  1.0000
  C   C651      1.0  0.57830  0.10232  0.46101  1.0000
  S   S159      1.0  0.57693  0.06294  0.46337  1.0000
  Fe  Fe80      1.0  0.55583  0.12270  0.51564  1.0000
  C   C652      1.0  0.54473  0.04523  0.21049  1.0000
  C   C653      1.0  0.57641  0.02570  0.56484  1.0000
  C   C654      1.0  0.53807  0.02709  0.31465  1.0000
  H   H1144     1.0  0.55165  0.10201  0.05243  1.0000
  H   H1145     1.0  0.55565  0.07804  0.89467  1.0000
  S   S160      1.0  0.55159  0.12454  0.65683  1.0000
  C   C655      1.0  0.56755  0.19680  0.47284  1.0000
  H   H1146     1.0  0.57072  0.09452  0.01387  1.0000
  C   C656      1.0  0.57907  0.03536  0.26940  1.0000
  H   H1147     1.0  0.50306  0.10957  0.64788  1.0000
  H   H1148     1.0  0.57028  0.11987  0.41204  1.0000
  H   H1149     1.0  0.57383  0.10996  0.46674  1.0000
  C   C657      1.0  0.54887  0.00303  0.98899  1.0000
  H   H1150     1.0  0.55144  0.09190  0.59441  1.0000
  H   H1151     1.0  0.58723  0.11886  0.61788  1.0000
  S   S161      1.0  0.55911  0.17096  0.48897  1.0000
  C   C658      1.0  0.57712  0.05328  0.35028  1.0000
  H   H1152     1.0  0.53313  0.08453  0.23092  1.0000
  H   H1153     1.0  0.54333  0.06404  0.14693  1.0000
  C   C659      1.0  0.53393  0.08470  0.14983  1.0000
  H   H1154     1.0  0.51608  0.99544  0.30709  1.0000
  H   H1155     1.0  0.57127  0.10019  0.33713  1.0000
  C   C660      1.0  0.57047  0.08081  0.84213  1.0000
  H   H1156     1.0  0.53714  0.03673  0.30180  1.0000
  H   H1157     1.0  0.53382  0.06842  0.24909  1.0000
  H   H1158     1.0  0.58279  0.00856  0.04285  1.0000
  Fe  Fe81      1.0  0.55940  0.13137  0.58943  1.0000
  H   H1159     1.0  0.57091  0.02819  0.59048  1.0000
  H   H1160     1.0  0.55575  0.07199  0.36352  1.0000
  S   S162      1.0  0.57217  0.12755  0.87092  1.0000
  H   H1161     1.0  0.45880  0.01388  0.26109  1.0000
  H   H1162     1.0  0.56894  0.04735  0.23703  1.0000
  H   H1163     1.0  0.52148  0.13104  0.52549  1.0000
  H   H1164     1.0  0.50497  0.08192  0.66105  1.0000
  H   H1165     1.0  0.56921  0.02475  0.99722  1.0000
  H   H1166     1.0  0.56651  0.10038  0.91063  1.0000
  H   H1167     1.0  0.55314  0.13143  0.78667  1.0000
  H   H1168     1.0  0.54193  0.16015  0.57157  1.0000
  H   H1169     1.0  0.55850  0.19714  0.46812  1.0000
  H   H1170     1.0  0.58082  0.17922  0.67570  1.0000
  Fe  Fe82      1.0  0.58742  0.13818  0.88977  1.0000
  H   H1171     1.0  0.54220  0.04540  0.12716  1.0000
  C   C661      1.0  0.52749  0.07461  0.24320  1.0000
  N   N35       1.0  0.52794  0.07112  0.17352  1.0000
  C   C662      1.0  0.55175  0.02655  0.30501  1.0000
  C   C663      1.0  0.56865  0.18434  0.72066  1.0000
  C   C664      1.0  0.56621  0.11328  0.39664  1.0000
  C   C665      1.0  0.56529  0.12168  0.35715  1.0000
  C   C666      1.0  0.55458  0.08877  0.38385  1.0000
  C   C667      1.0  0.57199  0.19587  0.59152  1.0000
  C   C668      1.0  0.56307  0.20448  0.59999  1.0000
  H   H1172     1.0  0.49525  0.08944  0.63705  1.0000
  C   C669      1.0  0.55674  0.13039  0.36558  1.0000
  C   C670      1.0  0.55854  0.13188  0.68826  1.0000
  H   H1173     1.0  0.57444  0.11122  0.95508  1.0000
  Fe  Fe83      1.0  0.58156  0.13707  0.51700  1.0000
  Fe  Fe84      1.0  0.57141  0.14667  0.83665  1.0000
  C   C671      1.0  0.51264  0.12768  0.55012  1.0000
  H   H1174     1.0  0.49986  0.08921  0.57241  1.0000
  C   C672      1.0  0.50569  0.07206  0.58925  1.0000
  H   H1175     1.0  0.47114  0.01964  0.40792  1.0000
  H   H1176     1.0  0.55657  0.10866  0.41618  1.0000
  C   C673      1.0  0.58491  0.00623  0.01479  1.0000
  H   H1177     1.0  0.56141  0.11594  0.33924  1.0000
  H   H1178     1.0  0.52399  0.00153  0.00450  1.0000
  S   S163      1.0  0.56815  0.11905  0.55625  1.0000
  H   H1179     1.0  0.54899  0.09589  0.38105  1.0000
  C   C674      1.0  0.50049  0.06366  0.12609  1.0000
  C   C675      1.0  0.50862  0.11325  0.56322  1.0000
  C   C676      1.0  0.50594  0.10129  0.66310  1.0000
  H   H1180     1.0  0.57649  0.08737  0.43197  1.0000
  H   H1181     1.0  0.51504  0.08967  0.54404  1.0000
  C   C677      1.0  0.50489  0.09098  0.64058  1.0000
  H   H1182     1.0  0.51403  0.13138  0.57549  1.0000
  H   H1183     1.0  0.56034  0.13659  0.38283  1.0000
  H   H1184     1.0  0.55631  0.13645  0.33701  1.0000
  H   H1185     1.0  0.54710  0.12475  0.38277  1.0000
  Fe  Fe85      1.0  0.56185  0.15127  0.51250  1.0000
  H   H1186     1.0  0.57511  0.16590  0.62460  1.0000
  H   H1187     1.0  0.52489  0.06244  0.12689  1.0000
  H   H1188     1.0  0.52954  0.09424  0.65830  1.0000
  H   H1189     1.0  0.46655  0.01525  0.31021  1.0000
  H   H1190     1.0  0.48752  0.09312  0.70598  1.0000
  C   C678      1.0  0.52574  0.08877  0.60629  1.0000
  H   H1191     1.0  0.52321  0.01582  0.51535  1.0000
  H   H1192     1.0  0.53775  0.10602  0.61127  1.0000
  H   H1193     1.0  0.49811  0.10402  0.72075  1.0000
  C   C679      1.0  0.53815  0.06437  0.17682  1.0000
  N   N36       1.0  0.56722  0.18206  0.61428  1.0000
  H   H1194     1.0  0.58205  0.08589  0.49768  1.0000
  H   H1195     1.0  0.51445  0.06880  0.58525  1.0000
  H   H1196     1.0  0.50024  0.06845  0.62114  1.0000
  H   H1197     1.0  0.46855  0.00586  0.23402  1.0000
  H   H1198     1.0  0.56196  0.02508  0.53523  1.0000
  H   H1199     1.0  0.55182  0.08311  0.41535  1.0000
  H   H1200     1.0  0.53793  0.10489  0.08166  1.0000
  H   H1201     1.0  0.53162  0.08876  0.57688  1.0000
  H   H1202     1.0  0.53383  0.02425  0.34742  1.0000
  H   H1203     1.0  0.49953  0.11020  0.58656  1.0000
  H   H1204     1.0  0.50530  0.13150  0.53919  1.0000
  C   C680      1.0  0.49812  0.06615  0.56475  1.0000
  S   S164      1.0  0.57472  0.15287  0.76904  1.0000
  C   C681      1.0  0.51870  0.10748  0.57832  1.0000
  H   H1205     1.0  0.50630  0.00359  0.95678  1.0000
  H   H1206     1.0  0.58245  0.00653  0.37916  1.0000
  C   C682      1.0  0.58416  0.06663  0.34694  1.0000
  C   C683      1.0  0.56863  0.14410  0.73927  1.0000
  H   H1207     1.0  0.48067  0.01165  0.35214  1.0000
  S   S165      1.0  0.58777  0.15698  0.85211  1.0000
  C   C684      1.0  0.50875  0.08669  0.57506  1.0000
  C   C685      1.0  0.49742  0.09635  0.70582  1.0000
  H   H1208     1.0  0.49644  0.05571  0.57448  1.0000
  C   C686      1.0  0.55560  0.17685  0.60319  1.0000
  H   H1209     1.0  0.52280  0.07874  0.62463  1.0000
  H   H1210     1.0  0.54133  0.03497  0.22598  1.0000
  H   H1211     1.0  0.56045  0.00559  0.49981  1.0000
  C   C687      1.0  0.57646  0.03342  0.97874  1.0000
  H   H1212     1.0  0.57436  0.14408  0.64128  1.0000
  H   H1213     1.0  0.53991  0.01384  0.57633  1.0000
  H   H1214     1.0  0.57863  0.19583  0.36161  1.0000
  C   C688      1.0  0.51903  0.01091  0.54762  1.0000
  H   H1215     1.0  0.55185  0.04649  0.18210  1.0000
  H   H1216     1.0  0.54798  0.18131  0.61357  1.0000
  H   H1217     1.0  0.57965  0.04668  0.37336  1.0000
  H   H1218     1.0  0.54038  0.08927  0.16461  1.0000
  C   C689      1.0  0.54173  0.08680  0.10617  1.0000
  S   S166      1.0  0.57512  0.14033  0.94490  1.0000
  H   H1219     1.0  0.54623  0.15967  0.65343  1.0000
  H   H1220     1.0  0.54534  0.06970  0.18765  1.0000
  S   S167      1.0  0.57023  0.14003  0.47335  1.0000
  N   N37       1.0  0.54887  0.99938  0.56112  1.0000
  S   S168      1.0  0.55754  0.14955  0.88818  1.0000
  H   H1221     1.0  0.51494  0.08036  0.11447  1.0000
  S   S169      1.0  0.58747  0.24336  0.05549  1.0000
  C   C690      1.0  0.56365  0.17998  0.65887  1.0000
  C   C691      1.0  0.55091  0.07976  0.35982  1.0000
  C   C692      1.0  0.52016  0.07083  0.21416  1.0000
  H   H1222     1.0  0.48483  0.99900  0.31466  1.0000
  H   H1223     1.0  0.52865  0.04456  0.18795  1.0000
  H   H1224     1.0  0.48893  0.06857  0.56887  1.0000
  H   H1225     1.0  0.55239  0.06784  0.86439  1.0000
  H   H1226     1.0  0.54421  0.12073  0.74188  1.0000
  H   H1227     1.0  0.52396  0.07613  0.30396  1.0000
  H   H1228     1.0  0.57308  0.21177  0.38554  1.0000
  Fe  Fe86      1.0  0.55947  0.13076  0.92376  1.0000
  H   H1229     1.0  0.57155  0.08414  0.07397  1.0000
  C   C693      1.0  0.55275  0.12817  0.72956  1.0000
  C   C694      1.0  0.53883  0.15809  0.60454  1.0000
  H   H1230     1.0  0.51556  0.10477  0.66455  1.0000
  C   C695      1.0  0.57274  0.23018  0.35319  1.0000
  C   C696      1.0  0.51855  0.07340  0.28360  1.0000
  H   H1231     1.0  0.55869  0.04645  0.29876  1.0000
  H   H1232     1.0  0.56712  0.22668  0.33440  1.0000
  C   C697      1.0  0.57995  0.09022  0.07726  1.0000
  H   H1233     1.0  0.50030  0.08841  0.72313  1.0000
  S   S170      1.0  0.56883  0.05184  0.10297  1.0000
  H   H1234     1.0  0.51371  0.06130  0.22963  1.0000
  H   H1235     1.0  0.55243  0.06239  0.45260  1.0000
  H   H1236     1.0  0.51385  0.07727  0.21111  1.0000
  N   N38       1.0  0.51449  0.09364  0.60083  1.0000
  S   S171      1.0  0.57888  0.17924  0.91082  1.0000
  S   S172      1.0  0.57402  0.14910  0.55353  1.0000
  H   H1237     1.0  0.51386  0.05516  0.17360  1.0000
  C   C698      1.0  0.54984  0.16235  0.62046  1.0000
  S   S173      1.0  0.54629  0.13422  0.55132  1.0000
  H   H1238     1.0  0.55487  0.02735  0.27272  1.0000
  H   H1239     1.0  0.54363  0.01462  0.52508  1.0000
  C   C699      1.0  0.58309  0.18784  0.94440  1.0000
  C   C700      1.0  0.58309  0.17308  0.39767  1.0000
  H   H1240     1.0  0.57365  0.21705  0.46243  1.0000
  H   H1241     1.0  0.55021  0.08320  0.10577  1.0000
  H   H1242     1.0  0.57635  0.18739  0.73351  1.0000
  H   H1243     1.0  0.52242  0.11326  0.59636  1.0000
  C   C701      1.0  0.57787  0.10282  0.95096  1.0000
  H   H1244     1.0  0.43650  0.00148  0.79836  1.0000
  H   H1245     1.0  0.51211  0.07968  0.28014  1.0000
  H   H1246     1.0  0.55545  0.18382  0.66844  1.0000
  H   H1247     1.0  0.50912  0.00605  0.55215  1.0000
  C   C702      1.0  0.44969  0.00237  0.23084  1.0000
  C   C703      1.0  0.57655  0.09299  0.50134  1.0000
  H   H1248     1.0  0.53136  0.16295  0.61291  1.0000
  H   H1249     1.0  0.58780  0.20584  0.90022  1.0000
  C   C704      1.0  0.58001  0.22071  0.36738  1.0000
  C   C705      1.0  0.58233  0.18194  0.98403  1.0000
  H   H1250     1.0  0.58256  0.01983  0.57513  1.0000
  C   C706      1.0  0.57683  0.17496  0.60154  1.0000
  H   H1251     1.0  0.57839  0.05292  0.95130  1.0000
  C   C707      1.0  0.57618  0.20813  0.46910  1.0000
  C   C708      1.0  0.57042  0.18504  0.48348  1.0000
  H   H1252     1.0  0.48145  0.00728  0.27225  1.0000
  H   H1253     1.0  0.56246  0.09135  0.45045  1.0000
  H   H1254     1.0  0.55446  0.20173  0.59094  1.0000
  H   H1255     1.0  0.54337  0.08044  0.64215  1.0000
  C   C709      1.0  0.56774  0.01875  0.54529  1.0000
  H   H1256     1.0  0.50329  0.06951  0.53252  1.0000
  C   C710      1.0  0.57402  0.18515  0.67675  1.0000
  H   H1257     1.0  0.53489  0.14774  0.61751  1.0000
  H   H1258     1.0  0.56631  0.23153  0.37940  1.0000
  H   H1259     1.0  0.58453  0.17353  0.42695  1.0000
  H   H1260     1.0  0.58168  0.06852  0.37641  1.0000
  C   C711      1.0  0.56573  0.05108  0.45706  1.0000
  H   H1261     1.0  0.55757  0.17918  0.57005  1.0000
  C   C712      1.0  0.56883  0.09507  0.36936  1.0000
  H   H1262     1.0  0.56047  0.20409  0.63207  1.0000
  N   N39       1.0  0.55465  0.05356  0.94140  1.0000
  C   C713      1.0  0.55921  0.04219  0.95732  1.0000
  C   C714      1.0  0.54208  0.04909  0.93501  1.0000
  C   C715      1.0  0.56409  0.06164  0.90281  1.0000
  C   C716      1.0  0.55333  0.06148  0.97025  1.0000
  C   C717      1.0  0.54447  0.05478  0.01262  1.0000
  C   C718      1.0  0.57093  0.04488  0.97255  1.0000
  H   H1263     1.0  0.50718  0.11015  0.53688  1.0000
  C   C719      1.0  0.54186  0.04110  0.90493  1.0000
  C   C720      1.0  0.52946  0.03939  0.89426  1.0000
  C   C721      1.0  0.54555  0.06331  0.04010  1.0000
  H   H1264     1.0  0.56282  0.22425  0.58234  1.0000
  H   H1265     1.0  0.52309  0.00841  0.94048  1.0000
  H   H1266     1.0  0.56146  0.03726  0.93389  1.0000
  H   H1267     1.0  0.55169  0.03504  0.98212  1.0000
  H   H1268     1.0  0.53523  0.04308  0.96351  1.0000
  H   H1269     1.0  0.53811  0.05726  0.92564  1.0000
  H   H1270     1.0  0.56743  0.05571  0.88363  1.0000
  H   H1271     1.0  0.57265  0.06645  0.90893  1.0000
  H   H1272     1.0  0.56263  0.06566  0.97337  1.0000
  H   H1273     1.0  0.54961  0.06960  0.95861  1.0000
  H   H1274     1.0  0.54660  0.04584  0.02620  1.0000
  H   H1275     1.0  0.53461  0.05263  0.01159  1.0000
  C   C722      1.0  0.58242  0.08348  0.11567  1.0000
  H   H1276     1.0  0.56842  0.04712  0.00150  1.0000
  H   H1277     1.0  0.51773  0.00299  0.34589  1.0000
  C   C723      1.0  0.54514  0.03849  0.11332  1.0000
  H   H1278     1.0  0.54942  0.04553  0.87675  1.0000
  H   H1279     1.0  0.54300  0.03156  0.91818  1.0000
  H   H1280     1.0  0.52964  0.03384  0.87221  1.0000
  H   H1281     1.0  0.52156  0.03428  0.92119  1.0000
  H   H1282     1.0  0.52788  0.04870  0.88092  1.0000
  H   H1283     1.0  0.55474  0.06428  0.04668  1.0000
  H   H1284     1.0  0.54456  0.07284  0.02628  1.0000
  H   H1285     1.0  0.55212  0.09585  0.64008  1.0000
  H   H1286     1.0  0.56048  0.16970  0.67459  1.0000
  H   H1287     1.0  0.58380  0.03499  0.99425  1.0000
  C   C724      1.0  0.58719  0.20113  0.93071  1.0000
  H   H1288     1.0  0.54646  0.01225  0.98721  1.0000
  C   C725      1.0  0.58784  0.20783  0.47578  1.0000
  H   H1289     1.0  0.52669  0.10913  0.55164  1.0000
  C   C726      1.0  0.55938  0.00600  0.57452  1.0000
  H   H1290     1.0  0.50469  0.07491  0.16441  1.0000
  H   H1291     1.0  0.57494  0.02558  0.26903  1.0000
  H   H1292     1.0  0.54066  0.07548  0.37088  1.0000
  N   N40       1.0  0.57354  0.03744  0.30909  1.0000
  C   C727      1.0  0.58216  0.18478  0.48951  1.0000
  H   H1293     1.0  0.57262  0.03138  0.20070  1.0000
  H   H1294     1.0  0.56697  0.05264  0.36062  1.0000
  C   C728      1.0  0.57461  0.02691  0.34177  1.0000
  C   C729      1.0  0.58711  0.11033  0.37098  1.0000
  H   H1295     1.0  0.55222  0.01715  0.32197  1.0000
  H   H1296     1.0  0.53977  0.99820  0.94641  1.0000
  H   H1297     1.0  0.57463  0.07534  0.82272  1.0000
  N   N41       1.0  0.57365  0.10359  0.39263  1.0000
  H   H1298     1.0  0.56950  0.02741  0.37151  1.0000
  H   H1299     1.0  0.57386  0.01721  0.51882  1.0000
  H   H1300     1.0  0.58085  0.20016  0.59694  1.0000
  H   H1301     1.0  0.57587  0.10398  0.62936  1.0000
  H   H1302     1.0  0.56653  0.08804  0.51542  1.0000
  H   H1303     1.0  0.51923  0.01803  0.56468  1.0000
  H   H1304     1.0  0.55326  0.08489  0.32771  1.0000
  H   H1305     1.0  0.57792  0.22174  0.58461  1.0000
  C   C730      1.0  0.57811  0.04502  0.23236  1.0000
  H   H1306     1.0  0.50468  0.00354  0.32569  1.0000
  H   H1307     1.0  0.56987  0.01760  0.33950  1.0000
  H   H1308     1.0  0.58256  0.10813  0.66716  1.0000
  H   H1309     1.0  0.56213  0.19055  0.72384  1.0000
  C   C731      1.0  0.58055  0.05014  0.30988  1.0000
  C   C732      1.0  0.52616  0.00127  0.56158  1.0000
  H   H1310     1.0  0.57973  0.04726  0.16975  1.0000
  H   H1311     1.0  0.56563  0.99969  0.58086  1.0000
  C   C733      1.0  0.47040  0.00853  0.36595  1.0000
  H   H1312     1.0  0.58078  0.03191  0.94967  1.0000
  H   H1313     1.0  0.57912  0.17177  0.99525  1.0000
  C   C734      1.0  0.47865  0.99796  0.29501  1.0000
  C   C735      1.0  0.58791  0.01586  0.37896  1.0000
  H   H1314     1.0  0.57312  0.17259  0.39892  1.0000
  C   C736      1.0  0.51095  0.99755  0.33412  1.0000
  H   H1315     1.0  0.54932  0.99890  0.01971  1.0000
  H   H1316     1.0  0.57890  0.19514  0.66092  1.0000
  H   H1317     1.0  0.55824  0.00467  0.96797  1.0000
  H   H1318     1.0  0.56360  0.17446  0.73802  1.0000
  H   H1319     1.0  0.44010  0.00156  0.24908  1.0000
  H   H1320     1.0  0.57405  0.08163  0.14124  1.0000
  H   H1321     1.0  0.42268  0.00453  0.82658  1.0000
  H   H1322     1.0  0.43899  0.00363  0.93379  1.0000
  C   C737      1.0  0.58455  0.10873  0.63490  1.0000
  H   H1323     1.0  0.57781  0.08578  0.85316  1.0000
  C   C738      1.0  0.57679  0.99602  0.00891  1.0000
  H   H1324     1.0  0.52291  0.00359  0.87627  1.0000
  C   C739      1.0  0.58789  0.19696  0.36807  1.0000
  H   H1325     1.0  0.58245  0.03457  0.54267  1.0000
  H   H1326     1.0  0.45324  0.00519  0.34834  1.0000
  C   C740      1.0  0.45919  0.00480  0.25417  1.0000
  C   C741      1.0  0.44716  0.99519  0.86218  1.0000
  H   H1327     1.0  0.57923  0.23947  0.33573  1.0000
  H   H1328     1.0  0.54046  0.99740  0.49010  1.0000
  C   C742      1.0  0.51426  0.00461  0.89588  1.0000
  H   H1329     1.0  0.58012  0.11349  0.02546  1.0000
  H   H1330     1.0  0.57780  0.09916  0.08127  1.0000
  H   H1331     1.0  0.58671  0.10613  0.92658  1.0000
  H   H1332     1.0  0.44795  0.99913  0.99167  1.0000
  H   H1333     1.0  0.58538  0.05396  0.22536  1.0000
  C   C743      1.0  0.42980  0.99898  0.82846  1.0000
  H   H1334     1.0  0.58438  0.07429  0.11373  1.0000
  H   H1335     1.0  0.58299  0.15516  0.68572  1.0000
  H   H1336     1.0  0.58167  0.07372  0.32498  1.0000
  H   H1337     1.0  0.51671  0.99811  0.48438  1.0000
  H   H1338     1.0  0.58505  0.22450  0.38698  1.0000
  H   H1339     1.0  0.58796  0.11537  0.33961  1.0000
  C   C744      1.0  0.58808  0.02617  0.34265  1.0000
  H   H1340     1.0  0.58815  0.00190  0.55317  1.0000
  H   H1341     1.0  0.55978  0.99581  0.44392  1.0000
  H   H1342     1.0  0.50236  0.99684  0.25914  1.0000
  H   H1343     1.0  0.52144  0.99646  0.59356  1.0000
  H   H1344     1.0  0.58596  0.19703  0.39989  1.0000
  H   H1345     1.0  0.58825  0.13181  0.05191  1.0000
  H   H1346     1.0  0.58383  0.21608  0.31102  1.0000
  H   H1347     1.0  0.58528  0.16428  0.39208  1.0000
  H   H1348     1.0  0.53304  0.99514  0.63734  1.0000
  N   N42       1.0  0.46513  0.99517  0.31844  1.0000
  C   C745      1.0  0.42952  0.47467  0.00561  1.0000
  H   H1349     1.0  0.58055  0.32892  0.40651  1.0000
  C   C746      1.0  0.40451  0.47157  0.52531  1.0000
  S   S174      1.0  0.44095  0.48189  0.48195  1.0000
  H   H1350     1.0  0.39616  0.46415  0.52784  1.0000
  Fe  Fe87      1.0  0.45806  0.47489  0.46027  1.0000
  S   S175      1.0  0.45825  0.45760  0.43734  1.0000
  H   H1351     1.0  0.50938  0.48104  0.85000  1.0000
  C   C747      1.0  0.49571  0.46966  0.52514  1.0000
  S   S176      1.0  0.46576  0.47709  0.51156  1.0000
  H   H1352     1.0  0.54256  0.37958  0.02880  1.0000
  H   H1353     1.0  0.41108  0.46695  0.53841  1.0000
  H   H1354     1.0  0.56082  0.44723  0.21222  1.0000
  H   H1355     1.0  0.42911  0.48365  0.67379  1.0000
  H   H1356     1.0  0.49620  0.41978  0.15100  1.0000
  H   H1357     1.0  0.53828  0.35036  0.97753  1.0000
  Fe  Fe88      1.0  0.52355  0.40002  0.39984  1.0000
  S   S177      1.0  0.53117  0.40163  0.33477  1.0000
  S   S178      1.0  0.52480  0.38550  0.45357  1.0000
  Fe  Fe89      1.0  0.51412  0.42453  0.38174  1.0000
  S   S179      1.0  0.52073  0.42772  0.31551  1.0000
  S   S180      1.0  0.50896  0.44006  0.40842  1.0000
  Fe  Fe90      1.0  0.51324  0.40674  0.32855  1.0000
  S   S181      1.0  0.49960  0.39742  0.30001  1.0000
  Fe  Fe91      1.0  0.53790  0.42242  0.32777  1.0000
  S   S182      1.0  0.55702  0.43539  0.29793  1.0000
  S   S183      1.0  0.50511  0.40391  0.39454  1.0000
  S   S184      1.0  0.53176  0.42025  0.39318  1.0000
  Fe  Fe92      1.0  0.45597  0.47949  0.79305  1.0000
  S   S185      1.0  0.44087  0.46929  0.85051  1.0000
  S   S186      1.0  0.46185  0.47372  0.73652  1.0000
  H   H1358     1.0  0.55475  0.48092  0.15164  1.0000
  H   H1359     1.0  0.52876  0.38909  0.09593  1.0000
  Fe  Fe93      1.0  0.45591  0.47399  0.88075  1.0000
  S   S187      1.0  0.45831  0.46208  0.93764  1.0000
  Fe  Fe94      1.0  0.43801  0.48869  0.85067  1.0000
  C   C748      1.0  0.56186  0.32929  0.83748  1.0000
  H   H1360     1.0  0.51181  0.45138  0.32481  1.0000
  Fe  Fe95      1.0  0.51189  0.41249  0.07006  1.0000
  S   S188      1.0  0.51676  0.41063  0.00744  1.0000
  S   S189      1.0  0.50161  0.39569  0.12300  1.0000
  Fe  Fe96      1.0  0.52457  0.44013  0.04397  1.0000
  S   S190      1.0  0.53100  0.44076  0.97945  1.0000
  S   S191      1.0  0.52903  0.45631  0.06987  1.0000
  Fe  Fe97      1.0  0.51145  0.42918  0.99033  1.0000
  S   S192      1.0  0.50220  0.43383  0.94055  1.0000
  Fe  Fe98      1.0  0.53581  0.42231  0.00141  1.0000
  S   S193      1.0  0.55476  0.41841  0.97784  1.0000
  S   S194      1.0  0.50474  0.42981  0.05376  1.0000
  S   S195      1.0  0.53115  0.42289  0.06524  1.0000
  H   H1361     1.0  0.52847  0.36664  0.00187  1.0000
  H   H1362     1.0  0.53915  0.48979  0.12273  1.0000
  H   H1363     1.0  0.53360  0.47575  0.19304  1.0000
  C   C749      1.0  0.57044  0.39081  0.52308  1.0000
  S   S196      1.0  0.56015  0.36967  0.91869  1.0000
  H   H1364     1.0  0.56053  0.39138  0.52994  1.0000
  H   H1365     1.0  0.43845  0.48025  0.73065  1.0000
  H   H1366     1.0  0.55295  0.36448  0.51493  1.0000
  C   C750      1.0  0.55616  0.40510  0.95995  1.0000
  C   C751      1.0  0.56786  0.40223  0.95123  1.0000
  C   C752      1.0  0.56926  0.39146  0.93840  1.0000
  C   C753      1.0  0.55896  0.38354  0.93356  1.0000
  C   C754      1.0  0.54733  0.38659  0.94128  1.0000
  C   C755      1.0  0.54591  0.39727  0.95463  1.0000
  H   H1367     1.0  0.57589  0.40838  0.95440  1.0000
  N   N43       1.0  0.56871  0.30847  0.86200  1.0000
  H   H1368     1.0  0.53941  0.38072  0.93656  1.0000
  H   H1369     1.0  0.53692  0.39954  0.96032  1.0000
  C   C756      1.0  0.54519  0.45997  0.06180  1.0000
  C   C757      1.0  0.55262  0.45565  0.03367  1.0000
  H   H1370     1.0  0.50271  0.43869  0.25338  1.0000
  C   C758      1.0  0.55070  0.46709  0.08353  1.0000
  H   H1371     1.0  0.54844  0.45002  0.01714  1.0000
  H   H1372     1.0  0.48520  0.37328  0.03578  1.0000
  H   H1373     1.0  0.54492  0.47021  0.10586  1.0000
  C   C759      1.0  0.47110  0.45502  0.93755  1.0000
  C   C760      1.0  0.47396  0.45063  0.97362  1.0000
  C   C761      1.0  0.48371  0.44447  0.97490  1.0000
  C   C762      1.0  0.49053  0.44243  0.94016  1.0000
  C   C763      1.0  0.48771  0.44691  0.90409  1.0000
  C   C764      1.0  0.47811  0.45324  0.90269  1.0000
  H   H1374     1.0  0.46856  0.45191  0.00075  1.0000
  H   H1375     1.0  0.48573  0.44101  0.00287  1.0000
  H   H1376     1.0  0.49289  0.44532  0.87711  1.0000
  H   H1377     1.0  0.47593  0.45645  0.87482  1.0000
  N   N44       1.0  0.58174  0.41947  0.42545  1.0000
  C   C765      1.0  0.54639  0.29108  0.50752  1.0000
  C   C766      1.0  0.50155  0.39637  0.25062  1.0000
  C   C767      1.0  0.51231  0.40292  0.21927  1.0000
  C   C768      1.0  0.51266  0.40271  0.17965  1.0000
  C   C769      1.0  0.50232  0.39574  0.17174  1.0000
  C   C770      1.0  0.49195  0.38866  0.20354  1.0000
  C   C771      1.0  0.49150  0.38911  0.24254  1.0000
  H   H1378     1.0  0.52018  0.40832  0.22560  1.0000
  H   H1379     1.0  0.52082  0.40801  0.15532  1.0000
  H   H1380     1.0  0.48398  0.38315  0.19784  1.0000
  H   H1381     1.0  0.48319  0.38393  0.26658  1.0000
  C   C772      1.0  0.54775  0.44899  0.34661  1.0000
  C   C773      1.0  0.55848  0.44617  0.32637  1.0000
  C   C774      1.0  0.57009  0.45125  0.33139  1.0000
  C   C775      1.0  0.51769  0.35976  0.10321  1.0000
  H   H1382     1.0  0.53880  0.44546  0.34206  1.0000
  H   H1383     1.0  0.57844  0.44921  0.31546  1.0000
  H   H1384     1.0  0.57101  0.33593  0.83239  1.0000
  C   C776      1.0  0.52602  0.36069  0.03328  1.0000
  H   H1385     1.0  0.56176  0.48913  0.22525  1.0000
  H   H1386     1.0  0.51355  0.38314  0.06698  1.0000
  H   H1387     1.0  0.56869  0.28271  0.96877  1.0000
  H   H1388     1.0  0.50073  0.45387  0.29678  1.0000
  C   C777      1.0  0.51326  0.36583  0.13682  1.0000
  H   H1389     1.0  0.47862  0.41976  0.25780  1.0000
  C   C778      1.0  0.51528  0.37666  0.04834  1.0000
  C   C779      1.0  0.56096  0.37230  0.45149  1.0000
  C   C780      1.0  0.55901  0.37878  0.41593  1.0000
  C   C781      1.0  0.54790  0.38271  0.41617  1.0000
  C   C782      1.0  0.53864  0.38021  0.45206  1.0000
  C   C783      1.0  0.54044  0.37341  0.48754  1.0000
  C   C784      1.0  0.55157  0.36948  0.48731  1.0000
  H   H1390     1.0  0.56617  0.38090  0.38806  1.0000
  H   H1391     1.0  0.54654  0.38778  0.38862  1.0000
  H   H1392     1.0  0.53328  0.37135  0.51541  1.0000
  H   H1393     1.0  0.52428  0.35437  0.11291  1.0000
  C   C785      1.0  0.44503  0.48180  0.63139  1.0000
  H   H1394     1.0  0.58504  0.47938  0.27942  1.0000
  C   C786      1.0  0.44371  0.48027  0.70140  1.0000
  C   C787      1.0  0.45552  0.47775  0.69608  1.0000
  C   C788      1.0  0.46222  0.47772  0.65806  1.0000
  C   C789      1.0  0.45706  0.47987  0.62572  1.0000
  H   H1395     1.0  0.57464  0.40265  0.33812  1.0000
  C   C790      1.0  0.57047  0.41088  0.33721  1.0000
  H   H1396     1.0  0.47138  0.47582  0.65376  1.0000
  H   H1397     1.0  0.46226  0.47965  0.59672  1.0000
  C   C791      1.0  0.47269  0.45341  0.42587  1.0000
  C   C792      1.0  0.48325  0.45997  0.43337  1.0000
  C   C793      1.0  0.49441  0.45598  0.42664  1.0000
  C   C794      1.0  0.49518  0.44550  0.41183  1.0000
  C   C795      1.0  0.48481  0.43923  0.40271  1.0000
  C   C796      1.0  0.47356  0.44310  0.41006  1.0000
  H   H1398     1.0  0.48275  0.46801  0.44503  1.0000
  H   H1399     1.0  0.50241  0.46093  0.43355  1.0000
  H   H1400     1.0  0.48535  0.43122  0.39104  1.0000
  H   H1401     1.0  0.46544  0.43802  0.40399  1.0000
  H   H1402     1.0  0.49748  0.34998  0.17255  1.0000
  H   H1403     1.0  0.52005  0.38297  0.01761  1.0000
  N   N45       1.0  0.55394  0.32450  0.45707  1.0000
  C   C797      1.0  0.56596  0.33466  0.44502  1.0000
  C   C798      1.0  0.54726  0.32289  0.50013  1.0000
  C   C799      1.0  0.55745  0.31226  0.45495  1.0000
  C   C800      1.0  0.54560  0.32721  0.43027  1.0000
  C   C801      1.0  0.54628  0.34136  0.41133  1.0000
  H   H1404     1.0  0.57648  0.29493  0.89637  1.0000
  H   H1405     1.0  0.52705  0.45269  0.16901  1.0000
  C   C802      1.0  0.54223  0.33412  0.50939  1.0000
  C   C803      1.0  0.53558  0.33123  0.55379  1.0000
  C   C804      1.0  0.53543  0.34273  0.39334  1.0000
  H   H1406     1.0  0.40911  0.47641  0.49317  1.0000
  H   H1407     1.0  0.53323  0.42686  0.17924  1.0000
  H   H1408     1.0  0.57135  0.38276  0.51044  1.0000
  H   H1409     1.0  0.56409  0.34395  0.44572  1.0000
  H   H1410     1.0  0.53898  0.31469  0.51122  1.0000
  H   H1411     1.0  0.55352  0.32069  0.51937  1.0000
  H   H1412     1.0  0.57900  0.41053  0.50934  1.0000
  H   H1413     1.0  0.56252  0.31286  0.42388  1.0000
  H   H1414     1.0  0.54770  0.32307  0.40478  1.0000
  H   H1415     1.0  0.53567  0.32238  0.44677  1.0000
  H   H1416     1.0  0.55506  0.34582  0.38696  1.0000
  H   H1417     1.0  0.54611  0.34703  0.43292  1.0000
  H   H1418     1.0  0.52897  0.47995  0.28152  1.0000
  H   H1419     1.0  0.58075  0.39395  0.01356  1.0000
  C   C805      1.0  0.55949  0.42891  0.11092  1.0000
  H   H1420     1.0  0.54698  0.47791  0.31426  1.0000
  H   H1421     1.0  0.54993  0.34275  0.50105  1.0000
  H   H1422     1.0  0.53518  0.33598  0.49334  1.0000
  H   H1423     1.0  0.53280  0.33974  0.55989  1.0000
  H   H1424     1.0  0.52703  0.32339  0.56252  1.0000
  H   H1425     1.0  0.54178  0.32854  0.57246  1.0000
  H   H1426     1.0  0.53545  0.33761  0.37019  1.0000
  H   H1427     1.0  0.52636  0.33902  0.41692  1.0000
  H   H1428     1.0  0.53637  0.35289  0.37924  1.0000
  H   H1429     1.0  0.53108  0.48185  0.00756  1.0000
  S   S197      1.0  0.57549  0.36841  0.44952  1.0000
  H   H1430     1.0  0.54826  0.49133  0.51976  1.0000
  H   H1431     1.0  0.49160  0.47687  0.53633  1.0000
  H   H1432     1.0  0.46450  0.39287  0.57776  1.0000
  H   H1433     1.0  0.53762  0.45095  0.48459  1.0000
  H   H1434     1.0  0.54674  0.47778  0.48150  1.0000
  C   C806      1.0  0.58406  0.34909  0.38628  1.0000
  H   H1435     1.0  0.46720  0.41261  0.54716  1.0000
  H   H1436     1.0  0.58670  0.30193  0.80332  1.0000
  C   C807      1.0  0.57476  0.42927  0.43295  1.0000
  C   C808      1.0  0.57401  0.43239  0.47308  1.0000
  C   C809      1.0  0.58703  0.38679  0.70600  1.0000
  C   C810      1.0  0.56913  0.41446  0.37635  1.0000
  H   H1437     1.0  0.47577  0.42118  0.13791  1.0000
  H   H1438     1.0  0.49559  0.47554  0.15772  1.0000
  C   C811      1.0  0.56828  0.44359  0.47446  1.0000
  H   H1439     1.0  0.55421  0.28421  0.99836  1.0000
  H   H1440     1.0  0.55207  0.33884  0.87671  1.0000
  H   H1441     1.0  0.49322  0.47826  0.85061  1.0000
  C   C812      1.0  0.48846  0.42030  0.17544  1.0000
  H   H1442     1.0  0.48995  0.46584  0.50720  1.0000
  H   H1443     1.0  0.52140  0.37149  0.14260  1.0000
  H   H1444     1.0  0.50885  0.47272  0.08541  1.0000
  H   H1445     1.0  0.39657  0.48714  0.62007  1.0000
  H   H1446     1.0  0.57876  0.43819  0.40829  1.0000
  H   H1447     1.0  0.56488  0.42619  0.43251  1.0000
  H   H1448     1.0  0.58299  0.39808  0.63432  1.0000
  H   H1449     1.0  0.46809  0.41488  0.19104  1.0000
  H   H1450     1.0  0.50535  0.45764  0.15430  1.0000
  H   H1451     1.0  0.47761  0.41767  0.57349  1.0000
  H   H1452     1.0  0.56456  0.42244  0.37411  1.0000
  H   H1453     1.0  0.53471  0.46366  0.55250  1.0000
  C   C813      1.0  0.50219  0.45308  0.18718  1.0000
  C   C814      1.0  0.46688  0.43640  0.53463  1.0000
  H   H1454     1.0  0.51644  0.47031  0.24347  1.0000
  H   H1455     1.0  0.50234  0.47684  0.19835  1.0000
  H   H1456     1.0  0.55001  0.42369  0.11223  1.0000
  C   C815      1.0  0.41197  0.49159  0.54364  1.0000
  H   H1457     1.0  0.55886  0.44167  0.46952  1.0000
  H   H1458     1.0  0.56741  0.44546  0.50395  1.0000
  H   H1459     1.0  0.57436  0.45215  0.45110  1.0000
  H   H1460     1.0  0.54374  0.44198  0.16961  1.0000
  H   H1461     1.0  0.54862  0.40527  0.07770  1.0000
  H   H1462     1.0  0.56879  0.30946  0.78222  1.0000
  C   C816      1.0  0.57094  0.30195  0.90068  1.0000
  H   H1463     1.0  0.41577  0.44716  0.03554  1.0000
  S   S198      1.0  0.56800  0.34131  0.55369  1.0000
  H   H1464     1.0  0.50963  0.41118  0.47361  1.0000
  C   C817      1.0  0.55261  0.48569  0.24828  1.0000
  H   H1465     1.0  0.41101  0.42856  0.93694  1.0000
  H   H1466     1.0  0.48246  0.45423  0.19756  1.0000
  H   H1467     1.0  0.48591  0.47577  0.20481  1.0000
  H   H1468     1.0  0.53063  0.41941  0.48065  1.0000
  H   H1469     1.0  0.48071  0.43499  0.19353  1.0000
  C   C818      1.0  0.55990  0.46086  0.37991  1.0000
  Fe  Fe99      1.0  0.58257  0.33048  0.54075  1.0000
  H   H1470     1.0  0.48868  0.40161  0.47786  1.0000
  H   H1471     1.0  0.52291  0.44021  0.21517  1.0000
  C   C819      1.0  0.53654  0.35365  0.03606  1.0000
  H   H1472     1.0  0.43303  0.45885  0.98477  1.0000
  H   H1473     1.0  0.52341  0.43214  0.46707  1.0000
  H   H1474     1.0  0.55319  0.34487  0.82470  1.0000
  H   H1475     1.0  0.51264  0.46812  0.48768  1.0000
  C   C820      1.0  0.50603  0.35578  0.17596  1.0000
  H   H1476     1.0  0.41229  0.47636  0.94290  1.0000
  C   C821      1.0  0.57079  0.45862  0.35818  1.0000
  C   C822      1.0  0.49741  0.43253  0.23925  1.0000
  H   H1477     1.0  0.50070  0.42871  0.49472  1.0000
  C   C823      1.0  0.53162  0.47173  0.27234  1.0000
  H   H1478     1.0  0.47966  0.37285  0.58696  1.0000
  H   H1479     1.0  0.50026  0.42168  0.54492  1.0000
  H   H1480     1.0  0.57596  0.43136  0.55308  1.0000
  H   H1481     1.0  0.58603  0.32268  0.84783  1.0000
  H   H1482     1.0  0.47267  0.39300  0.44752  1.0000
  S   S199      1.0  0.47113  0.48262  0.82358  1.0000
  H   H1483     1.0  0.56110  0.40831  0.33234  1.0000
  Fe  Fe100     1.0  0.44982  0.48583  0.52978  1.0000
  H   H1484     1.0  0.46121  0.40170  0.43869  1.0000
  C   C824      1.0  0.49921  0.41945  0.51686  1.0000
  H   H1485     1.0  0.51071  0.40562  0.52376  1.0000
  H   H1486     1.0  0.43250  0.47180  0.94665  1.0000
  H   H1487     1.0  0.56430  0.31065  0.47228  1.0000
  H   H1488     1.0  0.47342  0.38003  0.62505  1.0000
  H   H1489     1.0  0.47074  0.38563  0.53979  1.0000
  H   H1490     1.0  0.57457  0.49246  0.00022  1.0000
  C   C825      1.0  0.56509  0.45687  0.19165  1.0000
  H   H1491     1.0  0.57129  0.45589  0.00302  1.0000
  H   H1492     1.0  0.54586  0.36045  0.02647  1.0000
  H   H1493     1.0  0.49925  0.38495  0.00508  1.0000
  H   H1494     1.0  0.42738  0.42881  0.92234  1.0000
  H   H1495     1.0  0.53449  0.39646  0.04349  1.0000
  H   H1496     1.0  0.57639  0.41898  0.31173  1.0000
  C   C826      1.0  0.57118  0.46632  0.04668  1.0000
  H   H1497     1.0  0.51353  0.43980  0.14042  1.0000
  H   H1498     1.0  0.55381  0.28650  0.92861  1.0000
  Fe  Fe101     1.0  0.57958  0.34937  0.58996  1.0000
  H   H1499     1.0  0.48643  0.43300  0.31802  1.0000
  H   H1500     1.0  0.57665  0.41365  0.02641  1.0000
  H   H1501     1.0  0.50693  0.37180  0.12934  1.0000
  C   C827      1.0  0.56373  0.47023  0.07606  1.0000
  S   S200      1.0  0.57891  0.34480  0.89667  1.0000
  H   H1502     1.0  0.47582  0.40546  0.16394  1.0000
  H   H1503     1.0  0.54092  0.37163  0.07911  1.0000
  H   H1504     1.0  0.56768  0.29105  0.84509  1.0000
  H   H1505     1.0  0.44657  0.47002  0.01643  1.0000
  C   C828      1.0  0.54035  0.48256  0.20114  1.0000
  H   H1506     1.0  0.56209  0.32074  0.89655  1.0000
  H   H1507     1.0  0.39181  0.45898  0.95779  1.0000
  C   C829      1.0  0.53700  0.34494  0.00883  1.0000
  H   H1508     1.0  0.51737  0.35337  0.03746  1.0000
  H   H1509     1.0  0.50957  0.35245  0.10322  1.0000
  H   H1510     1.0  0.50308  0.36367  0.02681  1.0000
  H   H1511     1.0  0.49691  0.36320  0.07838  1.0000
  H   H1512     1.0  0.53838  0.28268  0.51617  1.0000
  S   S201      1.0  0.58160  0.47434  0.48576  1.0000
  H   H1513     1.0  0.49303  0.38448  0.05673  1.0000
  H   H1514     1.0  0.54502  0.34059  0.00955  1.0000
  H   H1515     1.0  0.52825  0.33729  0.01885  1.0000
  H   H1516     1.0  0.50702  0.46602  0.31730  1.0000
  H   H1517     1.0  0.54901  0.49428  0.24852  1.0000
  C   C830      1.0  0.58637  0.41268  0.02082  1.0000
  C   C831      1.0  0.57377  0.35412  0.72195  1.0000
  H   H1518     1.0  0.49645  0.47234  0.06142  1.0000
  C   C832      1.0  0.54869  0.39574  0.07394  1.0000
  H   H1519     1.0  0.56797  0.29715  0.98263  1.0000
  H   H1520     1.0  0.51125  0.42621  0.17976  1.0000
  H   H1521     1.0  0.50982  0.45697  0.19908  1.0000
  H   H1522     1.0  0.56690  0.43012  0.04945  1.0000
  H   H1523     1.0  0.57132  0.33280  0.46735  1.0000
  H   H1524     1.0  0.53636  0.43862  0.13230  1.0000
  H   H1525     1.0  0.54230  0.33003  0.85334  1.0000
  H   H1526     1.0  0.53520  0.48247  0.56014  1.0000
  H   H1527     1.0  0.55517  0.28783  0.50375  1.0000
  H   H1528     1.0  0.43330  0.44924  0.93510  1.0000
  H   H1529     1.0  0.42672  0.48353  0.99549  1.0000
  C   C833      1.0  0.54650  0.30016  0.46840  1.0000
  C   C834      1.0  0.48235  0.42467  0.30915  1.0000
  C   C835      1.0  0.57504  0.40661  0.45478  1.0000
  H   H1530     1.0  0.46301  0.37037  0.60613  1.0000
  H   H1531     1.0  0.49176  0.44007  0.14618  1.0000
  C   C836      1.0  0.51204  0.43649  0.17320  1.0000
  H   H1532     1.0  0.39577  0.47560  0.57892  1.0000
  H   H1533     1.0  0.40518  0.44745  0.95170  1.0000
  H   H1534     1.0  0.56977  0.33444  0.38163  1.0000
  S   S202      1.0  0.45164  0.49250  0.88534  1.0000
  S   S203      1.0  0.56013  0.46930  0.41556  1.0000
  H   H1535     1.0  0.53662  0.44384  0.53615  1.0000
  H   H1536     1.0  0.53721  0.30224  0.47117  1.0000
  H   H1537     1.0  0.56818  0.41632  0.08459  1.0000
  C   C837      1.0  0.47625  0.41520  0.16657  1.0000
  C   C838      1.0  0.52419  0.44230  0.18254  1.0000
  H   H1538     1.0  0.57892  0.35652  0.38059  1.0000
  H   H1539     1.0  0.55038  0.38991  0.10072  1.0000
  C   C839      1.0  0.42768  0.46604  0.97796  1.0000
  H   H1540     1.0  0.57602  0.35526  0.77949  1.0000
  H   H1541     1.0  0.56150  0.32731  0.80884  1.0000
  H   H1542     1.0  0.58336  0.43486  0.47800  1.0000
  H   H1543     1.0  0.56119  0.42551  0.14038  1.0000
  H   H1544     1.0  0.40192  0.43218  0.01522  1.0000
  H   H1545     1.0  0.42152  0.44028  0.89267  1.0000
  H   H1546     1.0  0.39384  0.48507  0.53354  1.0000
  H   H1547     1.0  0.54977  0.45668  0.50606  1.0000
  C   C840      1.0  0.44325  0.47848  0.00507  1.0000
  C   C841      1.0  0.55911  0.29464  0.93571  1.0000
  Fe  Fe102     1.0  0.57875  0.36465  0.90047  1.0000
  H   H1548     1.0  0.56800  0.47564  0.09294  1.0000
  H   H1549     1.0  0.58046  0.32195  0.80604  1.0000
  C   C842      1.0  0.55552  0.48130  0.28875  1.0000
  C   C843      1.0  0.51743  0.48126  0.52314  1.0000
  H   H1550     1.0  0.42268  0.43800  0.97921  1.0000
  H   H1551     1.0  0.49535  0.46179  0.55086  1.0000
  C   C844      1.0  0.56021  0.30318  0.80471  1.0000
  H   H1552     1.0  0.55036  0.31190  0.88123  1.0000
  H   H1553     1.0  0.53362  0.47291  0.46506  1.0000
  C   C845      1.0  0.50669  0.47358  0.05636  1.0000
  C   C846      1.0  0.41465  0.45282  0.94968  1.0000
  C   C847      1.0  0.47215  0.37737  0.59790  1.0000
  H   H1554     1.0  0.57502  0.41673  0.61786  1.0000
  C   C848      1.0  0.55588  0.29211  0.78869  1.0000
  H   H1555     1.0  0.56276  0.40635  0.40060  1.0000
  H   H1556     1.0  0.51550  0.47439  0.55286  1.0000
  S   S204      1.0  0.43792  0.48359  0.59209  1.0000
  H   H1557     1.0  0.55406  0.29573  0.75954  1.0000
  H   H1558     1.0  0.42395  0.46985  0.03692  1.0000
  C   C849      1.0  0.53501  0.43710  0.16483  1.0000
  H   H1559     1.0  0.54710  0.28560  0.80968  1.0000
  H   H1560     1.0  0.44435  0.48486  0.02432  1.0000
  H   H1561     1.0  0.52844  0.49125  0.94314  1.0000
  H   H1562     1.0  0.58683  0.42753  0.36111  1.0000
  H   H1563     1.0  0.54554  0.29570  0.53200  1.0000
  H   H1564     1.0  0.58368  0.42860  0.10593  1.0000
  H   H1565     1.0  0.48910  0.45549  0.23843  1.0000
  H   H1566     1.0  0.50952  0.49368  0.03814  1.0000
  N   N46       1.0  0.50011  0.43895  0.19518  1.0000
  C   C850      1.0  0.42060  0.43480  0.92363  1.0000
  H   H1567     1.0  0.53508  0.34777  0.06681  1.0000
  H   H1568     1.0  0.56040  0.47362  0.28859  1.0000
  H   H1569     1.0  0.47837  0.43559  0.25837  1.0000
  C   C851      1.0  0.50915  0.47555  0.49921  1.0000
  C   C852      1.0  0.56561  0.45889  0.02590  1.0000
  C   C853      1.0  0.48349  0.42823  0.26446  1.0000
  N   N47       1.0  0.54351  0.47610  0.23816  1.0000
  C   C854      1.0  0.57904  0.35192  0.68548  1.0000
  H   H1570     1.0  0.55281  0.30080  0.94271  1.0000
  H   H1571     1.0  0.56479  0.35641  0.72713  1.0000
  C   C855      1.0  0.50223  0.36944  0.04821  1.0000
  H   H1572     1.0  0.56141  0.45795  0.16521  1.0000
  H   H1573     1.0  0.55271  0.30831  0.80740  1.0000
  H   H1574     1.0  0.57534  0.45808  0.18118  1.0000
  H   H1575     1.0  0.54767  0.29500  0.44520  1.0000
  H   H1576     1.0  0.53566  0.49011  0.20721  1.0000
  H   H1577     1.0  0.46854  0.44656  0.51889  1.0000
  C   C856      1.0  0.49449  0.37863  0.03566  1.0000
  C   C857      1.0  0.58206  0.41838  0.38398  1.0000
  N   N48       1.0  0.52369  0.36863  0.06184  1.0000
  H   H1578     1.0  0.57971  0.46239  0.36231  1.0000
  C   C858      1.0  0.54842  0.45615  0.37367  1.0000
  C   C859      1.0  0.53614  0.37694  0.05956  1.0000
  H   H1579     1.0  0.56320  0.28682  0.78410  1.0000
  C   C860      1.0  0.40853  0.45089  0.02340  1.0000
  H   H1580     1.0  0.46474  0.43533  0.56720  1.0000
  H   H1581     1.0  0.53997  0.45793  0.39009  1.0000
  C   C861      1.0  0.47695  0.41778  0.54283  1.0000
  H   H1582     1.0  0.39069  0.44142  0.01467  1.0000
  H   H1583     1.0  0.56785  0.42425  0.49788  1.0000
  H   H1584     1.0  0.58271  0.44328  0.07654  1.0000
  C   C862      1.0  0.57495  0.33606  0.40357  1.0000
  C   C863      1.0  0.49101  0.45802  0.20548  1.0000
  H   H1585     1.0  0.52398  0.42651  0.51800  1.0000
  H   H1586     1.0  0.55977  0.43913  0.10492  1.0000
  H   H1587     1.0  0.48654  0.43797  0.52496  1.0000
  C   C864      1.0  0.56275  0.28938  0.97358  1.0000
  C   C865      1.0  0.47234  0.38898  0.56552  1.0000
  C   C866      1.0  0.49395  0.47242  0.19058  1.0000
  H   H1588     1.0  0.48743  0.40036  0.58004  1.0000
  S   S205      1.0  0.57080  0.35264  0.64898  1.0000
  H   H1589     1.0  0.54630  0.45753  0.26207  1.0000
  C   C867      1.0  0.48994  0.43414  0.17739  1.0000
  H   H1590     1.0  0.44920  0.48352  0.97429  1.0000
  H   H1591     1.0  0.47759  0.40900  0.41542  1.0000
  C   C868      1.0  0.56242  0.46690  0.21271  1.0000
  H   H1592     1.0  0.54288  0.45972  0.21584  1.0000
  H   H1593     1.0  0.48872  0.41403  0.20381  1.0000
  C   C869      1.0  0.47071  0.40249  0.44295  1.0000
  H   H1594     1.0  0.40779  0.47570  0.99438  1.0000
  H   H1595     1.0  0.56757  0.46650  0.23574  1.0000
  H   H1596     1.0  0.45869  0.43109  0.52789  1.0000
  C   C870      1.0  0.50925  0.45853  0.30329  1.0000
  C   C871      1.0  0.54822  0.46467  0.23280  1.0000
  H   H1597     1.0  0.52218  0.45620  0.25298  1.0000
  C   C872      1.0  0.43842  0.48214  0.66921  1.0000
  C   C873      1.0  0.47133  0.40743  0.47906  1.0000
  H   H1598     1.0  0.49044  0.41793  0.45919  1.0000
  H   H1599     1.0  0.46427  0.40063  0.50536  1.0000
  H   H1600     1.0  0.56654  0.47613  0.19031  1.0000
  H   H1601     1.0  0.51197  0.34956  0.18574  1.0000
  C   C874      1.0  0.48476  0.40957  0.48424  1.0000
  H   H1602     1.0  0.58493  0.27448  0.49037  1.0000
  H   H1603     1.0  0.58106  0.39402  0.06351  1.0000
  C   C875      1.0  0.47848  0.43176  0.52022  1.0000
  Fe  Fe103     1.0  0.57872  0.47674  0.42491  1.0000
  H   H1604     1.0  0.50094  0.42381  0.24397  1.0000
  C   C876      1.0  0.51034  0.41397  0.50099  1.0000
  C   C877      1.0  0.52283  0.42365  0.49111  1.0000
  H   H1605     1.0  0.49196  0.39389  0.53950  1.0000
  H   H1606     1.0  0.46846  0.41646  0.47427  1.0000
  H   H1607     1.0  0.57641  0.39888  0.44061  1.0000
  C   C878      1.0  0.39348  0.46552  0.97607  1.0000
  H   H1608     1.0  0.57183  0.43796  0.59415  1.0000
  H   H1609     1.0  0.55639  0.39675  0.04714  1.0000
  H   H1610     1.0  0.48720  0.41712  0.31707  1.0000
  N   N49       1.0  0.48625  0.41133  0.52371  1.0000
  C   C879      1.0  0.48511  0.39879  0.55260  1.0000
  C   C880      1.0  0.51994  0.46408  0.26485  1.0000
  H   H1611     1.0  0.48021  0.43296  0.48787  1.0000
  H   H1612     1.0  0.53308  0.46557  0.29915  1.0000
  H   H1613     1.0  0.50935  0.46595  0.04380  1.0000
  H   H1614     1.0  0.47234  0.42110  0.32639  1.0000
  C   C881      1.0  0.58008  0.35339  0.75174  1.0000
  H   H1615     1.0  0.57829  0.38929  0.93219  1.0000
  C   C882      1.0  0.53612  0.38981  0.06881  1.0000
  C   C883      1.0  0.42343  0.44372  0.94878  1.0000
  C   C884      1.0  0.56920  0.42666  0.07778  1.0000
  Fe  Fe104     1.0  0.58076  0.35698  0.50147  1.0000
  N   N50       1.0  0.41433  0.45962  0.98165  1.0000
  H   H1616     1.0  0.55301  0.29338  0.86673  1.0000
  H   H1617     1.0  0.56474  0.40556  0.46332  1.0000
  H   H1618     1.0  0.50312  0.36047  0.19949  1.0000
  H   H1619     1.0  0.50888  0.48305  0.47342  1.0000
  C   C885      1.0  0.40751  0.46984  0.97326  1.0000
  H   H1620     1.0  0.41773  0.45980  0.91960  1.0000
  H   H1621     1.0  0.58759  0.41153  0.37676  1.0000
  C   C886      1.0  0.56039  0.31718  0.87108  1.0000
  C   C887      1.0  0.53633  0.47490  0.49148  1.0000
  C   C888      1.0  0.55170  0.33612  0.84894  1.0000
  C   C889      1.0  0.58605  0.28459  0.48368  1.0000
  S   S206      1.0  0.57780  0.30957  0.54558  1.0000
  C   C890      1.0  0.58256  0.43329  0.07665  1.0000
  H   H1622     1.0  0.57653  0.30902  0.91143  1.0000
  C   C891      1.0  0.53956  0.45285  0.51203  1.0000
  C   C892      1.0  0.58135  0.31592  0.83391  1.0000
  C   C893      1.0  0.57944  0.43498  0.57593  1.0000
  H   H1623     1.0  0.57317  0.38896  0.55133  1.0000
  C   C894      1.0  0.56240  0.29848  0.84605  1.0000
  C   C895      1.0  0.58245  0.29014  0.51457  1.0000
  H   H1624     1.0  0.52238  0.45786  0.53230  1.0000
  C   C896      1.0  0.57903  0.40307  0.49383  1.0000
  C   C897      1.0  0.39800  0.43907  0.02879  1.0000
  H   H1625     1.0  0.40293  0.48671  0.69310  1.0000
  H   H1626     1.0  0.40478  0.45628  0.04393  1.0000
  H   H1627     1.0  0.57858  0.28423  0.54499  1.0000
  H   H1628     1.0  0.56537  0.48537  0.97226  1.0000
  C   C898      1.0  0.53254  0.46225  0.52495  1.0000
  C   C899      1.0  0.51359  0.48648  0.02713  1.0000
  H   H1629     1.0  0.58296  0.43521  0.99815  1.0000
  N   N51       1.0  0.53129  0.48552  0.50276  1.0000
  C   C900      1.0  0.55125  0.48848  0.16242  1.0000
  C   C901      1.0  0.58358  0.30321  0.50629  1.0000
  C   C902      1.0  0.40054  0.48098  0.54744  1.0000
  H   H1630     1.0  0.52923  0.49237  0.44370  1.0000
  H   H1631     1.0  0.57815  0.38180  0.70213  1.0000
  H   H1632     1.0  0.58509  0.39362  0.72329  1.0000
  H   H1633     1.0  0.55152  0.48936  0.02932  1.0000
  C   C903      1.0  0.50146  0.48556  0.84949  1.0000
  H   H1634     1.0  0.41943  0.48710  0.55120  1.0000
  C   C904      1.0  0.58594  0.39860  0.03141  1.0000
  H   H1635     1.0  0.51379  0.48935  0.52965  1.0000
  C   C905      1.0  0.56377  0.49223  0.29713  1.0000
  H   H1636     1.0  0.58786  0.40910  0.65952  1.0000
  H   H1637     1.0  0.52965  0.48677  0.05127  1.0000
  H   H1638     1.0  0.56702  0.48858  0.32352  1.0000
  C   C906      1.0  0.58341  0.42473  0.60267  1.0000
  H   H1639     1.0  0.38995  0.48393  0.97798  1.0000
  H   H1640     1.0  0.39287  0.48135  0.92899  1.0000
  H   H1641     1.0  0.39859  0.42945  0.08827  1.0000
  C   C907      1.0  0.52798  0.48913  0.02130  1.0000
  C   C908      1.0  0.53795  0.48990  0.53119  1.0000
  H   H1642     1.0  0.58632  0.42863  0.62580  1.0000
  H   H1643     1.0  0.41236  0.48776  0.61770  1.0000
  C   C909      1.0  0.39165  0.43237  0.07295  1.0000
  H   H1644     1.0  0.49916  0.48893  0.87648  1.0000
  H   H1645     1.0  0.51141  0.48645  0.99850  1.0000
  C   C910      1.0  0.40588  0.49384  0.61130  1.0000
  H   H1646     1.0  0.50612  0.49257  0.78562  1.0000
  S   S207      1.0  0.46887  0.49390  0.41914  1.0000
  S   S208      1.0  0.58746  0.47095  0.03457  1.0000
  H   H1647     1.0  0.58710  0.25346  0.23019  1.0000
  H   H1648     1.0  0.58743  0.44340  0.56091  1.0000
  C   C911      1.0  0.56830  0.49413  0.98089  1.0000
  C   C912      1.0  0.39860  0.49453  0.68317  1.0000
  C   C913      1.0  0.38833  0.47682  0.96133  1.0000
  H   H1649     1.0  0.38863  0.49056  0.68555  1.0000
  S   S209      1.0  0.41977  0.49460  0.86164  1.0000
  Fe  Fe105     1.0  0.52294  0.56575  0.55443  1.0000
  S   S210      1.0  0.51858  0.55289  0.61676  1.0000
  S   S211      1.0  0.50712  0.57525  0.54691  1.0000
  Fe  Fe106     1.0  0.54559  0.55523  0.52492  1.0000
  S   S212      1.0  0.54269  0.54206  0.58496  1.0000
  Fe  Fe107     1.0  0.52254  0.53797  0.58705  1.0000
  S   S213      1.0  0.51068  0.51800  0.60814  1.0000
  Fe  Fe108     1.0  0.53923  0.55834  0.60892  1.0000
  S   S214      1.0  0.54850  0.56076  0.65761  1.0000
  S   S215      1.0  0.52542  0.55028  0.52561  1.0000
  S   S216      1.0  0.54365  0.57219  0.54808  1.0000
  H   H1650     1.0  0.54402  0.51038  0.38552  1.0000
  H   H1651     1.0  0.55668  0.55824  0.83529  1.0000
  S   S217      1.0  0.40395  0.55647  0.35619  1.0000
  H   H1652     1.0  0.46172  0.50801  0.95664  1.0000
  H   H1653     1.0  0.39510  0.62191  0.96796  1.0000
  S   S218      1.0  0.40269  0.59024  0.37375  1.0000
  H   H1654     1.0  0.47837  0.57204  0.05395  1.0000
  Fe  Fe109     1.0  0.45988  0.61449  0.43014  1.0000
  S   S219      1.0  0.46970  0.62149  0.47166  1.0000
  S   S220      1.0  0.44821  0.59446  0.44812  1.0000
  Fe  Fe110     1.0  0.47193  0.63852  0.36213  1.0000
  S   S221      1.0  0.48309  0.64747  0.39782  1.0000
  S   S222      1.0  0.47080  0.64940  0.30219  1.0000
  Fe  Fe111     1.0  0.48655  0.62815  0.41846  1.0000
  S   S223      1.0  0.50554  0.62478  0.42086  1.0000
  Fe  Fe112     1.0  0.46535  0.64004  0.44791  1.0000
  S   S224      1.0  0.45554  0.64970  0.49023  1.0000
  S   S225      1.0  0.47697  0.62000  0.37811  1.0000
  S   S226      1.0  0.45399  0.63237  0.41093  1.0000
  Fe  Fe113     1.0  0.40159  0.56033  0.00862  1.0000
  C   C914      1.0  0.46178  0.57839  0.07299  1.0000
  S   S227      1.0  0.42008  0.57478  0.98945  1.0000
  H   H1655     1.0  0.46915  0.57866  0.36121  1.0000
  H   H1656     1.0  0.55396  0.51081  0.95457  1.0000
  N   N52       1.0  0.46597  0.56641  0.01961  1.0000
  Fe  Fe114     1.0  0.47579  0.63135  0.09951  1.0000
  S   S228      1.0  0.48390  0.64267  0.03464  1.0000
  S   S229      1.0  0.48533  0.63066  0.14884  1.0000
  Fe  Fe115     1.0  0.45307  0.61635  0.08507  1.0000
  S   S230      1.0  0.45925  0.62626  0.01996  1.0000
  S   S231      1.0  0.43505  0.60144  0.11508  1.0000
  Fe  Fe116     1.0  0.47831  0.62391  0.02212  1.0000
  S   S232      1.0  0.48884  0.61745  0.97167  1.0000
  Fe  Fe117     1.0  0.46407  0.64405  0.03771  1.0000
  S   S233      1.0  0.45499  0.65829  0.00685  1.0000
  S   S234      1.0  0.47166  0.61260  0.08626  1.0000
  S   S235      1.0  0.45649  0.63415  0.10348  1.0000
  Fe  Fe118     1.0  0.52504  0.56183  0.87605  1.0000
  S   S236      1.0  0.53886  0.56957  0.90657  1.0000
  S   S237      1.0  0.52138  0.57093  0.81807  1.0000
  Fe  Fe119     1.0  0.51295  0.53840  0.94535  1.0000
  S   S238      1.0  0.52534  0.54390  0.98213  1.0000
  S   S239      1.0  0.49876  0.51996  0.96333  1.0000
  Fe  Fe120     1.0  0.52221  0.56328  0.96114  1.0000
  S   S240      1.0  0.51635  0.57341  0.00735  1.0000
  Fe  Fe121     1.0  0.54084  0.54952  0.92535  1.0000
  S   S241      1.0  0.50841  0.55712  0.92935  1.0000
  S   S242      1.0  0.52847  0.54257  0.88977  1.0000
  H   H1657     1.0  0.42223  0.67268  0.23467  1.0000
  H   H1658     1.0  0.39173  0.61283  0.33806  1.0000
  H   H1659     1.0  0.47040  0.57912  0.12123  1.0000
  H   H1660     1.0  0.45196  0.54983  0.93028  1.0000
  Fe  Fe122     1.0  0.45932  0.71570  0.52651  1.0000
  S   S243      1.0  0.44340  0.70432  0.57970  1.0000
  S   S244      1.0  0.47316  0.70657  0.49392  1.0000
  Fe  Fe123     1.0  0.43168  0.71468  0.54823  1.0000
  H   H1661     1.0  0.47928  0.56926  0.49547  1.0000
  Fe  Fe124     1.0  0.44743  0.72071  0.60547  1.0000
  S   S245      1.0  0.44490  0.71612  0.67297  1.0000
  S   S246      1.0  0.44744  0.72544  0.49365  1.0000
  C   C915      1.0  0.41026  0.74285  0.03910  1.0000
  H   H1662     1.0  0.43114  0.52287  0.81894  1.0000
  H   H1663     1.0  0.43475  0.52913  0.88040  1.0000
  H   H1664     1.0  0.41634  0.71389  0.68662  1.0000
  S   S247      1.0  0.45128  0.72388  0.88372  1.0000
  C   C916      1.0  0.43197  0.51919  0.41600  1.0000
  C   C917      1.0  0.45149  0.56816  0.36015  1.0000
  H   H1665     1.0  0.42199  0.52120  0.49945  1.0000
  Fe  Fe125     1.0  0.46209  0.72983  0.92453  1.0000
  S   S248      1.0  0.47415  0.71810  0.95020  1.0000
  N   N53       1.0  0.52174  0.51707  0.76988  1.0000
  H   H1666     1.0  0.48243  0.58702  0.44359  1.0000
  H   H1667     1.0  0.43057  0.70329  0.95456  1.0000
  C   C918      1.0  0.45151  0.72520  0.70129  1.0000
  C   C919      1.0  0.44667  0.72127  0.74299  1.0000
  C   C920      1.0  0.46068  0.52576  0.65186  1.0000
  H   H1668     1.0  0.53580  0.60037  0.79530  1.0000
  C   C921      1.0  0.53539  0.60801  0.84508  1.0000
  H   H1669     1.0  0.39215  0.73153  0.52441  1.0000
  H   H1670     1.0  0.41607  0.64414  0.04530  1.0000
  H   H1671     1.0  0.43247  0.64089  0.07929  1.0000
  H   H1672     1.0  0.44059  0.50806  0.61259  1.0000
  H   H1673     1.0  0.39649  0.69717  0.79033  1.0000
  H   H1674     1.0  0.44767  0.69862  0.86471  1.0000
  C   C922      1.0  0.49371  0.51933  0.92097  1.0000
  C   C923      1.0  0.48661  0.50806  0.91874  1.0000
  C   C924      1.0  0.48242  0.50781  0.88488  1.0000
  C   C925      1.0  0.48526  0.51885  0.85357  1.0000
  C   C926      1.0  0.49272  0.52995  0.85527  1.0000
  C   C927      1.0  0.49691  0.53021  0.88891  1.0000
  N   N54       1.0  0.42260  0.52653  0.29588  1.0000
  S   S249      1.0  0.41584  0.72120  0.93373  1.0000
  H   H1675     1.0  0.49524  0.53837  0.83051  1.0000
  H   H1676     1.0  0.50249  0.53892  0.88996  1.0000
  C   C928      1.0  0.46081  0.67486  0.99072  1.0000
  C   C929      1.0  0.45441  0.68211  0.96920  1.0000
  C   C930      1.0  0.45819  0.69536  0.95776  1.0000
  C   C931      1.0  0.46870  0.70149  0.96649  1.0000
  C   C932      1.0  0.47527  0.69425  0.98736  1.0000
  C   C933      1.0  0.47131  0.68096  0.99967  1.0000
  H   H1677     1.0  0.44628  0.67744  0.96220  1.0000
  H   H1678     1.0  0.45299  0.70081  0.94204  1.0000
  H   H1679     1.0  0.48342  0.69894  0.99420  1.0000
  H   H1680     1.0  0.47632  0.67546  0.01618  1.0000
  C   C934      1.0  0.49675  0.60545  0.98182  1.0000
  C   C935      1.0  0.49711  0.60001  0.02058  1.0000
  C   C936      1.0  0.50318  0.59023  0.02792  1.0000
  C   C937      1.0  0.50878  0.58567  0.99674  1.0000
  C   C938      1.0  0.50830  0.59099  0.95800  1.0000
  C   C939      1.0  0.50243  0.60094  0.95053  1.0000
  H   H1681     1.0  0.49284  0.60343  0.04484  1.0000
  H   H1682     1.0  0.50357  0.58620  0.05790  1.0000
  H   H1683     1.0  0.51263  0.58757  0.93376  1.0000
  H   H1684     1.0  0.50221  0.60512  0.92046  1.0000
  C   C940      1.0  0.40761  0.51250  0.96235  1.0000
  H   H1685     1.0  0.53965  0.49824  0.59902  1.0000
  H   H1686     1.0  0.39737  0.65052  0.94614  1.0000
  H   H1687     1.0  0.49646  0.50299  0.72414  1.0000
  H   H1688     1.0  0.38849  0.65429  0.17782  1.0000
  H   H1689     1.0  0.46726  0.58814  0.05553  1.0000
  H   H1690     1.0  0.55711  0.61463  0.78343  1.0000
  H   H1691     1.0  0.39897  0.50070  0.70336  1.0000
  C   C941      1.0  0.42436  0.58080  0.02687  1.0000
  C   C942      1.0  0.41598  0.57836  0.06453  1.0000
  C   C943      1.0  0.41935  0.58444  0.09228  1.0000
  C   C944      1.0  0.43115  0.59280  0.08244  1.0000
  C   C945      1.0  0.43972  0.59460  0.04568  1.0000
  C   C946      1.0  0.43632  0.58867  0.01793  1.0000
  H   H1692     1.0  0.40680  0.57207  0.07186  1.0000
  H   H1693     1.0  0.41273  0.58283  0.12101  1.0000
  H   H1694     1.0  0.44900  0.60058  0.03847  1.0000
  H   H1695     1.0  0.44286  0.59046  0.98901  1.0000
  C   C947      1.0  0.46053  0.66570  0.48904  1.0000
  C   C948      1.0  0.45269  0.67066  0.51435  1.0000
  C   C949      1.0  0.45633  0.68324  0.51527  1.0000
  C   C950      1.0  0.46796  0.69096  0.49133  1.0000
  C   C951      1.0  0.47584  0.68598  0.46604  1.0000
  C   C952      1.0  0.47210  0.67342  0.46457  1.0000
  H   H1696     1.0  0.44371  0.66477  0.53329  1.0000
  H   H1697     1.0  0.45018  0.68691  0.53483  1.0000
  H   H1698     1.0  0.48487  0.69188  0.44750  1.0000
  H   H1699     1.0  0.47822  0.66970  0.44497  1.0000
  C   C953      1.0  0.47288  0.64299  0.26128  1.0000
  C   C954      1.0  0.47614  0.63148  0.26383  1.0000
  C   C955      1.0  0.47942  0.62748  0.22931  1.0000
  C   C956      1.0  0.47903  0.63474  0.19238  1.0000
  C   C957      1.0  0.47505  0.64588  0.19030  1.0000
  C   C958      1.0  0.47206  0.65003  0.22465  1.0000
  H   H1700     1.0  0.47664  0.62592  0.29200  1.0000
  H   H1701     1.0  0.48259  0.61890  0.23099  1.0000
  H   H1702     1.0  0.47491  0.65162  0.16182  1.0000
  H   H1703     1.0  0.46952  0.65894  0.22251  1.0000
  C   C959      1.0  0.41475  0.59093  0.39695  1.0000
  C   C960      1.0  0.41999  0.60237  0.40307  1.0000
  C   C961      1.0  0.43016  0.60342  0.41926  1.0000
  C   C962      1.0  0.43505  0.59300  0.42981  1.0000
  C   C963      1.0  0.42946  0.58138  0.42529  1.0000
  C   C964      1.0  0.41935  0.58036  0.40860  1.0000
  H   H1704     1.0  0.41619  0.61044  0.39520  1.0000
  H   H1705     1.0  0.43409  0.61223  0.42407  1.0000
  H   H1706     1.0  0.43302  0.57321  0.43423  1.0000
  H   H1707     1.0  0.41518  0.57143  0.40463  1.0000
  C   C965      1.0  0.41727  0.68510  0.98022  1.0000
  C   C966      1.0  0.40759  0.52302  0.43182  1.0000
  H   H1708     1.0  0.53009  0.51168  0.65535  1.0000
  H   H1709     1.0  0.44265  0.52858  0.27496  1.0000
  H   H1710     1.0  0.42642  0.70976  0.46567  1.0000
  H   H1711     1.0  0.52869  0.50335  0.47188  1.0000
  H   H1712     1.0  0.55867  0.53570  0.75302  1.0000
  C   C967      1.0  0.54049  0.56335  0.70207  1.0000
  C   C968      1.0  0.54453  0.55988  0.73626  1.0000
  C   C969      1.0  0.53818  0.56140  0.77266  1.0000
  C   C970      1.0  0.52814  0.56703  0.77458  1.0000
  C   C971      1.0  0.52419  0.57070  0.74026  1.0000
  C   C972      1.0  0.53023  0.56868  0.70418  1.0000
  H   H1713     1.0  0.55254  0.55588  0.73458  1.0000
  H   H1714     1.0  0.54127  0.55856  0.79892  1.0000
  H   H1715     1.0  0.51649  0.57516  0.74151  1.0000
  H   H1716     1.0  0.52710  0.57145  0.67786  1.0000
  C   C973      1.0  0.50717  0.58896  0.51067  1.0000
  C   C974      1.0  0.51806  0.59671  0.48210  1.0000
  C   C975      1.0  0.51750  0.60768  0.45469  1.0000
  C   C976      1.0  0.50604  0.61090  0.45537  1.0000
  C   C977      1.0  0.49517  0.60303  0.48362  1.0000
  C   C978      1.0  0.49575  0.59219  0.51120  1.0000
  H   H1717     1.0  0.52692  0.59433  0.48141  1.0000
  H   H1718     1.0  0.52597  0.61369  0.43293  1.0000
  H   H1719     1.0  0.48629  0.60530  0.48445  1.0000
  H   H1720     1.0  0.48731  0.58631  0.53334  1.0000
  C   C979      1.0  0.49969  0.50851  0.50165  1.0000
  C   C980      1.0  0.51119  0.51673  0.49627  1.0000
  C   C981      1.0  0.51459  0.51945  0.52913  1.0000
  C   C982      1.0  0.50653  0.51396  0.56754  1.0000
  C   C983      1.0  0.49510  0.50548  0.57316  1.0000
  C   C984      1.0  0.39550  0.68948  0.10700  1.0000
  H   H1721     1.0  0.51750  0.52102  0.46662  1.0000
  H   H1722     1.0  0.52367  0.52550  0.52478  1.0000
  H   H1723     1.0  0.39453  0.51834  0.93144  1.0000
  N   N55       1.0  0.51229  0.65741  0.23809  1.0000
  C   C985      1.0  0.50908  0.65501  0.20133  1.0000
  C   C986      1.0  0.50780  0.64524  0.27145  1.0000
  C   C987      1.0  0.50504  0.66654  0.25096  1.0000
  C   C988      1.0  0.52608  0.66308  0.23089  1.0000
  C   C989      1.0  0.53539  0.65923  0.19954  1.0000
  C   C990      1.0  0.51061  0.66698  0.16714  1.0000
  C   C991      1.0  0.50533  0.66875  0.29198  1.0000
  C   C992      1.0  0.51275  0.63383  0.26341  1.0000
  C   C993      1.0  0.50636  0.62194  0.29808  1.0000
  C   C994      1.0  0.54884  0.66368  0.20083  1.0000
  C   C995      1.0  0.51042  0.66376  0.12803  1.0000
  C   C996      1.0  0.49910  0.67930  0.29934  1.0000
  H   H1724     1.0  0.49920  0.64956  0.20935  1.0000
  H   H1725     1.0  0.51456  0.64890  0.18880  1.0000
  H   H1726     1.0  0.51043  0.64663  0.29855  1.0000
  H   H1727     1.0  0.49739  0.64226  0.28051  1.0000
  H   H1728     1.0  0.49504  0.66334  0.25192  1.0000
  H   H1729     1.0  0.50856  0.67600  0.22870  1.0000
  H   H1730     1.0  0.52828  0.67359  0.22068  1.0000
  H   H1731     1.0  0.52865  0.66093  0.25948  1.0000
  H   H1732     1.0  0.53497  0.66363  0.16900  1.0000
  H   H1733     1.0  0.53335  0.64892  0.20395  1.0000
  H   H1734     1.0  0.50273  0.67141  0.17485  1.0000
  H   H1735     1.0  0.51947  0.67407  0.16213  1.0000
  H   H1736     1.0  0.51507  0.67130  0.29387  1.0000
  H   H1737     1.0  0.50003  0.66012  0.31643  1.0000
  H   H1738     1.0  0.51099  0.63166  0.23618  1.0000
  H   H1739     1.0  0.52288  0.63567  0.26090  1.0000
  H   H1740     1.0  0.51043  0.61402  0.29246  1.0000
  H   H1741     1.0  0.50777  0.62350  0.32650  1.0000
  H   H1742     1.0  0.49619  0.61919  0.30113  1.0000
  H   H1743     1.0  0.55531  0.66106  0.17755  1.0000
  H   H1744     1.0  0.55151  0.67411  0.19505  1.0000
  H   H1745     1.0  0.54994  0.65913  0.23036  1.0000
  H   H1746     1.0  0.51832  0.65958  0.11813  1.0000
  H   H1747     1.0  0.50148  0.65696  0.13170  1.0000
  H   H1748     1.0  0.51127  0.67246  0.10444  1.0000
  H   H1749     1.0  0.50419  0.68840  0.27661  1.0000
  H   H1750     1.0  0.48921  0.67691  0.29844  1.0000
  H   H1751     1.0  0.49915  0.68044  0.32930  1.0000
  N   N56       1.0  0.40978  0.50087  0.56750  1.0000
  C   C997      1.0  0.41572  0.71668  0.82615  1.0000
  H   H1752     1.0  0.39235  0.68447  0.54535  1.0000
  H   H1753     1.0  0.39842  0.64817  0.09818  1.0000
  H   H1754     1.0  0.48890  0.50107  0.60293  1.0000
  C   C998      1.0  0.38883  0.59448  0.06163  1.0000
  H   H1755     1.0  0.39563  0.67380  0.08064  1.0000
  H   H1756     1.0  0.39273  0.62939  0.15726  1.0000
  H   H1757     1.0  0.45257  0.68790  0.83712  1.0000
  H   H1758     1.0  0.54141  0.51469  0.57517  1.0000
  H   H1759     1.0  0.46471  0.71636  0.81474  1.0000
  N   N57       1.0  0.53570  0.50228  0.99706  1.0000
  C   C999      1.0  0.54053  0.59995  0.81934  1.0000
  C   C1000     1.0  0.48716  0.72410  0.83304  1.0000
  S   S250      1.0  0.46037  0.50556  0.49401  1.0000
  N   N58       1.0  0.47550  0.64587  0.57686  1.0000
  C   C1001     1.0  0.48181  0.64287  0.53947  1.0000
  C   C1002     1.0  0.46145  0.64085  0.58728  1.0000
  C   C1003     1.0  0.47837  0.66011  0.56806  1.0000
  C   C1004     1.0  0.48044  0.64091  0.61149  1.0000
  C   C1005     1.0  0.47977  0.62660  0.62318  1.0000
  C   C1006     1.0  0.49624  0.64785  0.52426  1.0000
  C   C1007     1.0  0.47062  0.66543  0.59912  1.0000
  C   C1008     1.0  0.45643  0.62809  0.57917  1.0000
  C   C1009     1.0  0.44218  0.62379  0.59462  1.0000
  C   C1010     1.0  0.48725  0.62338  0.65299  1.0000
  C   C1011     1.0  0.50155  0.64322  0.48862  1.0000
  C   C1012     1.0  0.47582  0.67965  0.59064  1.0000
  H   H1760     1.0  0.47795  0.64678  0.51468  1.0000
  H   H1761     1.0  0.47973  0.63256  0.54311  1.0000
  H   H1762     1.0  0.45704  0.64008  0.61911  1.0000
  H   H1763     1.0  0.45738  0.64769  0.56970  1.0000
  H   H1764     1.0  0.47690  0.66440  0.53879  1.0000
  H   H1765     1.0  0.48841  0.66409  0.56498  1.0000
  H   H1766     1.0  0.49030  0.64616  0.60599  1.0000
  H   H1767     1.0  0.47527  0.64279  0.63892  1.0000
  H   H1768     1.0  0.48358  0.62330  0.59716  1.0000
  H   H1769     1.0  0.46994  0.62119  0.63812  1.0000
  H   H1770     1.0  0.49898  0.65833  0.51432  1.0000
  H   H1771     1.0  0.50073  0.64449  0.54772  1.0000
  H   H1772     1.0  0.47065  0.66093  0.62993  1.0000
  H   H1773     1.0  0.46075  0.66389  0.59794  1.0000
  H   H1774     1.0  0.45889  0.62913  0.54666  1.0000
  H   H1775     1.0  0.46032  0.62046  0.59290  1.0000
  H   H1776     1.0  0.43790  0.63102  0.58002  1.0000
  H   H1777     1.0  0.43884  0.61485  0.58746  1.0000
  H   H1778     1.0  0.57960  0.61214  0.80444  1.0000
  H   H1779     1.0  0.49732  0.62822  0.63942  1.0000
  H   H1780     1.0  0.48369  0.62622  0.68033  1.0000
  H   H1781     1.0  0.48635  0.61303  0.66165  1.0000
  H   H1782     1.0  0.51187  0.64699  0.47777  1.0000
  H   H1783     1.0  0.49949  0.63273  0.49727  1.0000
  H   H1784     1.0  0.49752  0.64646  0.46375  1.0000
  H   H1785     1.0  0.47621  0.68468  0.55978  1.0000
  H   H1786     1.0  0.42032  0.66346  0.11581  1.0000
  C   C1013     1.0  0.41177  0.70484  0.95673  1.0000
  N   N59       1.0  0.42120  0.65469  0.43474  1.0000
  C   C1014     1.0  0.42605  0.66787  0.43732  1.0000
  H   H1787     1.0  0.55303  0.50682  0.55689  1.0000
  C   C1015     1.0  0.42548  0.64555  0.46341  1.0000
  C   C1016     1.0  0.42617  0.65355  0.39331  1.0000
  H   H1788     1.0  0.56048  0.50554  0.01500  1.0000
  C   C1017     1.0  0.44043  0.67328  0.42199  1.0000
  H   H1789     1.0  0.53432  0.53177  0.05012  1.0000
  H   H1790     1.0  0.55041  0.59577  0.67368  1.0000
  C   C1018     1.0  0.40022  0.65080  0.48855  1.0000
  C   C1019     1.0  0.45246  0.56029  0.02399  1.0000
  C   C1020     1.0  0.44417  0.68651  0.42706  1.0000
  C   C1021     1.0  0.40807  0.61116  0.01588  1.0000
  H   H1791     1.0  0.42325  0.66824  0.46878  1.0000
  H   H1792     1.0  0.42168  0.67465  0.42103  1.0000
  H   H1793     1.0  0.44703  0.72544  0.79892  1.0000
  Fe  Fe126     1.0  0.45122  0.74027  0.52589  1.0000
  H   H1794     1.0  0.42356  0.64731  0.49332  1.0000
  H   H1795     1.0  0.43581  0.64716  0.45330  1.0000
  H   H1796     1.0  0.43637  0.65405  0.38661  1.0000
  H   H1797     1.0  0.41980  0.68821  0.05862  1.0000
  H   H1798     1.0  0.42807  0.67314  0.35830  1.0000
  H   H1799     1.0  0.40602  0.62918  0.07643  1.0000
  H   H1800     1.0  0.44523  0.66723  0.43880  1.0000
  H   H1801     1.0  0.44404  0.67400  0.38993  1.0000
  H   H1802     1.0  0.46322  0.53917  0.03167  1.0000
  H   H1803     1.0  0.47930  0.58425  0.98746  1.0000
  H   H1804     1.0  0.40285  0.65010  0.16351  1.0000
  H   H1805     1.0  0.49172  0.54386  0.01609  1.0000
  H   H1806     1.0  0.44719  0.56758  0.01718  1.0000
  C   C1022     1.0  0.42766  0.54878  0.96192  1.0000
  H   H1807     1.0  0.54349  0.52028  0.00516  1.0000
  H   H1808     1.0  0.41671  0.54278  0.40667  1.0000
  H   H1809     1.0  0.47711  0.49903  0.88306  1.0000
  H   H1810     1.0  0.43558  0.52048  0.22221  1.0000
  H   H1811     1.0  0.45453  0.68986  0.41824  1.0000
  H   H1812     1.0  0.44045  0.69324  0.40795  1.0000
  H   H1813     1.0  0.44057  0.68644  0.45865  1.0000
  C   C1023     1.0  0.42216  0.51026  0.55885  1.0000
  H   H1814     1.0  0.53863  0.51582  0.82285  1.0000
  H   H1815     1.0  0.42104  0.62460  0.52979  1.0000
  H   H1816     1.0  0.44451  0.52210  0.78230  1.0000
  N   N60       1.0  0.43651  0.61509  0.23698  1.0000
  C   C1024     1.0  0.42543  0.60378  0.25494  1.0000
  C   C1025     1.0  0.44091  0.61889  0.27023  1.0000
  C   C1026     1.0  0.43252  0.62560  0.21234  1.0000
  C   C1027     1.0  0.44716  0.61209  0.21000  1.0000
  C   C1028     1.0  0.45223  0.60111  0.22994  1.0000
  C   C1029     1.0  0.42127  0.59706  0.22493  1.0000
  C   C1030     1.0  0.44152  0.63895  0.19970  1.0000
  C   C1031     1.0  0.43131  0.62301  0.29973  1.0000
  C   C1032     1.0  0.43757  0.62909  0.32674  1.0000
  C   C1033     1.0  0.46096  0.59707  0.19877  1.0000
  C   C1034     1.0  0.43676  0.64860  0.17347  1.0000
  H   H1817     1.0  0.42715  0.59659  0.27880  1.0000
  H   H1818     1.0  0.44338  0.61089  0.28891  1.0000
  H   H1819     1.0  0.44977  0.62648  0.25793  1.0000
  H   H1820     1.0  0.42312  0.62629  0.22819  1.0000
  H   H1821     1.0  0.43132  0.62344  0.18435  1.0000
  H   H1822     1.0  0.44454  0.61009  0.18347  1.0000
  H   H1823     1.0  0.45529  0.62045  0.19725  1.0000
  H   H1824     1.0  0.44460  0.59270  0.24770  1.0000
  H   H1825     1.0  0.45762  0.60413  0.24996  1.0000
  H   H1826     1.0  0.41973  0.60383  0.19979  1.0000
  H   H1827     1.0  0.42841  0.59236  0.21253  1.0000
  H   H1828     1.0  0.45096  0.63896  0.18261  1.0000
  H   H1829     1.0  0.44243  0.64232  0.22597  1.0000
  H   H1830     1.0  0.42693  0.62992  0.28430  1.0000
  H   H1831     1.0  0.42374  0.61464  0.31883  1.0000
  H   H1832     1.0  0.44263  0.62279  0.34171  1.0000
  H   H1833     1.0  0.44430  0.63822  0.30904  1.0000
  H   H1834     1.0  0.43042  0.63093  0.35000  1.0000
  H   H1835     1.0  0.45588  0.59373  0.17852  1.0000
  H   H1836     1.0  0.46909  0.60508  0.18094  1.0000
  H   H1837     1.0  0.46450  0.58926  0.21372  1.0000
  H   H1838     1.0  0.43645  0.64618  0.14527  1.0000
  H   H1839     1.0  0.42726  0.64888  0.18949  1.0000
  H   H1840     1.0  0.44315  0.65812  0.16585  1.0000
  H   H1841     1.0  0.46229  0.52022  0.59587  1.0000
  H   H1842     1.0  0.45196  0.55499  0.00138  1.0000
  H   H1843     1.0  0.49485  0.52167  0.67577  1.0000
  H   H1844     1.0  0.46593  0.57063  0.55900  1.0000
  S   S251      1.0  0.58352  0.49788  0.09294  1.0000
  C   C1035     1.0  0.39622  0.60822  0.05121  1.0000
  C   C1036     1.0  0.40223  0.51387  0.93065  1.0000
  H   H1845     1.0  0.43708  0.51085  0.66076  1.0000
  H   H1846     1.0  0.47117  0.59199  0.88884  1.0000
  H   H1847     1.0  0.40520  0.69526  0.09267  1.0000
  C   C1037     1.0  0.47063  0.59222  0.91999  1.0000
  C   C1038     1.0  0.48416  0.57203  0.41357  1.0000
  H   H1848     1.0  0.48039  0.52884  0.03414  1.0000
  H   H1849     1.0  0.41382  0.60470  0.02590  1.0000
  H   H1850     1.0  0.40742  0.68893  0.90024  1.0000
  H   H1851     1.0  0.52055  0.50892  0.97808  1.0000
  C   C1039     1.0  0.49640  0.59495  0.38760  1.0000
  H   H1852     1.0  0.41886  0.54355  0.98533  1.0000
  H   H1853     1.0  0.55879  0.60516  0.82758  1.0000
  H   H1854     1.0  0.45536  0.56321  0.33850  1.0000
  H   H1855     1.0  0.39110  0.61137  0.38972  1.0000
  H   H1856     1.0  0.44956  0.51121  0.99247  1.0000
  H   H1857     1.0  0.41021  0.57967  0.26991  1.0000
  H   H1858     1.0  0.56269  0.58555  0.83436  1.0000
  H   H1859     1.0  0.40146  0.59115  0.25690  1.0000
  H   H1860     1.0  0.43417  0.55354  0.97597  1.0000
  H   H1861     1.0  0.42557  0.68841  0.10166  1.0000
  H   H1862     1.0  0.47410  0.50758  0.66676  1.0000
  H   H1863     1.0  0.53550  0.51831  0.95047  1.0000
  H   H1864     1.0  0.47645  0.58892  0.40124  1.0000
  C   C1040     1.0  0.44458  0.55122  0.06541  1.0000
  H   H1865     1.0  0.46228  0.59558  0.93151  1.0000
  C   C1041     1.0  0.41588  0.63434  0.06123  1.0000
  C   C1042     1.0  0.40467  0.67851  0.99124  1.0000
  C   C1043     1.0  0.46911  0.56471  0.50473  1.0000
  H   H1866     1.0  0.39667  0.71316  0.78669  1.0000
  C   C1044     1.0  0.48394  0.58587  0.41307  1.0000
  C   C1045     1.0  0.51159  0.52361  0.76338  1.0000
  C   C1046     1.0  0.53552  0.50207  0.54154  1.0000
  C   C1047     1.0  0.53659  0.51959  0.69954  1.0000
  C   C1048     1.0  0.47453  0.51510  0.68244  1.0000
  C   C1049     1.0  0.51485  0.53470  0.72527  1.0000
  C   C1050     1.0  0.50540  0.54278  0.72902  1.0000
  Fe  Fe127     1.0  0.45261  0.50121  0.44489  1.0000
  H   H1867     1.0  0.50331  0.51693  0.76175  1.0000
  C   C1051     1.0  0.38847  0.50953  0.36198  1.0000
  H   H1868     1.0  0.51370  0.51095  0.83397  1.0000
  H   H1869     1.0  0.54555  0.52152  0.70740  1.0000
  H   H1870     1.0  0.53476  0.52878  0.68690  1.0000
  H   H1871     1.0  0.57365  0.50193  0.95375  1.0000
  H   H1872     1.0  0.40920  0.65949  0.20579  1.0000
  H   H1873     1.0  0.52413  0.54102  0.71935  1.0000
  H   H1874     1.0  0.51462  0.53098  0.69913  1.0000
  H   H1875     1.0  0.50578  0.54714  0.75377  1.0000
  H   H1876     1.0  0.50756  0.55045  0.70105  1.0000
  H   H1877     1.0  0.49582  0.53695  0.73507  1.0000
  H   H1878     1.0  0.48431  0.49955  0.94310  1.0000
  H   H1879     1.0  0.42098  0.68688  0.20206  1.0000
  H   H1880     1.0  0.41537  0.50637  0.64021  1.0000
  H   H1881     1.0  0.57195  0.55737  0.80957  1.0000
  N   N61       1.0  0.48701  0.71050  0.83445  1.0000
  C   C1052     1.0  0.47350  0.70314  0.84759  1.0000
  C   C1053     1.0  0.49372  0.70573  0.86477  1.0000
  C   C1054     1.0  0.49371  0.71019  0.79338  1.0000
  C   C1055     1.0  0.49358  0.69697  0.78721  1.0000
  C   C1056     1.0  0.46554  0.70651  0.81864  1.0000
  C   C1057     1.0  0.48967  0.69140  0.88711  1.0000
  C   C1058     1.0  0.49849  0.68774  0.91174  1.0000
  C   C1059     1.0  0.49870  0.69791  0.74306  1.0000
  C   C1060     1.0  0.45230  0.69788  0.83479  1.0000
  H   H1882     1.0  0.46879  0.70431  0.87686  1.0000
  H   H1883     1.0  0.47263  0.69285  0.85295  1.0000
  H   H1884     1.0  0.50400  0.70824  0.85065  1.0000
  H   H1885     1.0  0.49242  0.71053  0.88900  1.0000
  H   H1886     1.0  0.48997  0.71557  0.77053  1.0000
  H   H1887     1.0  0.50375  0.71521  0.78533  1.0000
  H   H1888     1.0  0.48403  0.69065  0.79775  1.0000
  H   H1889     1.0  0.49971  0.69259  0.80318  1.0000
  H   H1890     1.0  0.46965  0.70537  0.78890  1.0000
  H   H1891     1.0  0.48017  0.68904  0.90807  1.0000
  H   H1892     1.0  0.48939  0.68540  0.86660  1.0000
  H   H1893     1.0  0.50801  0.68912  0.89200  1.0000
  H   H1894     1.0  0.49901  0.69348  0.93311  1.0000
  H   H1895     1.0  0.49493  0.67762  0.92908  1.0000
  H   H1896     1.0  0.49268  0.70189  0.72558  1.0000
  H   H1897     1.0  0.50840  0.70399  0.73095  1.0000
  H   H1898     1.0  0.49883  0.68836  0.73947  1.0000
  H   H1899     1.0  0.44664  0.70064  0.81430  1.0000
  H   H1900     1.0  0.44180  0.53723  0.78474  1.0000
  H   H1901     1.0  0.50828  0.52712  0.78951  1.0000
  C   C1061     1.0  0.40086  0.63175  0.95949  1.0000
  H   H1902     1.0  0.44408  0.53320  0.47775  1.0000
  C   C1062     1.0  0.58185  0.52829  0.97500  1.0000
  H   H1903     1.0  0.49159  0.56997  0.42802  1.0000
  S   S252      1.0  0.40171  0.51697  0.00563  1.0000
  C   C1063     1.0  0.42010  0.63131  0.46870  1.0000
  H   H1904     1.0  0.45832  0.50714  0.63987  1.0000
  H   H1905     1.0  0.50516  0.73489  0.78973  1.0000
  C   C1064     1.0  0.42185  0.50183  0.92903  1.0000
  N   N62       1.0  0.40634  0.70499  0.82791  1.0000
  H   H1906     1.0  0.42972  0.60753  0.96846  1.0000
  H   H1907     1.0  0.48190  0.52131  0.60425  1.0000
  C   C1065     1.0  0.44111  0.52756  0.80281  1.0000
  H   H1908     1.0  0.41044  0.74404  0.06883  1.0000
  Fe  Fe128     1.0  0.39392  0.57062  0.37347  1.0000
  H   H1909     1.0  0.49279  0.53141  0.61850  1.0000
  H   H1910     1.0  0.43154  0.55176  0.23956  1.0000
  H   H1911     1.0  0.48248  0.72823  0.81093  1.0000
  C   C1066     1.0  0.48825  0.50245  0.71215  1.0000
  H   H1912     1.0  0.53722  0.53384  0.74662  1.0000
  H   H1913     1.0  0.44821  0.51811  0.84859  1.0000
  C   C1067     1.0  0.41799  0.53331  0.41379  1.0000
  H   H1914     1.0  0.47099  0.53154  0.92819  1.0000
  C   C1068     1.0  0.40908  0.58692  0.24508  1.0000
  C   C1069     1.0  0.50031  0.73328  0.82170  1.0000
  H   H1915     1.0  0.50626  0.72960  0.83990  1.0000
  C   C1070     1.0  0.53232  0.52640  0.77492  1.0000
  H   H1916     1.0  0.41404  0.51636  0.25975  1.0000
  Fe  Fe129     1.0  0.43628  0.73092  0.91792  1.0000
  C   C1071     1.0  0.52587  0.51120  0.73666  1.0000
  C   C1072     1.0  0.40256  0.70627  0.78967  1.0000
  H   H1917     1.0  0.42548  0.55607  0.93966  1.0000
  H   H1918     1.0  0.43536  0.53206  0.15557  1.0000
  C   C1073     1.0  0.58098  0.53396  0.00613  1.0000
  H   H1919     1.0  0.53784  0.59011  0.83853  1.0000
  H   H1920     1.0  0.48169  0.72466  0.86241  1.0000
  H   H1921     1.0  0.52857  0.53160  0.79617  1.0000
  H   H1922     1.0  0.54039  0.50365  0.67748  1.0000
  C   C1074     1.0  0.50462  0.49649  0.81160  1.0000
  H   H1923     1.0  0.42324  0.69789  0.87534  1.0000
  C   C1075     1.0  0.57464  0.60383  0.75823  1.0000
  H   H1924     1.0  0.41718  0.60655  0.27076  1.0000
  C   C1076     1.0  0.45683  0.51658  0.62775  1.0000
  C   C1077     1.0  0.55405  0.53094  0.78519  1.0000
  H   H1925     1.0  0.43278  0.51116  0.49858  1.0000
  S   S253      1.0  0.49592  0.50506  0.45995  1.0000
  C   C1078     1.0  0.54237  0.52070  0.79042  1.0000
  C   C1079     1.0  0.44895  0.52800  0.83230  1.0000
  H   H1926     1.0  0.41768  0.71591  0.85558  1.0000
  C   C1080     1.0  0.43168  0.54473  0.06374  1.0000
  H   H1927     1.0  0.56078  0.52662  0.79830  1.0000
  H   H1928     1.0  0.55907  0.49509  0.16673  1.0000
  C   C1081     1.0  0.48323  0.54145  0.58248  1.0000
  H   H1929     1.0  0.57913  0.59907  0.73684  1.0000
  H   H1930     1.0  0.42103  0.51756  0.57494  1.0000
  C   C1082     1.0  0.52834  0.52265  0.07100  1.0000
  C   C1083     1.0  0.55431  0.60617  0.71612  1.0000
  S   S254      1.0  0.40089  0.68445  0.40378  1.0000
  Fe  Fe130     1.0  0.45874  0.74396  0.84620  1.0000
  H   H1931     1.0  0.45883  0.53235  0.81503  1.0000
  C   C1084     1.0  0.42236  0.62791  0.03122  1.0000
  H   H1932     1.0  0.49225  0.55029  0.51938  1.0000
  C   C1085     1.0  0.42084  0.69826  0.96302  1.0000
  C   C1086     1.0  0.41552  0.69036  0.87439  1.0000
  H   H1933     1.0  0.42148  0.62391  0.93955  1.0000
  C   C1087     1.0  0.46975  0.57913  0.98890  1.0000
  H   H1934     1.0  0.55158  0.53806  0.80065  1.0000
  C   C1088     1.0  0.43120  0.52858  0.21985  1.0000
  H   H1935     1.0  0.42481  0.53980  0.33058  1.0000
  C   C1089     1.0  0.41219  0.69392  0.83427  1.0000
  H   H1936     1.0  0.46416  0.58163  0.51663  1.0000
  S   S255      1.0  0.55948  0.55282  0.47227  1.0000
  H   H1937     1.0  0.52506  0.60445  0.85687  1.0000
  C   C1090     1.0  0.44406  0.53529  0.86203  1.0000
  H   H1938     1.0  0.41986  0.71928  0.74665  1.0000
  H   H1939     1.0  0.42170  0.50550  0.98565  1.0000
  H   H1940     1.0  0.40724  0.67636  0.23953  1.0000
  H   H1941     1.0  0.53759  0.61803  0.82725  1.0000
  H   H1942     1.0  0.44384  0.52021  0.93014  1.0000
  C   C1091     1.0  0.41340  0.71008  0.75059  1.0000
  C   C1092     1.0  0.55494  0.60466  0.80184  1.0000
  H   H1943     1.0  0.45215  0.56714  0.54216  1.0000
  H   H1944     1.0  0.44223  0.54403  0.84482  1.0000
  H   H1945     1.0  0.39592  0.55045  0.12632  1.0000
  H   H1946     1.0  0.48999  0.49822  0.68684  1.0000
  C   C1093     1.0  0.55491  0.59434  0.74712  1.0000
  H   H1947     1.0  0.47117  0.54003  0.85321  1.0000
  H   H1948     1.0  0.55860  0.54953  0.98869  1.0000
  H   H1949     1.0  0.49837  0.59441  0.35633  1.0000
  C   C1094     1.0  0.46138  0.73602  0.68384  1.0000
  H   H1950     1.0  0.49631  0.50044  0.81307  1.0000
  H   H1951     1.0  0.38990  0.71062  0.85432  1.0000
  H   H1952     1.0  0.45791  0.52103  0.89512  1.0000
  H   H1953     1.0  0.42892  0.50543  0.56995  1.0000
  H   H1954     1.0  0.54525  0.58840  0.76134  1.0000
  H   H1955     1.0  0.40261  0.51769  0.55853  1.0000
  H   H1956     1.0  0.53937  0.60743  0.87091  1.0000
  H   H1957     1.0  0.51064  0.50050  0.93240  1.0000
  H   H1958     1.0  0.48544  0.56621  0.81695  1.0000
  H   H1959     1.0  0.56538  0.53521  0.42801  1.0000
  H   H1960     1.0  0.55254  0.50610  0.46193  1.0000
  H   H1961     1.0  0.40037  0.73957  0.03939  1.0000
  N   N63       1.0  0.56119  0.59678  0.77850  1.0000
  C   C1095     1.0  0.46505  0.54635  0.86084  1.0000
  H   H1962     1.0  0.46420  0.55168  0.83168  1.0000
  C   C1096     1.0  0.40399  0.68925  0.44524  1.0000
  C   C1097     1.0  0.41794  0.70258  0.47098  1.0000
  C   C1098     1.0  0.41496  0.66964  0.10180  1.0000
  H   H1963     1.0  0.44253  0.56200  0.38109  1.0000
  H   H1964     1.0  0.49325  0.53028  0.41371  1.0000
  C   C1099     1.0  0.48564  0.56260  0.84827  1.0000
  H   H1965     1.0  0.45601  0.55226  0.41947  1.0000
  H   H1966     1.0  0.46646  0.54222  0.46776  1.0000
  H   H1967     1.0  0.42108  0.69585  0.81050  1.0000
  H   H1968     1.0  0.42261  0.67606  0.90794  1.0000
  H   H1969     1.0  0.47329  0.55248  0.90618  1.0000
  H   H1970     1.0  0.49152  0.55575  0.84973  1.0000
  H   H1971     1.0  0.49011  0.57063  0.85781  1.0000
  H   H1972     1.0  0.45452  0.55801  0.47926  1.0000
  H   H1973     1.0  0.41884  0.70282  0.75040  1.0000
  C   C1100     1.0  0.41975  0.67807  0.87994  1.0000
  C   C1101     1.0  0.39206  0.64046  0.95564  1.0000
  N   N64       1.0  0.45229  0.53861  0.88792  1.0000
  C   C1102     1.0  0.45330  0.52646  0.91386  1.0000
  C   C1103     1.0  0.47244  0.55649  0.87600  1.0000
  C   C1104     1.0  0.56594  0.53966  0.48302  1.0000
  H   H1974     1.0  0.44300  0.55649  0.08803  1.0000
  H   H1975     1.0  0.47548  0.53891  0.40532  1.0000
  H   H1976     1.0  0.42325  0.53898  0.17673  1.0000
  C   C1105     1.0  0.41505  0.69841  0.43911  1.0000
  H   H1977     1.0  0.42433  0.61932  0.04884  1.0000
  C   C1106     1.0  0.46463  0.56007  0.40434  1.0000
  C   C1107     1.0  0.48902  0.53473  0.43634  1.0000
  H   H1978     1.0  0.44948  0.57683  0.34355  1.0000
  H   H1979     1.0  0.49662  0.53963  0.44652  1.0000
  H   H1980     1.0  0.55029  0.57855  0.81782  1.0000
  H   H1981     1.0  0.46760  0.56421  0.87708  1.0000
  C   C1108     1.0  0.56814  0.53274  0.45516  1.0000
  C   C1109     1.0  0.47512  0.54961  0.44962  1.0000
  C   C1110     1.0  0.48223  0.54406  0.41800  1.0000
  H   H1982     1.0  0.47001  0.55700  0.37981  1.0000
  H   H1983     1.0  0.43250  0.53856  0.04352  1.0000
  S   S256      1.0  0.55774  0.54119  0.91737  1.0000
  Fe  Fe131     1.0  0.47551  0.49653  0.47159  1.0000
  C   C1111     1.0  0.40799  0.63389  0.99071  1.0000
  C   C1112     1.0  0.46078  0.57176  0.38313  1.0000
  H   H1984     1.0  0.46768  0.55478  0.52234  1.0000
  H   H1985     1.0  0.45628  0.57645  0.40436  1.0000
  H   H1986     1.0  0.48244  0.52717  0.46210  1.0000
  C   C1113     1.0  0.41665  0.73231  0.03314  1.0000
  H   H1987     1.0  0.44511  0.55495  0.89178  1.0000
  C   C1114     1.0  0.56501  0.54357  0.98485  1.0000
  C   C1115     1.0  0.42347  0.53963  0.30087  1.0000
  N   N65       1.0  0.47204  0.56198  0.43362  1.0000
  C   C1116     1.0  0.46386  0.56489  0.46821  1.0000
  H   H1988     1.0  0.48096  0.55070  0.47028  1.0000
  H   H1989     1.0  0.48931  0.55152  0.39320  1.0000
  C   C1117     1.0  0.44612  0.54632  0.91220  1.0000
  C   C1118     1.0  0.46089  0.52776  0.94421  1.0000
  C   C1119     1.0  0.45935  0.51491  0.97316  1.0000
  S   S257      1.0  0.47933  0.51904  0.81253  1.0000
  H   H1990     1.0  0.46174  0.57419  0.45878  1.0000
  N   N66       1.0  0.41575  0.62468  0.00097  1.0000
  H   H1991     1.0  0.56809  0.54180  0.53947  1.0000
  H   H1992     1.0  0.48780  0.57190  0.38212  1.0000
  C   C1120     1.0  0.56018  0.58422  0.80700  1.0000
  H   H1993     1.0  0.39887  0.60957  0.07818  1.0000
  C   C1121     1.0  0.53850  0.51299  0.66651  1.0000
  H   H1994     1.0  0.42625  0.53579  0.92758  1.0000
  C   C1122     1.0  0.56951  0.53640  0.51811  1.0000
  H   H1995     1.0  0.43387  0.53172  0.96602  1.0000
  H   H1996     1.0  0.42783  0.67879  0.85463  1.0000
  C   C1123     1.0  0.43313  0.53957  0.94218  1.0000
  H   H1997     1.0  0.45788  0.53403  0.96230  1.0000
  C   C1124     1.0  0.46239  0.57144  0.53229  1.0000
  C   C1125     1.0  0.46816  0.56861  0.05780  1.0000
  H   H1998     1.0  0.53335  0.51906  0.09274  1.0000
  C   C1126     1.0  0.41374  0.66944  0.18827  1.0000
  C   C1127     1.0  0.49040  0.54099  0.54147  1.0000
  C   C1128     1.0  0.40944  0.51078  0.44171  1.0000
  H   H1999     1.0  0.47651  0.54713  0.65138  1.0000
  H   H2000     1.0  0.55972  0.58871  0.72972  1.0000
  C   C1129     1.0  0.57759  0.51950  0.49721  1.0000
  C   C1130     1.0  0.46604  0.74300  0.70794  1.0000
  H   H2001     1.0  0.49602  0.60475  0.38753  1.0000
  H   H2002     1.0  0.50415  0.59278  0.40005  1.0000
  H   H2003     1.0  0.39695  0.52366  0.30567  1.0000
  C   C1131     1.0  0.53727  0.51087  0.02347  1.0000
  H   H2004     1.0  0.46968  0.68337  0.61156  1.0000
  C   C1132     1.0  0.39484  0.70310  0.86166  1.0000
  H   H2005     1.0  0.40745  0.63385  0.92946  1.0000
  H   H2006     1.0  0.46102  0.57261  0.94534  1.0000
  C   C1133     1.0  0.56663  0.56356  0.82244  1.0000
  H   H2007     1.0  0.45222  0.57725  0.06952  1.0000
  H   H2008     1.0  0.46517  0.55968  0.08215  1.0000
  C   C1134     1.0  0.46091  0.57719  0.11685  1.0000
  H   H2009     1.0  0.45604  0.58418  0.12629  1.0000
  C   C1135     1.0  0.46969  0.57901  0.94571  1.0000
  C   C1136     1.0  0.57385  0.52263  0.46237  1.0000
  H   H2010     1.0  0.51776  0.50771  0.72594  1.0000
  C   C1137     1.0  0.54288  0.50562  0.56992  1.0000
  H   H2011     1.0  0.44310  0.54865  0.26576  1.0000
  C   C1138     1.0  0.42455  0.62306  0.50015  1.0000
  S   S258      1.0  0.44635  0.73523  0.96232  1.0000
  H   H2012     1.0  0.44112  0.52393  0.61587  1.0000
  H   H2013     1.0  0.47380  0.55744  0.97552  1.0000
  H   H2014     1.0  0.46351  0.58520  0.99779  1.0000
  H   H2015     1.0  0.40824  0.55645  0.17121  1.0000
  C   C1139     1.0  0.55690  0.49758  0.00359  1.0000
  H   H2016     1.0  0.45542  0.56762  0.13579  1.0000
  H   H2017     1.0  0.40327  0.64296  0.43790  1.0000
  H   H2018     1.0  0.48452  0.56366  0.99992  1.0000
  H   H2019     1.0  0.42096  0.61295  0.50235  1.0000
  H   H2020     1.0  0.48798  0.55021  0.58800  1.0000
  H   H2021     1.0  0.54379  0.50405  0.13720  1.0000
  C   C1140     1.0  0.56624  0.53827  0.95283  1.0000
  H   H2022     1.0  0.44917  0.54382  0.07644  1.0000
  H   H2023     1.0  0.38984  0.61423  0.04413  1.0000
  S   S259      1.0  0.43431  0.73018  0.57837  1.0000
  C   C1141     1.0  0.39592  0.68408  0.48382  1.0000
  C   C1142     1.0  0.43463  0.61721  0.96715  1.0000
  C   C1143     1.0  0.39874  0.68835  0.51569  1.0000
  H   H2024     1.0  0.47225  0.55783  0.70383  1.0000
  C   C1144     1.0  0.47457  0.55862  0.00489  1.0000
  H   H2025     1.0  0.41390  0.53244  0.24928  1.0000
  H   H2026     1.0  0.48276  0.53852  0.98435  1.0000
  H   H2027     1.0  0.57573  0.52657  0.92324  1.0000
  S   S260      1.0  0.39897  0.54204  0.05366  1.0000
  H   H2028     1.0  0.54401  0.52070  0.41785  1.0000
  H   H2029     1.0  0.42295  0.66997  0.16829  1.0000
  H   H2030     1.0  0.43772  0.61674  0.99443  1.0000
  C   C1145     1.0  0.42986  0.66152  0.31852  1.0000
  S   S261      1.0  0.46451  0.73144  0.55448  1.0000
  C   C1146     1.0  0.48621  0.51563  0.69830  1.0000
  H   H2031     1.0  0.43908  0.62211  0.62746  1.0000
  H   H2032     1.0  0.39013  0.50642  0.39165  1.0000
  H   H2033     1.0  0.42597  0.53880  0.09394  1.0000
  H   H2034     1.0  0.47790  0.57592  0.93138  1.0000
  C   C1147     1.0  0.47228  0.54501  0.03156  1.0000
  H   H2035     1.0  0.47233  0.54482  0.06255  1.0000
  H   H2036     1.0  0.42139  0.70241  0.40942  1.0000
  H   H2037     1.0  0.45384  0.52212  0.68200  1.0000
  C   C1148     1.0  0.48242  0.53873  0.01543  1.0000
  H   H2038     1.0  0.48537  0.68172  0.59451  1.0000
  C   C1149     1.0  0.48313  0.52978  0.61555  1.0000
  H   H2039     1.0  0.47914  0.59901  0.91983  1.0000
  C   C1150     1.0  0.40713  0.65180  0.44490  1.0000
  C   C1151     1.0  0.40973  0.69769  0.50939  1.0000
  H   H2040     1.0  0.51959  0.52441  0.08749  1.0000
  H   H2041     1.0  0.48212  0.55039  0.72959  1.0000
  H   H2042     1.0  0.40418  0.65928  0.42572  1.0000
  H   H2043     1.0  0.41682  0.73073  0.00356  1.0000
  H   H2044     1.0  0.42428  0.68002  0.98493  1.0000
  H   H2045     1.0  0.42177  0.64409  0.39128  1.0000
  H   H2046     1.0  0.40961  0.68524  0.15200  1.0000
  H   H2047     1.0  0.54515  0.51377  0.77465  1.0000
  H   H2048     1.0  0.41786  0.63986  0.11422  1.0000
  H   H2049     1.0  0.51942  0.51657  0.02930  1.0000
  C   C1152     1.0  0.57537  0.52643  0.52501  1.0000
  C   C1153     1.0  0.53019  0.50827  0.96515  1.0000
  H   H2050     1.0  0.52339  0.50151  0.81506  1.0000
  H   H2051     1.0  0.42667  0.55188  0.05318  1.0000
  C   C1154     1.0  0.57466  0.53061  0.94811  1.0000
  H   H2052     1.0  0.52551  0.50060  0.55678  1.0000
  C   C1155     1.0  0.43011  0.53138  0.40570  1.0000
  H   H2053     1.0  0.41380  0.66221  0.36218  1.0000
  H   H2054     1.0  0.44004  0.66230  0.31398  1.0000
  H   H2055     1.0  0.44147  0.67758  0.07848  1.0000
  C   C1156     1.0  0.39566  0.68513  0.98493  1.0000
  S   S262      1.0  0.41245  0.70353  0.54955  1.0000
  H   H2056     1.0  0.41294  0.66570  0.07744  1.0000
  H   H2057     1.0  0.46623  0.51141  0.70897  1.0000
  C   C1157     1.0  0.39919  0.69825  0.96799  1.0000
  C   C1158     1.0  0.39107  0.64773  0.12501  1.0000
  C   C1159     1.0  0.42266  0.63521  0.09324  1.0000
  H   H2058     1.0  0.39622  0.67415  0.18569  1.0000
  H   H2059     1.0  0.45148  0.50964  0.32248  1.0000
  C   C1160     1.0  0.41599  0.50249  0.89853  1.0000
  H   H2060     1.0  0.40222  0.64321  0.51014  1.0000
  H   H2061     1.0  0.40142  0.50932  0.52290  1.0000
  C   C1161     1.0  0.42394  0.66331  0.35899  1.0000
  H   H2062     1.0  0.46556  0.73883  0.65197  1.0000
  C   C1162     1.0  0.42380  0.68290  0.08061  1.0000
  H   H2063     1.0  0.43811  0.53937  0.39186  1.0000
  C   C1163     1.0  0.57938  0.51931  0.31520  1.0000
  H   H2064     1.0  0.57533  0.51723  0.44113  1.0000
  H   H2065     1.0  0.43177  0.63453  0.01599  1.0000
  H   H2066     1.0  0.43492  0.62525  0.49199  1.0000
  H   H2067     1.0  0.42268  0.62563  0.11040  1.0000
  H   H2068     1.0  0.44235  0.69138  0.03970  1.0000
  C   C1164     1.0  0.54654  0.60238  0.68894  1.0000
  C   C1165     1.0  0.42159  0.50887  0.43348  1.0000
  C   C1166     1.0  0.42241  0.74044  0.81264  1.0000
  C   C1167     1.0  0.45105  0.72843  0.76693  1.0000
  H   H2069     1.0  0.42866  0.66899  0.29452  1.0000
  C   C1168     1.0  0.47704  0.53832  0.67197  1.0000
  H   H2070     1.0  0.41406  0.64372  0.97932  1.0000
  H   H2071     1.0  0.54662  0.51887  0.64120  1.0000
  C   C1169     1.0  0.46071  0.73940  0.74949  1.0000
  H   H2072     1.0  0.49951  0.53885  0.54235  1.0000
  C   C1170     1.0  0.42716  0.53054  0.18143  1.0000
  C   C1171     1.0  0.42569  0.62605  0.96315  1.0000
  H   H2073     1.0  0.48495  0.53356  0.53176  1.0000
  C   C1172     1.0  0.54741  0.50244  0.44241  1.0000
  C   C1173     1.0  0.53352  0.49598  0.46529  1.0000
  C   C1174     1.0  0.41751  0.50658  0.96118  1.0000
  C   C1175     1.0  0.43648  0.68185  0.05768  1.0000
  H   H2074     1.0  0.44681  0.49627  0.30446  1.0000
  H   H2075     1.0  0.43138  0.63603  0.95098  1.0000
  H   H2076     1.0  0.53835  0.51023  0.51452  1.0000
  C   C1176     1.0  0.43939  0.52867  0.50998  1.0000
  C   C1177     1.0  0.39242  0.55025  0.22355  1.0000
  C   C1178     1.0  0.44303  0.51483  0.62944  1.0000
  H   H2077     1.0  0.46608  0.54874  0.75520  1.0000
  C   C1179     1.0  0.41984  0.52588  0.25688  1.0000
  H   H2078     1.0  0.54196  0.50708  0.04591  1.0000
  C   C1180     1.0  0.42866  0.51751  0.51442  1.0000
  H   H2079     1.0  0.45177  0.63108  0.92991  1.0000
  H   H2080     1.0  0.43522  0.67588  0.03736  1.0000
  H   H2081     1.0  0.42527  0.65217  0.31626  1.0000
  H   H2082     1.0  0.40527  0.60799  0.99115  1.0000
  H   H2083     1.0  0.47373  0.54217  0.58110  1.0000
  C   C1181     1.0  0.51630  0.50674  0.80882  1.0000
  H   H2084     1.0  0.40974  0.62866  0.47840  1.0000
  H   H2085     1.0  0.44368  0.62189  0.90333  1.0000
  H   H2086     1.0  0.57265  0.52105  0.29766  1.0000
  H   H2087     1.0  0.42325  0.62891  0.44033  1.0000
  H   H2088     1.0  0.48694  0.54007  0.67314  1.0000
  H   H2089     1.0  0.40208  0.70231  0.71568  1.0000
  C   C1182     1.0  0.41616  0.67683  0.21789  1.0000
  C   C1183     1.0  0.57251  0.54157  0.01101  1.0000
  N   N67       1.0  0.40297  0.66905  0.13163  1.0000
  C   C1184     1.0  0.53011  0.50163  0.93152  1.0000
  H   H2090     1.0  0.48268  0.49649  0.54435  1.0000
  H   H2091     1.0  0.42486  0.71754  0.80518  1.0000
  H   H2092     1.0  0.45899  0.53504  0.63869  1.0000
  H   H2093     1.0  0.42930  0.49709  0.92895  1.0000
  C   C1185     1.0  0.40531  0.67496  0.16406  1.0000
  H   H2094     1.0  0.41460  0.54238  0.30063  1.0000
  H   H2095     1.0  0.45231  0.61487  0.93515  1.0000
  H   H2096     1.0  0.45869  0.53657  0.71277  1.0000
  H   H2097     1.0  0.43559  0.56228  0.30889  1.0000
  C   C1186     1.0  0.47252  0.54931  0.72621  1.0000
  H   H2098     1.0  0.56483  0.57282  0.76552  1.0000
  S   S263      1.0  0.40148  0.55421  0.25487  1.0000
  S   S264      1.0  0.45186  0.49832  0.79088  1.0000
  S   S265      1.0  0.39224  0.52515  0.44290  1.0000
  H   H2099     1.0  0.40129  0.51009  0.63153  1.0000
  H   H2100     1.0  0.48486  0.51949  0.72432  1.0000
  N   N68       1.0  0.47384  0.52728  0.65555  1.0000
  H   H2101     1.0  0.47994  0.49624  0.73600  1.0000
  S   S266      1.0  0.40013  0.66207  0.01323  1.0000
  H   H2102     1.0  0.42295  0.49941  0.44054  1.0000
  C   C1187     1.0  0.43449  0.52283  0.30016  1.0000
  C   C1188     1.0  0.54850  0.51361  0.40725  1.0000
  H   H2103     1.0  0.55851  0.51825  0.39197  1.0000
  H   H2104     1.0  0.46883  0.52910  0.73662  1.0000
  C   C1189     1.0  0.46853  0.53739  0.71352  1.0000
  C   C1190     1.0  0.40840  0.71137  0.71404  1.0000
  C   C1191     1.0  0.40048  0.50793  0.55529  1.0000
  H   H2105     1.0  0.40302  0.65982  0.49575  1.0000
  H   H2106     1.0  0.55212  0.49568  0.43054  1.0000
  C   C1192     1.0  0.52009  0.50417  0.91083  1.0000
  H   H2107     1.0  0.52912  0.50265  0.74796  1.0000
  C   C1193     1.0  0.44629  0.62158  0.93154  1.0000
  H   H2108     1.0  0.43581  0.53578  0.52332  1.0000
  H   H2109     1.0  0.53668  0.59775  0.70653  1.0000
  C   C1194     1.0  0.43370  0.55047  0.26870  1.0000
  C   C1195     1.0  0.40566  0.50223  0.64033  1.0000
  H   H2110     1.0  0.46571  0.51585  0.99237  1.0000
  H   H2111     1.0  0.40144  0.50276  0.45538  1.0000
  C   C1196     1.0  0.39702  0.63025  0.35222  1.0000
  H   H2112     1.0  0.57186  0.54608  0.03484  1.0000
  H   H2113     1.0  0.57824  0.52410  0.55203  1.0000
  C   C1197     1.0  0.43419  0.56302  0.27887  1.0000
  H   H2114     1.0  0.42032  0.74064  0.64221  1.0000
  H   H2115     1.0  0.57036  0.56583  0.84683  1.0000
  H   H2116     1.0  0.40637  0.58223  0.22300  1.0000
  Fe  Fe132     1.0  0.46567  0.50059  0.82579  1.0000
  H   H2117     1.0  0.42538  0.56593  0.27808  1.0000
  H   H2118     1.0  0.40330  0.71893  0.71157  1.0000
  H   H2119     1.0  0.41997  0.52214  0.18272  1.0000
  S   S267      1.0  0.44738  0.51729  0.40592  1.0000
  H   H2120     1.0  0.38892  0.68223  0.88325  1.0000
  H   H2121     1.0  0.43678  0.52494  0.32706  1.0000
  C   C1198     1.0  0.39446  0.67522  0.11093  1.0000
  H   H2122     1.0  0.44206  0.57041  0.25645  1.0000
  S   S268      1.0  0.39591  0.55138  0.96335  1.0000
  C   C1199     1.0  0.56798  0.57563  0.79010  1.0000
  C   C1200     1.0  0.44734  0.50651  0.29988  1.0000
  H   H2123     1.0  0.51963  0.50410  0.07101  1.0000
  H   H2124     1.0  0.52044  0.49919  0.88738  1.0000
  H   H2125     1.0  0.40088  0.63390  0.01763  1.0000
  H   H2126     1.0  0.53935  0.50515  0.90869  1.0000
  H   H2127     1.0  0.39521  0.63636  0.32613  1.0000
  C   C1201     1.0  0.54862  0.50152  0.97625  1.0000
  H   H2128     1.0  0.44636  0.52542  0.52453  1.0000
  H   H2129     1.0  0.40608  0.68540  0.83127  1.0000
  H   H2130     1.0  0.57808  0.58039  0.77861  1.0000
  H   H2131     1.0  0.39673  0.72834  0.43967  1.0000
  C   C1202     1.0  0.52520  0.51302  0.04829  1.0000
  H   H2132     1.0  0.40703  0.63010  0.34446  1.0000
  H   H2133     1.0  0.38879  0.70764  0.48566  1.0000
  H   H2134     1.0  0.57517  0.61340  0.73955  1.0000
  H   H2135     1.0  0.54664  0.61090  0.66587  1.0000
  H   H2136     1.0  0.52165  0.51445  0.89703  1.0000
  H   H2137     1.0  0.54998  0.61264  0.73070  1.0000
  H   H2138     1.0  0.40169  0.50925  0.87562  1.0000
  H   H2139     1.0  0.39746  0.70427  0.88899  1.0000
  H   H2140     1.0  0.56383  0.61141  0.69684  1.0000
  C   C1203     1.0  0.40630  0.50872  0.89909  1.0000
  H   H2141     1.0  0.43946  0.71260  0.75676  1.0000
  H   H2142     1.0  0.39213  0.70329  0.96352  1.0000
  H   H2143     1.0  0.43854  0.53705  0.21658  1.0000
  C   C1204     1.0  0.39830  0.55223  0.18302  1.0000
  C   C1205     1.0  0.49157  0.50292  0.54008  1.0000
  C   C1206     1.0  0.41193  0.51756  0.32976  1.0000
  H   H2144     1.0  0.41148  0.72337  0.05652  1.0000
  H   H2145     1.0  0.39430  0.58798  0.07302  1.0000
  H   H2146     1.0  0.57205  0.49709  0.27118  1.0000
  H   H2147     1.0  0.42638  0.73476  0.03532  1.0000
  H   H2148     1.0  0.41196  0.67006  0.88227  1.0000
  C   C1207     1.0  0.39642  0.65526  0.15154  1.0000
  H   H2149     1.0  0.55837  0.49918  0.30363  1.0000
  H   H2150     1.0  0.57417  0.51261  0.34481  1.0000
  H   H2151     1.0  0.55481  0.49969  0.10129  1.0000
  H   H2152     1.0  0.43103  0.74115  0.78928  1.0000
  H   H2153     1.0  0.57897  0.53621  0.33360  1.0000
  H   H2154     1.0  0.41550  0.49649  0.51142  1.0000
  H   H2155     1.0  0.39231  0.69093  0.13696  1.0000
  S   S269      1.0  0.58542  0.49773  0.40674  1.0000
  H   H2156     1.0  0.40446  0.72535  0.49994  1.0000
  C   C1208     1.0  0.39817  0.73170  0.49506  1.0000
  C   C1209     1.0  0.54691  0.49593  0.12900  1.0000
  C   C1210     1.0  0.39019  0.72759  0.46884  1.0000
  Fe  Fe133     1.0  0.39217  0.53297  0.01003  1.0000
  H   H2157     1.0  0.58284  0.59693  0.80715  1.0000
  C   C1211     1.0  0.58292  0.60594  0.78643  1.0000
  H   H2158     1.0  0.42846  0.50290  0.33500  1.0000
  C   C1212     1.0  0.39133  0.54884  0.15753  1.0000
  H   H2159     1.0  0.41422  0.51688  0.35861  1.0000
  Fe  Fe134     1.0  0.39137  0.55432  0.31675  1.0000
  C   C1213     1.0  0.41194  0.72933  0.81488  1.0000
  C   C1214     1.0  0.39903  0.52080  0.33475  1.0000
  C   C1215     1.0  0.43424  0.50870  0.30465  1.0000
  H   H2160     1.0  0.42449  0.73927  0.84188  1.0000
  S   S270      1.0  0.58510  0.50713  0.50720  1.0000
  H   H2161     1.0  0.39513  0.63429  0.37788  1.0000
  H   H2162     1.0  0.45352  0.51172  0.26953  1.0000
  H   H2163     1.0  0.40403  0.74146  0.48021  1.0000
  H   H2164     1.0  0.41051  0.50784  0.32621  1.0000
  H   H2165     1.0  0.40999  0.73106  0.78545  1.0000
  H   H2166     1.0  0.43193  0.73719  0.66714  1.0000
  H   H2167     1.0  0.40351  0.72936  0.83770  1.0000
  C   C1216     1.0  0.58615  0.53180  0.31967  1.0000
  H   H2168     1.0  0.58619  0.51491  0.29924  1.0000
  H   H2169     1.0  0.39890  0.52865  0.34880  1.0000
  H   H2170     1.0  0.43020  0.50522  0.28249  1.0000
  H   H2171     1.0  0.39001  0.69363  0.05197  1.0000
  C   C1217     1.0  0.38888  0.61679  0.36342  1.0000
  C   C1218     1.0  0.42645  0.74417  0.65957  1.0000
  H   H2172     1.0  0.54798  0.49467  0.95820  1.0000
  Fe  Fe135     1.0  0.49247  0.83180  0.42938  1.0000
  S   S271      1.0  0.50655  0.84918  0.38486  1.0000
  S   S272      1.0  0.49574  0.81210  0.44813  1.0000
  Fe  Fe136     1.0  0.47230  0.84539  0.44301  1.0000
  S   S273      1.0  0.48429  0.86357  0.40026  1.0000
  S   S274      1.0  0.45261  0.84452  0.47593  1.0000
  Fe  Fe137     1.0  0.49039  0.85192  0.35956  1.0000
  S   S275      1.0  0.48934  0.85953  0.29583  1.0000
  Fe  Fe138     1.0  0.49965  0.85995  0.42851  1.0000
  S   S276      1.0  0.50954  0.87835  0.43972  1.0000
  S   S277      1.0  0.47709  0.83397  0.40054  1.0000
  S   S278      1.0  0.48689  0.84233  0.47464  1.0000
  Fe  Fe139     1.0  0.53564  0.94908  0.54438  1.0000
  S   S279      1.0  0.53218  0.93025  0.58816  1.0000
  S   S280      1.0  0.51967  0.95714  0.53331  1.0000
  Fe  Fe140     1.0  0.56368  0.95381  0.52529  1.0000
  S   S281      1.0  0.56247  0.93486  0.56714  1.0000
  H   H2173     1.0  0.41133  0.94697  0.96715  1.0000
  Fe  Fe141     1.0  0.54705  0.92673  0.54177  1.0000
  S   S282      1.0  0.54370  0.90701  0.53058  1.0000
  Fe  Fe142     1.0  0.54748  0.93980  0.60999  1.0000
  S   S283      1.0  0.54227  0.93724  0.67726  1.0000
  S   S284      1.0  0.54968  0.94527  0.49667  1.0000
  S   S285      1.0  0.54961  0.95896  0.56946  1.0000
  Fe  Fe143     1.0  0.42882  0.90459  0.56632  1.0000
  S   S286      1.0  0.43906  0.89966  0.61256  1.0000
  H   H2174     1.0  0.56122  0.99067  0.52725  1.0000
  Fe  Fe144     1.0  0.44147  0.93320  0.54993  1.0000
  S   S287      1.0  0.45167  0.92974  0.59663  1.0000
  Fe  Fe145     1.0  0.45589  0.91410  0.57093  1.0000
  S   S288      1.0  0.47505  0.91035  0.55845  1.0000
  Fe  Fe146     1.0  0.43405  0.91565  0.63564  1.0000
  S   S289      1.0  0.42964  0.90970  0.70388  1.0000
  S   S290      1.0  0.44640  0.91782  0.52276  1.0000
  S   S291      1.0  0.42289  0.92017  0.59115  1.0000
  Fe  Fe147     1.0  0.48439  0.82632  0.03237  1.0000
  S   S292      1.0  0.47703  0.84266  0.00679  1.0000
  S   S293      1.0  0.48698  0.80973  0.00653  1.0000
  Fe  Fe148     1.0  0.48830  0.83682  0.10242  1.0000
  S   S294      1.0  0.48093  0.85369  0.08251  1.0000
  S   S295      1.0  0.49478  0.83191  0.15837  1.0000
  Fe  Fe149     1.0  0.46631  0.83994  0.06996  1.0000
  S   S296      1.0  0.44636  0.84125  0.08523  1.0000
  Fe  Fe150     1.0  0.49246  0.85524  0.02083  1.0000
  S   S297      1.0  0.50065  0.87485  0.97670  1.0000
  S   S298      1.0  0.47258  0.82286  0.09512  1.0000
  S   S299      1.0  0.50090  0.83913  0.04128  1.0000
  Fe  Fe151     1.0  0.53897  0.96121  0.90071  1.0000
  S   S300      1.0  0.54391  0.95411  0.95721  1.0000
  S   S301      1.0  0.52100  0.96660  0.89927  1.0000
  Fe  Fe152     1.0  0.56297  0.95948  0.84802  1.0000
  S   S302      1.0  0.57017  0.95273  0.90111  1.0000
  S   S303      1.0  0.57303  0.96007  0.78441  1.0000
  Fe  Fe153     1.0  0.55073  0.93990  0.92835  1.0000
  S   S304      1.0  0.54782  0.91896  0.95908  1.0000
  Fe  Fe154     1.0  0.56283  0.96777  0.92573  1.0000
  S   S305      1.0  0.56854  0.97959  0.96730  1.0000
  S   S306      1.0  0.54413  0.94599  0.87451  1.0000
  S   S307      1.0  0.55726  0.97549  0.87007  1.0000
  Fe  Fe155     1.0  0.43826  0.93066  0.89353  1.0000
  S   S308      1.0  0.42581  0.92683  0.95625  1.0000
  S   S309      1.0  0.43374  0.93908  0.83584  1.0000
  Fe  Fe156     1.0  0.45947  0.92345  0.92395  1.0000
  S   S310      1.0  0.44873  0.91889  0.98788  1.0000
  S   S311      1.0  0.47847  0.91965  0.91176  1.0000
  Fe  Fe157     1.0  0.43271  0.90910  0.96934  1.0000
  H   H2175     1.0  0.47585  0.83580  0.58829  1.0000
  Fe  Fe158     1.0  0.44310  0.93703  0.96932  1.0000
  S   S312      1.0  0.44412  0.91247  0.90626  1.0000
  S   S313      1.0  0.45479  0.94206  0.90583  1.0000
  S   S314      1.0  0.45241  0.76120  0.49865  1.0000
  S   S315      1.0  0.45194  0.77235  0.94114  1.0000
  C   C1219     1.0  0.39461  0.89720  0.11993  1.0000
  H   H2176     1.0  0.47587  0.95970  0.60132  1.0000
  C   C1220     1.0  0.45278  0.80063  0.36822  1.0000
  H   H2177     1.0  0.45266  0.82167  0.45111  1.0000
  C   C1221     1.0  0.48994  0.85024  0.59705  1.0000
  H   H2178     1.0  0.43432  0.85489  0.24897  1.0000
  C   C1222     1.0  0.50906  0.95349  0.90433  1.0000
  C   C1223     1.0  0.51038  0.94121  0.91745  1.0000
  C   C1224     1.0  0.50085  0.93084  0.92021  1.0000
  C   C1225     1.0  0.49004  0.93271  0.90972  1.0000
  C   C1226     1.0  0.48868  0.94498  0.89709  1.0000
  C   C1227     1.0  0.49814  0.95536  0.89467  1.0000
  H   H2179     1.0  0.51870  0.93970  0.92564  1.0000
  H   H2180     1.0  0.50184  0.92136  0.93029  1.0000
  H   H2181     1.0  0.48053  0.94649  0.88799  1.0000
  H   H2182     1.0  0.49716  0.96485  0.88445  1.0000
  Fe  Fe159     1.0  0.45419  0.75480  0.91982  1.0000
  C   C1228     1.0  0.45652  0.97016  0.53804  1.0000
  H   H2183     1.0  0.42709  0.84447  0.47746  1.0000
  C   C1229     1.0  0.47691  0.79938  0.98918  1.0000
  C   C1230     1.0  0.46523  0.80107  0.98562  1.0000
  C   C1231     1.0  0.45778  0.79277  0.97074  1.0000
  C   C1232     1.0  0.46179  0.78257  0.95964  1.0000
  C   C1233     1.0  0.47340  0.78082  0.96355  1.0000
  C   C1234     1.0  0.48090  0.78919  0.97806  1.0000
  H   H2184     1.0  0.46202  0.80887  0.99381  1.0000
  H   H2185     1.0  0.44891  0.79438  0.96750  1.0000
  H   H2186     1.0  0.47667  0.77307  0.95516  1.0000
  H   H2187     1.0  0.48991  0.78778  0.98058  1.0000
  C   C1235     1.0  0.51402  0.88685  0.97152  1.0000
  C   C1236     1.0  0.51480  0.89933  0.95075  1.0000
  C   C1237     1.0  0.52509  0.90926  0.94658  1.0000
  C   C1238     1.0  0.53488  0.90675  0.96226  1.0000
  C   C1239     1.0  0.53430  0.89420  0.98187  1.0000
  C   C1240     1.0  0.52388  0.88430  0.98679  1.0000
  H   H2188     1.0  0.50728  0.90137  0.93849  1.0000
  H   H2189     1.0  0.52539  0.91886  0.93156  1.0000
  H   H2190     1.0  0.54191  0.89214  0.99373  1.0000
  H   H2191     1.0  0.52356  0.87469  0.00187  1.0000
  C   C1241     1.0  0.43685  0.83133  0.06634  1.0000
  H   H2192     1.0  0.45711  0.84904  0.39017  1.0000
  H   H2193     1.0  0.46989  0.79246  0.28278  1.0000
  H   H2194     1.0  0.53652  0.95082  0.39010  1.0000
  H   H2195     1.0  0.54611  0.95816  0.41651  1.0000
  H   H2196     1.0  0.46168  0.83846  0.27028  1.0000
  C   C1242     1.0  0.40411  0.88922  0.11110  1.0000
  C   C1243     1.0  0.46450  0.89876  0.67379  1.0000
  H   H2197     1.0  0.49282  0.90562  0.13918  1.0000
  H   H2198     1.0  0.44803  0.81774  0.06488  1.0000
  C   C1244     1.0  0.43139  0.91833  0.73908  1.0000
  C   C1245     1.0  0.43140  0.91172  0.77745  1.0000
  C   C1246     1.0  0.43234  0.91799  0.80702  1.0000
  C   C1247     1.0  0.43303  0.93093  0.79885  1.0000
  C   C1248     1.0  0.43307  0.93757  0.76041  1.0000
  C   C1249     1.0  0.43239  0.93134  0.73052  1.0000
  H   H2199     1.0  0.40588  0.77817  0.25869  1.0000
  H   H2200     1.0  0.43223  0.91273  0.83641  1.0000
  C   C1250     1.0  0.55120  0.94493  0.70366  1.0000
  C   C1251     1.0  0.54497  0.94844  0.73650  1.0000
  C   C1252     1.0  0.55153  0.95321  0.76119  1.0000
  C   C1253     1.0  0.56439  0.95429  0.75376  1.0000
  C   C1254     1.0  0.57062  0.95081  0.72085  1.0000
  C   C1255     1.0  0.56411  0.94627  0.69565  1.0000
  H   H2201     1.0  0.53496  0.94735  0.74318  1.0000
  H   H2202     1.0  0.54660  0.95597  0.78613  1.0000
  H   H2203     1.0  0.39879  0.86270  0.18743  1.0000
  H   H2204     1.0  0.56898  0.94333  0.67104  1.0000
  C   C1256     1.0  0.40044  0.88495  0.88491  1.0000
  C   C1257     1.0  0.48841  0.80208  0.28552  1.0000
  C   C1258     1.0  0.50548  0.89011  0.59273  1.0000
  H   H2205     1.0  0.39106  0.85212  0.10434  1.0000
  H   H2206     1.0  0.47763  0.88325  0.60717  1.0000
  C   C1259     1.0  0.50732  0.94436  0.53876  1.0000
  C   C1260     1.0  0.50972  0.93296  0.53368  1.0000
  C   C1261     1.0  0.49979  0.92263  0.53912  1.0000
  C   C1262     1.0  0.48742  0.92363  0.54967  1.0000
  C   C1263     1.0  0.48512  0.93518  0.55343  1.0000
  C   C1264     1.0  0.49502  0.94550  0.54828  1.0000
  H   H2207     1.0  0.51924  0.93210  0.52518  1.0000
  H   H2208     1.0  0.50178  0.91395  0.53476  1.0000
  H   H2209     1.0  0.47578  0.93632  0.55969  1.0000
  H   H2210     1.0  0.49312  0.95434  0.55188  1.0000
  C   C1265     1.0  0.48273  0.79771  0.22443  1.0000
  C   C1266     1.0  0.45289  0.82871  0.23494  1.0000
  H   H2211     1.0  0.53229  0.94567  0.44405  1.0000
  C   C1267     1.0  0.48358  0.79801  0.46261  1.0000
  C   C1268     1.0  0.48633  0.78623  0.47419  1.0000
  C   C1269     1.0  0.47699  0.77486  0.48472  1.0000
  C   C1270     1.0  0.46471  0.77514  0.48455  1.0000
  C   C1271     1.0  0.46199  0.78692  0.47288  1.0000
  C   C1272     1.0  0.47134  0.79828  0.46193  1.0000
  H   H2212     1.0  0.49580  0.78590  0.47445  1.0000
  H   H2213     1.0  0.47931  0.76587  0.49247  1.0000
  H   H2214     1.0  0.45253  0.78726  0.47257  1.0000
  H   H2215     1.0  0.46903  0.80723  0.45321  1.0000
  C   C1273     1.0  0.49078  0.85156  0.25836  1.0000
  C   C1274     1.0  0.48618  0.85559  0.22563  1.0000
  C   C1275     1.0  0.48723  0.84963  0.19484  1.0000
  C   C1276     1.0  0.49327  0.83982  0.19596  1.0000
  C   C1277     1.0  0.49809  0.83596  0.22827  1.0000
  C   C1278     1.0  0.49669  0.84167  0.25966  1.0000
  H   H2216     1.0  0.48174  0.86332  0.22431  1.0000
  H   H2217     1.0  0.48346  0.85266  0.17015  1.0000
  H   H2218     1.0  0.50308  0.82862  0.22872  1.0000
  H   H2219     1.0  0.50056  0.83875  0.28413  1.0000
  C   C1279     1.0  0.51979  0.88628  0.46314  1.0000
  C   C1280     1.0  0.52621  0.87996  0.48699  1.0000
  C   C1281     1.0  0.53353  0.88649  0.50685  1.0000
  C   C1282     1.0  0.53444  0.89940  0.50389  1.0000
  C   C1283     1.0  0.52794  0.90572  0.48028  1.0000
  C   C1284     1.0  0.52079  0.89924  0.45986  1.0000
  H   H2220     1.0  0.52555  0.87003  0.49015  1.0000
  H   H2221     1.0  0.53851  0.88147  0.52487  1.0000
  H   H2222     1.0  0.52846  0.91561  0.47760  1.0000
  H   H2223     1.0  0.51580  0.90426  0.44192  1.0000
  C   C1285     1.0  0.44115  0.83427  0.46423  1.0000
  H   H2224     1.0  0.47407  0.89239  0.47045  1.0000
  H   H2225     1.0  0.47714  0.88602  0.18725  1.0000
  C   C1286     1.0  0.44382  0.82397  0.45122  1.0000
  H   H2226     1.0  0.47662  0.93745  0.42283  1.0000
  N   N69       1.0  0.39968  0.87512  0.13008  1.0000
  H   H2227     1.0  0.49024  0.89190  0.45846  1.0000
  H   H2228     1.0  0.46539  0.85869  0.34083  1.0000
  H   H2229     1.0  0.44485  0.86958  0.17416  1.0000
  H   H2230     1.0  0.46395  0.86537  0.58415  1.0000
  C   C1287     1.0  0.51999  0.92647  0.83789  1.0000
  H   H2231     1.0  0.43980  0.83959  0.36610  1.0000
  H   H2232     1.0  0.48111  0.89857  0.20945  1.0000
  H   H2233     1.0  0.51290  0.80427  0.32848  1.0000
  H   H2234     1.0  0.45447  0.83675  0.34299  1.0000
  N   N70       1.0  0.44306  0.84177  0.28006  1.0000
  H   H2235     1.0  0.45506  0.80989  0.25969  1.0000
  N   N71       1.0  0.41432  0.79955  0.18852  1.0000
  C   C1288     1.0  0.42602  0.79580  0.17093  1.0000
  H   H2236     1.0  0.58086  0.93738  0.82095  1.0000
  C   C1289     1.0  0.41536  0.81295  0.16590  1.0000
  C   C1290     1.0  0.41264  0.79878  0.23207  1.0000
  H   H2237     1.0  0.47888  0.99307  0.43850  1.0000
  C   C1291     1.0  0.43836  0.80277  0.17668  1.0000
  C   C1292     1.0  0.40393  0.81828  0.17927  1.0000
  H   H2238     1.0  0.40455  0.82649  0.31377  1.0000
  H   H2239     1.0  0.44954  0.82506  0.29916  1.0000
  N   N72       1.0  0.47255  0.93069  0.70073  1.0000
  C   C1293     1.0  0.44898  0.79675  0.16266  1.0000
  C   C1294     1.0  0.40583  0.83172  0.15371  1.0000
  H   H2240     1.0  0.42778  0.79757  0.13813  1.0000
  H   H2241     1.0  0.42481  0.78544  0.18257  1.0000
  H   H2242     1.0  0.44770  0.78398  0.74584  1.0000
  H   H2243     1.0  0.40980  0.82905  0.03966  1.0000
  H   H2244     1.0  0.41713  0.81390  0.13341  1.0000
  H   H2245     1.0  0.42360  0.81946  0.16861  1.0000
  H   H2246     1.0  0.41953  0.80660  0.23558  1.0000
  H   H2247     1.0  0.41476  0.85623  0.42074  1.0000
  C   C1295     1.0  0.39773  0.86701  0.47740  1.0000
  H   H2248     1.0  0.42413  0.84029  0.31345  1.0000
  H   H2249     1.0  0.44113  0.81284  0.15883  1.0000
  H   H2250     1.0  0.43758  0.80243  0.20828  1.0000
  H   H2251     1.0  0.42262  0.87496  0.15008  1.0000
  H   H2252     1.0  0.40839  0.89655  0.48779  1.0000
  C   C1296     1.0  0.43959  0.82016  0.05986  1.0000
  H   H2253     1.0  0.49282  0.94085  0.45898  1.0000
  C   C1297     1.0  0.42937  0.83673  0.46644  1.0000
  H   H2254     1.0  0.47137  0.88436  0.54118  1.0000
  C   C1298     1.0  0.48722  0.94789  0.45427  1.0000
  H   H2255     1.0  0.43475  0.86987  0.55472  1.0000
  C   C1299     1.0  0.43119  0.81191  0.04789  1.0000
  H   H2256     1.0  0.44674  0.78665  0.17977  1.0000
  H   H2257     1.0  0.45068  0.79747  0.13034  1.0000
  H   H2258     1.0  0.45773  0.80168  0.16739  1.0000
  H   H2259     1.0  0.40884  0.89230  0.86487  1.0000
  S   S316      1.0  0.46638  0.74881  0.77848  1.0000
  H   H2260     1.0  0.40309  0.83428  0.97858  1.0000
  N   N73       1.0  0.45371  0.77448  0.63765  1.0000
  C   C1300     1.0  0.45020  0.78264  0.60419  1.0000
  C   C1301     1.0  0.44338  0.76255  0.65921  1.0000
  C   C1302     1.0  0.45521  0.78188  0.66748  1.0000
  C   C1303     1.0  0.46597  0.77138  0.62279  1.0000
  C   C1304     1.0  0.46648  0.76375  0.59192  1.0000
  C   C1305     1.0  0.46023  0.79484  0.57777  1.0000
  C   C1306     1.0  0.45774  0.77468  0.70635  1.0000
  C   C1307     1.0  0.43524  0.75697  0.63472  1.0000
  C   C1308     1.0  0.40051  0.88067  0.99607  1.0000
  S   S317      1.0  0.39006  0.85989  0.44604  1.0000
  C   C1309     1.0  0.45476  0.80320  0.54978  1.0000
  H   H2261     1.0  0.42879  0.76015  0.05960  1.0000
  H   H2262     1.0  0.44145  0.78532  0.61659  1.0000
  H   H2263     1.0  0.44799  0.77736  0.58283  1.0000
  H   H2264     1.0  0.44727  0.75494  0.67386  1.0000
  H   H2265     1.0  0.43648  0.76419  0.68395  1.0000
  H   H2266     1.0  0.44671  0.78541  0.67631  1.0000
  H   H2267     1.0  0.46316  0.79039  0.65414  1.0000
  H   H2268     1.0  0.47371  0.78014  0.61024  1.0000
  H   H2269     1.0  0.46848  0.76565  0.64787  1.0000
  H   H2270     1.0  0.46376  0.76851  0.56580  1.0000
  H   H2271     1.0  0.58757  0.98543  0.60758  1.0000
  H   H2272     1.0  0.46403  0.80067  0.59549  1.0000
  H   H2273     1.0  0.46812  0.79234  0.55900  1.0000
  H   H2274     1.0  0.46722  0.77294  0.69977  1.0000
  H   H2275     1.0  0.45086  0.76544  0.72123  1.0000
  H   H2276     1.0  0.42932  0.76336  0.62595  1.0000
  H   H2277     1.0  0.44095  0.75566  0.60719  1.0000
  C   C1310     1.0  0.40204  0.79161  0.14213  1.0000
  H   H2278     1.0  0.40575  0.83173  0.12284  1.0000
  C   C1311     1.0  0.45381  0.97595  0.88530  1.0000
  H   H2279     1.0  0.48738  0.96520  0.41413  1.0000
  C   C1312     1.0  0.47142  0.98652  0.00828  1.0000
  H   H2280     1.0  0.39913  0.84981  0.51534  1.0000
  H   H2281     1.0  0.46231  0.81134  0.52903  1.0000
  H   H2282     1.0  0.45040  0.79783  0.53179  1.0000
  H   H2283     1.0  0.44759  0.80692  0.56705  1.0000
  C   C1313     1.0  0.38943  0.85832  0.01417  1.0000
  H   H2284     1.0  0.42976  0.85766  0.12606  1.0000
  H   H2285     1.0  0.45927  0.77709  0.76355  1.0000
  H   H2286     1.0  0.48693  0.82985  0.61166  1.0000
  H   H2287     1.0  0.47066  0.93255  0.47631  1.0000
  C   C1314     1.0  0.42314  0.82462  0.28700  1.0000
  H   H2288     1.0  0.52939  0.96695  0.44618  1.0000
  H   H2289     1.0  0.53903  0.98183  0.52172  1.0000
  N   N74       1.0  0.46048  0.87395  0.94359  1.0000
  C   C1315     1.0  0.44779  0.87645  0.94490  1.0000
  C   C1316     1.0  0.46268  0.87301  0.98401  1.0000
  C   C1317     1.0  0.47020  0.88460  0.91156  1.0000
  C   C1318     1.0  0.46133  0.86168  0.93367  1.0000
  C   C1319     1.0  0.45060  0.84991  0.95911  1.0000
  C   C1320     1.0  0.44374  0.87678  0.90615  1.0000
  C   C1321     1.0  0.48397  0.88533  0.91183  1.0000
  C   C1322     1.0  0.46275  0.88497  0.99886  1.0000
  C   C1323     1.0  0.46750  0.88365  0.03590  1.0000
  C   C1324     1.0  0.45239  0.83813  0.94615  1.0000
  C   C1325     1.0  0.43027  0.87787  0.91173  1.0000
  C   C1326     1.0  0.49313  0.89466  0.87395  1.0000
  H   H2290     1.0  0.44755  0.88578  0.95048  1.0000
  H   H2291     1.0  0.44046  0.86952  0.97072  1.0000
  H   H2292     1.0  0.45530  0.86531  0.00737  1.0000
  H   H2293     1.0  0.47159  0.87024  0.98476  1.0000
  H   H2294     1.0  0.46835  0.89390  0.91307  1.0000
  H   H2295     1.0  0.46957  0.88395  0.88152  1.0000
  H   H2296     1.0  0.46194  0.86261  0.90169  1.0000
  H   H2297     1.0  0.47019  0.85930  0.93728  1.0000
  H   H2298     1.0  0.44136  0.85122  0.95627  1.0000
  H   H2299     1.0  0.45036  0.84792  0.99099  1.0000
  H   H2300     1.0  0.44979  0.88508  0.88157  1.0000
  H   H2301     1.0  0.44432  0.86813  0.89663  1.0000
  H   H2302     1.0  0.48618  0.87602  0.91417  1.0000
  H   H2303     1.0  0.48574  0.88863  0.93747  1.0000
  H   H2304     1.0  0.46881  0.89363  0.97600  1.0000
  H   H2305     1.0  0.45312  0.88630  0.00704  1.0000
  H   H2306     1.0  0.46709  0.89207  0.04702  1.0000
  H   H2307     1.0  0.46172  0.87507  0.05983  1.0000
  H   H2308     1.0  0.47735  0.88288  0.02851  1.0000
  H   H2309     1.0  0.44461  0.82989  0.96497  1.0000
  H   H2310     1.0  0.45237  0.83943  0.91452  1.0000
  H   H2311     1.0  0.46132  0.83600  0.94984  1.0000
  H   H2312     1.0  0.42378  0.86939  0.93437  1.0000
  H   H2313     1.0  0.42901  0.88639  0.92137  1.0000
  H   H2314     1.0  0.42789  0.87867  0.88303  1.0000
  H   H2315     1.0  0.50283  0.89517  0.87596  1.0000
  H   H2316     1.0  0.49217  0.89154  0.84727  1.0000
  H   H2317     1.0  0.49150  0.90425  0.87051  1.0000
  N   N75       1.0  0.41226  0.76677  0.01098  1.0000
  Fe  Fe160     1.0  0.38919  0.80652  0.05186  1.0000
  H   H2318     1.0  0.44997  0.99360  0.22157  1.0000
  C   C1327     1.0  0.41360  0.76927  0.04968  1.0000
  C   C1328     1.0  0.42013  0.77811  0.97726  1.0000
  C   C1329     1.0  0.41892  0.77810  0.93501  1.0000
  H   H2319     1.0  0.43111  0.97237  0.87527  1.0000
  C   C1330     1.0  0.42661  0.76948  0.05723  1.0000
  H   H2320     1.0  0.40245  0.81866  0.21062  1.0000
  H   H2321     1.0  0.38986  0.83170  0.91781  1.0000
  C   C1331     1.0  0.42724  0.79019  0.90397  1.0000
  H   H2322     1.0  0.41220  0.89334  0.12084  1.0000
  H   H2323     1.0  0.45430  0.98426  0.37884  1.0000
  H   H2324     1.0  0.48369  0.77904  0.40326  1.0000
  C   C1332     1.0  0.40926  0.83669  0.94771  1.0000
  H   H2325     1.0  0.49647  0.98034  0.35370  1.0000
  S   S318      1.0  0.47076  0.74971  0.88473  1.0000
  H   H2326     1.0  0.40637  0.76231  0.07565  1.0000
  H   H2327     1.0  0.41175  0.77857  0.05107  1.0000
  H   H2328     1.0  0.41826  0.78701  0.98317  1.0000
  H   H2329     1.0  0.43016  0.77905  0.97535  1.0000
  H   H2330     1.0  0.41137  0.87020  0.08252  1.0000
  H   H2331     1.0  0.42195  0.77005  0.92613  1.0000
  H   H2332     1.0  0.42494  0.98883  0.83719  1.0000
  H   H2333     1.0  0.39775  0.78416  0.98701  1.0000
  H   H2334     1.0  0.52619  0.97543  0.69358  1.0000
  H   H2335     1.0  0.46994  0.98285  0.36562  1.0000
  H   H2336     1.0  0.45924  0.95656  0.62418  1.0000
  H   H2337     1.0  0.49229  0.76224  0.38104  1.0000
  C   C1333     1.0  0.46067  0.98075  0.04030  1.0000
  C   C1334     1.0  0.38971  0.87119  0.00092  1.0000
  H   H2338     1.0  0.50286  0.96155  0.98107  1.0000
  C   C1335     1.0  0.45659  0.97056  0.34717  1.0000
  H   H2339     1.0  0.43722  0.79094  0.90327  1.0000
  H   H2340     1.0  0.41481  0.83781  0.15319  1.0000
  C   C1336     1.0  0.43247  0.86737  0.10573  1.0000
  H   H2341     1.0  0.46422  0.79161  0.72382  1.0000
  H   H2342     1.0  0.53380  0.96709  0.66186  1.0000
  C   C1337     1.0  0.42708  0.77278  0.09605  1.0000
  H   H2343     1.0  0.42423  0.98031  0.90832  1.0000
  H   H2344     1.0  0.40332  0.80019  0.24548  1.0000
  H   H2345     1.0  0.45068  0.86100  0.36553  1.0000
  C   C1338     1.0  0.39994  0.91092  0.09447  1.0000
  H   H2346     1.0  0.46216  0.91527  0.78738  1.0000
  H   H2347     1.0  0.49551  0.95556  0.39036  1.0000
  H   H2348     1.0  0.53329  0.97187  0.39232  1.0000
  H   H2349     1.0  0.46839  0.94701  0.44839  1.0000
  H   H2350     1.0  0.43064  0.82802  0.33416  1.0000
  H   H2351     1.0  0.52363  0.88795  0.60002  1.0000
  H   H2352     1.0  0.43230  0.93653  0.70125  1.0000
  H   H2353     1.0  0.52819  0.86639  0.06817  1.0000
  N   N76       1.0  0.44273  0.88506  0.43079  1.0000
  H   H2354     1.0  0.41906  0.86170  0.02301  1.0000
  H   H2355     1.0  0.44191  0.85718  0.30691  1.0000
  C   C1339     1.0  0.53633  0.95400  0.41739  1.0000
  H   H2356     1.0  0.47976  0.75591  0.55738  1.0000
  H   H2357     1.0  0.52308  0.90979  0.82231  1.0000
  H   H2358     1.0  0.45702  0.91456  0.71371  1.0000
  H   H2359     1.0  0.55111  0.92043  0.75553  1.0000
  C   C1340     1.0  0.52872  0.96386  0.41936  1.0000
  C   C1341     1.0  0.56226  0.91820  0.81484  1.0000
  H   H2360     1.0  0.42283  0.82920  0.25659  1.0000
  H   H2361     1.0  0.45206  0.85772  0.15839  1.0000
  C   C1342     1.0  0.48478  0.89159  0.19566  1.0000
  H   H2362     1.0  0.48780  0.88522  0.21822  1.0000
  H   H2363     1.0  0.46222  0.85643  0.21382  1.0000
  H   H2364     1.0  0.46163  0.87277  0.15568  1.0000
  C   C1343     1.0  0.41333  0.78609  0.25885  1.0000
  S   S319      1.0  0.41740  0.88654  0.55711  1.0000
  H   H2365     1.0  0.56861  0.91205  0.80807  1.0000
  H   H2366     1.0  0.51146  0.92602  0.82734  1.0000
  H   H2367     1.0  0.51708  0.92189  0.87044  1.0000
  C   C1344     1.0  0.45299  0.86536  0.17344  1.0000
  H   H2368     1.0  0.45517  0.86829  0.22883  1.0000
  C   C1345     1.0  0.45718  0.78237  0.73660  1.0000
  H   H2369     1.0  0.49276  0.88278  0.13350  1.0000
  C   C1346     1.0  0.45383  0.86022  0.21577  1.0000
  H   H2370     1.0  0.45748  0.85639  0.28552  1.0000
  H   H2371     1.0  0.52537  0.96991  0.98097  1.0000
  C   C1347     1.0  0.49586  0.89849  0.15904  1.0000
  H   H2372     1.0  0.50430  0.88300  0.15978  1.0000
  H   H2373     1.0  0.50352  0.86770  0.12252  1.0000
  H   H2374     1.0  0.54586  0.93029  0.81852  1.0000
  H   H2375     1.0  0.55875  0.92803  0.86180  1.0000
  H   H2376     1.0  0.52482  0.93655  0.83184  1.0000
  C   C1348     1.0  0.45596  0.85382  0.36114  1.0000
  H   H2377     1.0  0.45786  0.83659  0.20767  1.0000
  C   C1349     1.0  0.51487  0.95806  0.42298  1.0000
  H   H2378     1.0  0.45799  0.93470  0.67342  1.0000
  H   H2379     1.0  0.51135  0.95108  0.45293  1.0000
  S   S320      1.0  0.42412  0.88853  0.00622  1.0000
  H   H2380     1.0  0.43057  0.90166  0.78444  1.0000
  C   C1350     1.0  0.50090  0.88914  0.13752  1.0000
  H   H2381     1.0  0.50326  0.90350  0.16981  1.0000
  H   H2382     1.0  0.53804  0.91829  0.86354  1.0000
  C   C1351     1.0  0.51196  0.97685  0.37853  1.0000
  H   H2383     1.0  0.39742  0.77124  0.15022  1.0000
  H   H2384     1.0  0.50359  0.96554  0.48084  1.0000
  S   S321      1.0  0.44312  0.95063  0.00911  1.0000
  C   C1352     1.0  0.44913  0.84407  0.34447  1.0000
  C   C1353     1.0  0.54065  0.92018  0.83050  1.0000
  H   H2385     1.0  0.52084  0.98311  0.37798  1.0000
  H   H2386     1.0  0.45653  0.86800  0.66926  1.0000
  H   H2387     1.0  0.45470  0.87819  0.62495  1.0000
  C   C1354     1.0  0.44793  0.85049  0.30280  1.0000
  C   C1355     1.0  0.50402  0.97255  0.45292  1.0000
  H   H2388     1.0  0.51476  0.95246  0.40091  1.0000
  H   H2389     1.0  0.44364  0.82466  0.23169  1.0000
  C   C1356     1.0  0.51145  0.87182  0.09520  1.0000
  H   H2390     1.0  0.49900  0.88814  0.06393  1.0000
  H   H2391     1.0  0.50776  0.87215  0.06894  1.0000
  H   H2392     1.0  0.45032  0.99304  0.83316  1.0000
  C   C1357     1.0  0.56452  0.92168  0.85271  1.0000
  C   C1358     1.0  0.52853  0.91957  0.81671  1.0000
  H   H2393     1.0  0.56571  0.92707  0.78970  1.0000
  H   H2394     1.0  0.44615  0.86187  0.64273  1.0000
  H   H2395     1.0  0.39291  0.83975  0.84837  1.0000
  H   H2396     1.0  0.51463  0.97232  0.35427  1.0000
  H   H2397     1.0  0.49239  0.90296  0.00960  1.0000
  H   H2398     1.0  0.42249  0.78394  0.24875  1.0000
  H   H2399     1.0  0.53093  0.92416  0.78416  1.0000
  C   C1359     1.0  0.45519  0.86847  0.63924  1.0000
  C   C1360     1.0  0.44186  0.84994  0.24199  1.0000
  N   N77       1.0  0.50643  0.96694  0.41816  1.0000
  H   H2400     1.0  0.45028  0.87990  0.54277  1.0000
  C   C1361     1.0  0.42613  0.83453  0.05868  1.0000
  N   N78       1.0  0.51103  0.89472  0.09823  1.0000
  C   C1362     1.0  0.51873  0.88521  0.09353  1.0000
  C   C1363     1.0  0.50546  0.89696  0.06359  1.0000
  C   C1364     1.0  0.41013  0.86933  0.11457  1.0000
  H   H2401     1.0  0.52383  0.88407  0.11687  1.0000
  H   H2402     1.0  0.48841  0.90303  0.08279  1.0000
  C   C1365     1.0  0.49938  0.74614  0.82782  1.0000
  C   C1366     1.0  0.50159  0.87674  0.58722  1.0000
  H   H2403     1.0  0.46590  0.90134  0.42325  1.0000
  H   H2404     1.0  0.52423  0.90442  0.12334  1.0000
  N   N79       1.0  0.54896  0.91187  0.81773  1.0000
  C   C1367     1.0  0.51975  0.90662  0.09876  1.0000
  C   C1368     1.0  0.49782  0.90707  0.06117  1.0000
  C   C1369     1.0  0.49603  0.91122  0.01959  1.0000
  H   H2405     1.0  0.51461  0.91370  0.10557  1.0000
  C   C1370     1.0  0.47624  0.97474  0.85912  1.0000
  C   C1371     1.0  0.54861  0.91079  0.77670  1.0000
  H   H2406     1.0  0.54561  0.90034  0.87810  1.0000
  H   H2407     1.0  0.44975  0.89210  0.47558  1.0000
  C   C1372     1.0  0.49412  0.95923  0.41706  1.0000
  H   H2408     1.0  0.52606  0.88857  0.06453  1.0000
  H   H2409     1.0  0.51289  0.89936  0.03501  1.0000
  H   H2410     1.0  0.48931  0.91728  0.01967  1.0000
  C   C1373     1.0  0.54534  0.89915  0.84829  1.0000
  H   H2411     1.0  0.53904  0.90641  0.77640  1.0000
  H   H2412     1.0  0.56723  0.90792  0.75235  1.0000
  C   C1374     1.0  0.43491  0.81642  0.43919  1.0000
  H   H2413     1.0  0.50240  0.91570  0.06745  1.0000
  H   H2414     1.0  0.50510  0.91678  0.99787  1.0000
  C   C1375     1.0  0.55724  0.90321  0.75793  1.0000
  H   H2415     1.0  0.44658  0.99244  0.31038  1.0000
  H   H2416     1.0  0.52503  0.89507  0.87070  1.0000
  H   H2417     1.0  0.55737  0.91192  0.69675  1.0000
  C   C1376     1.0  0.46586  0.86488  0.61322  1.0000
  C   C1377     1.0  0.53029  0.91366  0.05961  1.0000
  H   H2418     1.0  0.53678  0.90775  0.05195  1.0000
  C   C1378     1.0  0.41434  0.95542  0.94089  1.0000
  H   H2419     1.0  0.51675  0.94701  0.98775  1.0000
  H   H2420     1.0  0.44386  0.96554  0.06484  1.0000
  C   C1379     1.0  0.46175  0.98352  0.35368  1.0000
  C   C1380     1.0  0.47876  0.87348  0.60929  1.0000
  H   H2421     1.0  0.48069  0.87036  0.63861  1.0000
  C   C1381     1.0  0.45194  0.83346  0.27279  1.0000
  H   H2422     1.0  0.43885  0.84416  0.22292  1.0000
  H   H2423     1.0  0.43357  0.94758  0.75376  1.0000
  H   H2424     1.0  0.52634  0.91652  0.03430  1.0000
  H   H2425     1.0  0.54258  0.92352  0.08796  1.0000
  H   H2426     1.0  0.47956  0.95677  0.66894  1.0000
  H   H2427     1.0  0.48003  0.85839  0.55686  1.0000
  H   H2428     1.0  0.44827  0.79285  0.35774  1.0000
  H   H2429     1.0  0.46550  0.85487  0.62707  1.0000
  H   H2430     1.0  0.48512  0.90271  0.48539  1.0000
  H   H2431     1.0  0.42415  0.84331  0.06258  1.0000
  C   C1382     1.0  0.44639  0.87190  0.49521  1.0000
  C   C1383     1.0  0.46895  0.92466  0.77756  1.0000
  C   C1384     1.0  0.53813  0.92573  0.06348  1.0000
  H   H2432     1.0  0.53227  0.93240  0.06920  1.0000
  H   H2433     1.0  0.53666  0.87255  0.86803  1.0000
  C   C1385     1.0  0.47953  0.88293  0.52055  1.0000
  C   C1386     1.0  0.48249  0.89316  0.48126  1.0000
  H   H2434     1.0  0.48497  0.95123  0.48127  1.0000
  H   H2435     1.0  0.54565  0.93047  0.03517  1.0000
  H   H2436     1.0  0.43537  0.90531  0.46473  1.0000
  C   C1387     1.0  0.51541  0.89085  0.61529  1.0000
  H   H2437     1.0  0.49185  0.89337  0.54481  1.0000
  H   H2438     1.0  0.47702  0.87371  0.51424  1.0000
  C   C1388     1.0  0.43019  0.83396  0.30532  1.0000
  C   C1389     1.0  0.46575  0.97475  0.46712  1.0000
  H   H2439     1.0  0.49737  0.89288  0.60920  1.0000
  N   N80       1.0  0.48962  0.87377  0.57536  1.0000
  H   H2440     1.0  0.49169  0.83766  0.55894  1.0000
  C   C1390     1.0  0.49068  0.88406  0.53862  1.0000
  H   H2441     1.0  0.42710  0.88472  0.09899  1.0000
  C   C1391     1.0  0.47497  0.94085  0.44987  1.0000
  H   H2442     1.0  0.43692  0.80836  0.42977  1.0000
  C   C1392     1.0  0.42056  0.82933  0.45358  1.0000
  C   C1393     1.0  0.48880  0.86142  0.56471  1.0000
  H   H2443     1.0  0.49916  0.88476  0.51503  1.0000
  H   H2444     1.0  0.47843  0.89540  0.34638  1.0000
  H   H2445     1.0  0.45654  0.93170  0.74514  1.0000
  C   C1394     1.0  0.46666  0.80546  0.34586  1.0000
  H   H2446     1.0  0.42768  0.81670  0.28626  1.0000
  H   H2447     1.0  0.43321  0.80318  0.04359  1.0000
  H   H2448     1.0  0.53476  0.98151  0.58433  1.0000
  H   H2449     1.0  0.40908  0.81355  0.34254  1.0000
  H   H2450     1.0  0.45621  0.87191  0.48166  1.0000
  H   H2451     1.0  0.46953  0.82215  0.24037  1.0000
  H   H2452     1.0  0.51864  0.90073  0.61612  1.0000
  H   H2453     1.0  0.44779  0.86289  0.55357  1.0000
  H   H2454     1.0  0.49635  0.86264  0.53700  1.0000
  C   C1395     1.0  0.42251  0.86055  0.39287  1.0000
  H   H2455     1.0  0.48965  0.94144  0.70712  1.0000
  H   H2456     1.0  0.50964  0.89714  0.56306  1.0000
  H   H2457     1.0  0.46846  0.92419  0.83871  1.0000
  C   C1396     1.0  0.44475  0.87118  0.53922  1.0000
  C   C1397     1.0  0.40956  0.81894  0.31198  1.0000
  C   C1398     1.0  0.46030  0.81865  0.23562  1.0000
  C   C1399     1.0  0.42738  0.96294  0.93798  1.0000
  H   H2458     1.0  0.40303  0.85443  0.84164  1.0000
  H   H2459     1.0  0.45011  0.96398  0.56570  1.0000
  H   H2460     1.0  0.39425  0.79167  0.20295  1.0000
  H   H2461     1.0  0.49119  0.81745  0.33164  1.0000
  H   H2462     1.0  0.45749  0.93192  0.82023  1.0000
  H   H2463     1.0  0.48426  0.84978  0.62714  1.0000
  H   H2464     1.0  0.51154  0.88468  0.64639  1.0000
  H   H2465     1.0  0.49250  0.80668  0.37363  1.0000
  H   H2466     1.0  0.50959  0.87569  0.56465  1.0000
  H   H2467     1.0  0.46201  0.81641  0.20655  1.0000
  H   H2468     1.0  0.48521  0.90715  0.36771  1.0000
  H   H2469     1.0  0.56234  0.91314  0.87820  1.0000
  C   C1400     1.0  0.47838  0.89792  0.37466  1.0000
  C   C1401     1.0  0.44312  0.88388  0.47327  1.0000
  H   H2470     1.0  0.49986  0.85141  0.59758  1.0000
  N   N81       1.0  0.48711  0.79802  0.32966  1.0000
  C   C1402     1.0  0.46681  0.93304  0.73994  1.0000
  H   H2471     1.0  0.47397  0.93978  0.80461  1.0000
  C   C1403     1.0  0.45550  0.88627  0.40401  1.0000
  C   C1404     1.0  0.42338  0.81924  0.43954  1.0000
  C   C1405     1.0  0.46708  0.93054  0.81229  1.0000
  H   H2472     1.0  0.50095  0.86984  0.61574  1.0000
  S   S322      1.0  0.44754  0.95229  0.50180  1.0000
  H   H2473     1.0  0.46296  0.90655  0.37571  1.0000
  C   C1406     1.0  0.39274  0.77587  0.01299  1.0000
  C   C1407     1.0  0.46536  0.89879  0.39557  1.0000
  C   C1408     1.0  0.50608  0.95966  0.00834  1.0000
  H   H2474     1.0  0.43554  0.98484  0.01477  1.0000
  H   H2475     1.0  0.39310  0.91656  0.10172  1.0000
  C   C1409     1.0  0.40017  0.85502  0.02125  1.0000
  H   H2476     1.0  0.48148  0.89070  0.39432  1.0000
  H   H2477     1.0  0.48181  0.91236  0.66167  1.0000
  H   H2478     1.0  0.49253  0.93204  0.63181  1.0000
  H   H2479     1.0  0.44559  0.97816  0.95712  1.0000
  H   H2480     1.0  0.45938  0.87827  0.41599  1.0000
  H   H2481     1.0  0.40937  0.86048  0.55781  1.0000
  H   H2482     1.0  0.58444  0.92231  0.83734  1.0000
  H   H2483     1.0  0.47853  0.92319  0.77168  1.0000
  C   C1410     1.0  0.40691  0.86609  0.53333  1.0000
  H   H2484     1.0  0.43716  0.87749  0.36455  1.0000
  C   C1411     1.0  0.39864  0.76448  0.01179  1.0000
  C   C1412     1.0  0.45752  0.96643  0.50298  1.0000
  H   H2485     1.0  0.46798  0.96483  0.95488  1.0000
  H   H2486     1.0  0.50662  0.98602  0.08025  1.0000
  H   H2487     1.0  0.45034  0.91136  0.42848  1.0000
  H   H2488     1.0  0.45486  0.88533  0.37431  1.0000
  H   H2489     1.0  0.47047  0.94304  0.73903  1.0000
  H   H2490     1.0  0.47054  0.81351  0.35636  1.0000
  C   C1413     1.0  0.55536  0.90233  0.71760  1.0000
  H   H2491     1.0  0.50712  0.98182  0.94982  1.0000
  H   H2492     1.0  0.50129  0.78770  0.31733  1.0000
  H   H2493     1.0  0.46600  0.89224  0.69961  1.0000
  C   C1414     1.0  0.48582  0.83763  0.58836  1.0000
  C   C1415     1.0  0.47176  0.91231  0.66741  1.0000
  H   H2494     1.0  0.48141  0.78341  0.27702  1.0000
  Fe  Fe161     1.0  0.39570  0.81782  0.42161  1.0000
  C   C1416     1.0  0.58432  0.98751  0.52340  1.0000
  C   C1417     1.0  0.50132  0.97874  0.06960  1.0000
  H   H2495     1.0  0.42565  0.78237  0.09429  1.0000
  C   C1418     1.0  0.45579  0.95965  0.38278  1.0000
  H   H2496     1.0  0.42696  0.89304  0.42605  1.0000
  C   C1419     1.0  0.40048  0.88026  0.47009  1.0000
  C   C1420     1.0  0.51342  0.98493  0.44995  1.0000
  C   C1421     1.0  0.40111  0.85998  0.50913  1.0000
  C   C1422     1.0  0.41787  0.82638  0.04631  1.0000
  H   H2497     1.0  0.46775  0.89571  0.64672  1.0000
  C   C1423     1.0  0.47970  0.76212  0.57743  1.0000
  H   H2498     1.0  0.39206  0.88867  0.88384  1.0000
  H   H2499     1.0  0.51406  0.81903  0.36975  1.0000
  C   C1424     1.0  0.50324  0.98381  0.02408  1.0000
  H   H2500     1.0  0.48642  0.97319  0.12499  1.0000
  H   H2501     1.0  0.40046  0.89053  0.98729  1.0000
  C   C1425     1.0  0.42009  0.81485  0.04229  1.0000
  C   C1426     1.0  0.55298  0.98727  0.46558  1.0000
  C   C1427     1.0  0.41113  0.87730  0.00436  1.0000
  H   H2502     1.0  0.48294  0.75767  0.60294  1.0000
  C   C1428     1.0  0.40961  0.87935  0.52610  1.0000
  C   C1429     1.0  0.52590  0.99209  0.00575  1.0000
  C   C1430     1.0  0.46746  0.91690  0.70469  1.0000
  C   C1431     1.0  0.40643  0.88639  0.49395  1.0000
  C   C1432     1.0  0.44026  0.90778  0.43237  1.0000
  H   H2503     1.0  0.47009  0.91077  0.72886  1.0000
  H   H2504     1.0  0.42450  0.79863  0.91091  1.0000
  C   C1433     1.0  0.43736  0.89608  0.41641  1.0000
  C   C1434     1.0  0.54264  0.98689  0.59218  1.0000
  H   H2505     1.0  0.48961  0.92562  0.70786  1.0000
  H   H2506     1.0  0.51072  0.93148  0.65951  1.0000
  H   H2507     1.0  0.47022  0.91816  0.64047  1.0000
  H   H2508     1.0  0.40772  0.85902  0.12944  1.0000
  C   C1435     1.0  0.41094  0.86443  0.01627  1.0000
  H   H2509     1.0  0.44045  0.92189  0.37906  1.0000
  C   C1436     1.0  0.53210  0.89085  0.85533  1.0000
  H   H2510     1.0  0.54560  0.89721  0.72124  1.0000
  H   H2511     1.0  0.58048  0.95139  0.71538  1.0000
  C   C1437     1.0  0.46584  0.96922  0.97862  1.0000
  C   C1438     1.0  0.46820  0.93849  0.66880  1.0000
  N   N82       1.0  0.51549  0.98352  0.99753  1.0000
  C   C1439     1.0  0.49200  0.78636  0.33858  1.0000
  H   H2512     1.0  0.49314  0.75015  0.81135  1.0000
  H   H2513     1.0  0.45433  0.89819  0.67892  1.0000
  C   C1440     1.0  0.51530  0.98782  0.95469  1.0000
  H   H2514     1.0  0.40008  0.85094  0.76882  1.0000
  H   H2515     1.0  0.48352  0.98391  0.08424  1.0000
  H   H2516     1.0  0.49349  0.94796  0.63398  1.0000
  H   H2517     1.0  0.55521  0.89346  0.77747  1.0000
  H   H2518     1.0  0.40918  0.77755  0.93351  1.0000
  H   H2519     1.0  0.41946  0.74938  0.80525  1.0000
  H   H2520     1.0  0.46243  0.96911  0.32019  1.0000
  H   H2521     1.0  0.46659  0.97200  0.43987  1.0000
  C   C1441     1.0  0.48661  0.93393  0.69310  1.0000
  C   C1442     1.0  0.40320  0.79058  0.18504  1.0000
  H   H2522     1.0  0.51141  0.83110  0.33192  1.0000
  C   C1443     1.0  0.46315  0.98227  0.53687  1.0000
  C   C1444     1.0  0.45640  0.99378  0.29253  1.0000
  H   H2523     1.0  0.53024  0.88970  0.82713  1.0000
  H   H2524     1.0  0.39532  0.81244  0.17657  1.0000
  C   C1445     1.0  0.46867  0.96026  0.62722  1.0000
  H   H2525     1.0  0.40466  0.81245  0.29802  1.0000
  H   H2526     1.0  0.52542  0.82559  0.32179  1.0000
  C   C1446     1.0  0.49478  0.93872  0.64914  1.0000
  C   C1447     1.0  0.53920  0.99404  0.97810  1.0000
  C   C1448     1.0  0.50863  0.94063  0.64736  1.0000
  C   C1449     1.0  0.50877  0.81244  0.32166  1.0000
  H   H2527     1.0  0.47274  0.93775  0.63888  1.0000
  H   H2528     1.0  0.46975  0.97034  0.62670  1.0000
  H   H2529     1.0  0.42570  0.87004  0.45619  1.0000
  H   H2530     1.0  0.43303  0.86688  0.07475  1.0000
  H   H2531     1.0  0.41159  0.83147  0.45452  1.0000
  C   C1450     1.0  0.42318  0.87493  0.11878  1.0000
  H   H2532     1.0  0.49831  0.98530  0.23333  1.0000
  H   H2533     1.0  0.46304  0.95401  0.69111  1.0000
  C   C1451     1.0  0.46783  0.98333  0.87009  1.0000
  H   H2534     1.0  0.52051  0.87214  0.88929  1.0000
  H   H2535     1.0  0.53222  0.87823  0.91133  1.0000
  C   C1452     1.0  0.47017  0.95273  0.66639  1.0000
  H   H2536     1.0  0.55230  0.89361  0.84109  1.0000
  C   C1453     1.0  0.53033  0.87765  0.88262  1.0000
  C   C1454     1.0  0.45478  0.96379  0.00962  1.0000
  H   H2537     1.0  0.42531  0.91560  0.41587  1.0000
  H   H2538     1.0  0.42626  0.79002  0.87395  1.0000
  C   C1455     1.0  0.47396  0.98059  0.97763  1.0000
  H   H2539     1.0  0.52633  0.98836  0.03685  1.0000
  H   H2540     1.0  0.43383  0.88393  0.49125  1.0000
  H   H2541     1.0  0.42707  0.75710  0.00031  1.0000
  S   S323      1.0  0.41280  0.81033  0.42109  1.0000
  H   H2542     1.0  0.40336  0.78067  0.19835  1.0000
  H   H2543     1.0  0.48665  0.81159  0.27669  1.0000
  H   H2544     1.0  0.40877  0.91515  0.10037  1.0000
  H   H2545     1.0  0.44006  0.86319  0.49475  1.0000
  H   H2546     1.0  0.40514  0.86674  0.77325  1.0000
  H   H2547     1.0  0.43379  0.95670  0.93401  1.0000
  H   H2548     1.0  0.41180  0.77717  0.32077  1.0000
  H   H2549     1.0  0.48631  0.77141  0.56065  1.0000
  H   H2550     1.0  0.43893  0.86519  0.43319  1.0000
  C   C1456     1.0  0.39686  0.87196  0.17502  1.0000
  H   H2551     1.0  0.52361  0.98645  0.93438  1.0000
  H   H2552     1.0  0.47293  0.79261  0.38623  1.0000
  H   H2553     1.0  0.54594  0.98931  0.64835  1.0000
  C   C1457     1.0  0.51526  0.82267  0.33728  1.0000
  C   C1458     1.0  0.41152  0.78642  0.30216  1.0000
  H   H2554     1.0  0.50460  0.97006  0.07757  1.0000
  H   H2555     1.0  0.49464  0.97465  0.45827  1.0000
  H   H2556     1.0  0.51105  0.81623  0.28878  1.0000
  C   C1459     1.0  0.43556  0.91863  0.41147  1.0000
  H   H2557     1.0  0.47387  0.75118  0.69445  1.0000
  C   C1460     1.0  0.50930  0.94687  0.01398  1.0000
  H   H2558     1.0  0.40232  0.78827  0.31428  1.0000
  H   H2559     1.0  0.48580  0.77825  0.33391  1.0000
  C   C1461     1.0  0.43161  0.97520  0.90290  1.0000
  S   S324      1.0  0.40877  0.80392  0.03218  1.0000
  H   H2560     1.0  0.45167  0.95052  0.37803  1.0000
  C   C1462     1.0  0.43418  0.87307  0.43013  1.0000
  C   C1463     1.0  0.49440  0.80874  0.34067  1.0000
  C   C1464     1.0  0.47363  0.79488  0.35384  1.0000
  H   H2561     1.0  0.49821  0.80318  0.26817  1.0000
  H   H2562     1.0  0.51333  0.99272  0.42494  1.0000
  H   H2563     1.0  0.50229  0.99366  0.01956  1.0000
  H   H2564     1.0  0.51246  0.94443  0.04127  1.0000
  C   C1465     1.0  0.50336  0.98538  0.36611  1.0000
  H   H2565     1.0  0.51439  0.94469  0.61602  1.0000
  H   H2566     1.0  0.48123  0.80730  0.21531  1.0000
  H   H2567     1.0  0.49573  0.74522  0.86010  1.0000
  H   H2568     1.0  0.51471  0.85343  0.09423  1.0000
  N   N83       1.0  0.44444  0.98346  0.89654  1.0000
  C   C1466     1.0  0.41675  0.75528  0.00520  1.0000
  C   C1467     1.0  0.47992  0.79306  0.26977  1.0000
  H   H2569     1.0  0.42695  0.96517  0.96682  1.0000
  H   H2570     1.0  0.46737  0.80904  0.31382  1.0000
  H   H2571     1.0  0.43740  0.92667  0.42443  1.0000
  C   C1468     1.0  0.49537  0.99300  0.24482  1.0000
  H   H2572     1.0  0.41851  0.86133  0.36711  1.0000
  C   C1469     1.0  0.48749  0.97568  0.09241  1.0000
  H   H2573     1.0  0.39288  0.75671  0.03858  1.0000
  H   H2574     1.0  0.51137  0.94728  0.66444  1.0000
  C   C1470     1.0  0.39369  0.77952  0.14031  1.0000
  H   H2575     1.0  0.56852  0.99062  0.03274  1.0000
  H   H2576     1.0  0.44012  0.89924  0.38321  1.0000
  H   H2577     1.0  0.52054  0.96779  0.03274  1.0000
  H   H2578     1.0  0.55807  0.98011  0.47527  1.0000
  H   H2579     1.0  0.52320  0.86129  0.12226  1.0000
  H   H2580     1.0  0.46524  0.95953  0.38637  1.0000
  H   H2581     1.0  0.48209  0.96756  0.08535  1.0000
  H   H2582     1.0  0.49892  0.76708  0.41805  1.0000
  C   C1471     1.0  0.51748  0.97034  0.00521  1.0000
  H   H2583     1.0  0.43415  0.77662  0.03287  1.0000
  C   C1472     1.0  0.42941  0.87364  0.39245  1.0000
  H   H2584     1.0  0.49257  0.79802  0.20968  1.0000
  H   H2585     1.0  0.43642  0.77270  0.10083  1.0000
  H   H2586     1.0  0.54639  0.98325  0.45033  1.0000
  H   H2587     1.0  0.44804  0.80842  0.36295  1.0000
  H   H2588     1.0  0.46183  0.98523  0.56392  1.0000
  H   H2589     1.0  0.50091  0.93947  0.01676  1.0000
  H   H2590     1.0  0.44975  0.96051  0.41068  1.0000
  C   C1473     1.0  0.52907  0.97493  0.66233  1.0000
  H   H2591     1.0  0.44697  0.96992  0.34393  1.0000
  H   H2592     1.0  0.39811  0.83572  0.16624  1.0000
  H   H2593     1.0  0.39266  0.89729  0.15160  1.0000
  H   H2594     1.0  0.49525  0.97879  0.01562  1.0000
  H   H2595     1.0  0.46966  0.99124  0.84293  1.0000
  H   H2596     1.0  0.42887  0.85420  0.39101  1.0000
  C   C1474     1.0  0.57927  0.99268  0.97273  1.0000
  H   H2597     1.0  0.47381  0.97073  0.83539  1.0000
  H   H2598     1.0  0.40006  0.84521  0.03163  1.0000
  C   C1475     1.0  0.47266  0.98674  0.46618  1.0000
  H   H2599     1.0  0.42266  0.87964  0.39142  1.0000
  H   H2600     1.0  0.46820  0.78612  0.34992  1.0000
  H   H2601     1.0  0.47645  0.79125  0.21381  1.0000
  C   C1476     1.0  0.47108  0.99074  0.50089  1.0000
  H   H2602     1.0  0.48263  0.97953  0.29727  1.0000
  H   H2603     1.0  0.45153  0.79713  0.40080  1.0000
  H   H2604     1.0  0.41898  0.84064  0.94790  1.0000
  H   H2605     1.0  0.49810  0.95873  0.03418  1.0000
  H   H2606     1.0  0.52311  0.98393  0.44515  1.0000
  C   C1477     1.0  0.45237  0.96958  0.04067  1.0000
  H   H2607     1.0  0.41983  0.76581  0.12181  1.0000
  H   H2608     1.0  0.52055  0.97282  0.65213  1.0000
  H   H2609     1.0  0.39714  0.76112  0.98587  1.0000
  H   H2610     1.0  0.50797  0.77240  0.36642  1.0000
  H   H2611     1.0  0.40332  0.87896  0.18353  1.0000
  H   H2612     1.0  0.40619  0.85507  0.92940  1.0000
  C   C1478     1.0  0.39691  0.85926  0.77508  1.0000
  H   H2613     1.0  0.40183  0.91149  0.06221  1.0000
  H   H2614     1.0  0.45173  0.97155  0.86175  1.0000
  C   C1479     1.0  0.40512  0.84637  0.91936  1.0000
  H   H2615     1.0  0.41115  0.79330  0.12012  1.0000
  C   C1480     1.0  0.50999  0.98910  0.48785  1.0000
  H   H2616     1.0  0.56180  0.89711  0.70417  1.0000
  H   H2617     1.0  0.41150  0.84833  0.88911  1.0000
  S   S325      1.0  0.58111  0.96879  0.48439  1.0000
  H   H2618     1.0  0.45309  0.96797  0.91130  1.0000
  H   H2619     1.0  0.40897  0.82790  0.93819  1.0000
  H   H2620     1.0  0.54191  0.98494  0.98091  1.0000
  H   H2621     1.0  0.41908  0.79382  0.30454  1.0000
  H   H2622     1.0  0.54936  0.98082  0.59297  1.0000
  H   H2623     1.0  0.57006  0.99154  0.64900  1.0000
  C   C1481     1.0  0.51996  0.86273  0.09491  1.0000
  H   H2624     1.0  0.57781  0.98070  0.54971  1.0000
  H   H2625     1.0  0.47526  0.96691  0.88566  1.0000
  H   H2626     1.0  0.39962  0.87559  0.83955  1.0000
  H   H2627     1.0  0.40800  0.86964  0.87305  1.0000
  C   C1482     1.0  0.54570  0.99064  0.50153  1.0000
  H   H2628     1.0  0.39346  0.78035  0.10907  1.0000
  H   H2629     1.0  0.44190  0.87209  0.10632  1.0000
  H   H2630     1.0  0.40139  0.88306  0.91568  1.0000
  S   S326      1.0  0.39857  0.83729  0.38243  1.0000
  C   C1483     1.0  0.39297  0.84959  0.84975  1.0000
  C   C1484     1.0  0.53791  0.98749  0.63570  1.0000
  H   H2631     1.0  0.48225  0.98487  0.95273  1.0000
  H   H2632     1.0  0.41444  0.95219  0.91369  1.0000
  H   H2633     1.0  0.57955  0.93075  0.87283  1.0000
  H   H2634     1.0  0.47083  0.98720  0.89325  1.0000
  H   H2635     1.0  0.39792  0.79961  0.13225  1.0000
  H   H2636     1.0  0.45846  0.98519  0.06394  1.0000
  H   H2637     1.0  0.48616  0.98023  0.84806  1.0000
  H   H2638     1.0  0.51043  0.98187  0.51402  1.0000
  H   H2639     1.0  0.49924  0.78917  0.38926  1.0000
  C   C1485     1.0  0.49840  0.77017  0.38686  1.0000
  C   C1486     1.0  0.49306  0.78178  0.38158  1.0000
  H   H2640     1.0  0.49810  0.98798  0.39191  1.0000
  H   H2641     1.0  0.39250  0.86304  0.75175  1.0000
  H   H2642     1.0  0.46015  0.75417  0.60554  1.0000
  C   C1487     1.0  0.58422  0.98355  0.67067  1.0000
  C   C1488     1.0  0.57062  0.98406  0.67430  1.0000
  H   H2643     1.0  0.40754  0.89119  0.07803  1.0000
  H   H2644     1.0  0.56666  0.98623  0.70260  1.0000
  H   H2645     1.0  0.40743  0.96120  0.94469  1.0000
  C   C1489     1.0  0.57820  0.92844  0.84530  1.0000
  H   H2646     1.0  0.39076  0.87379  0.08324  1.0000
  S   S327      1.0  0.44289  0.75071  0.87762  1.0000
  H   H2647     1.0  0.50880  0.75279  0.81667  1.0000
  H   H2648     1.0  0.50044  0.99072  0.49320  1.0000
  H   H2649     1.0  0.45639  0.98520  0.28217  1.0000
  C   C1490     1.0  0.44608  0.98680  0.93387  1.0000
  H   H2650     1.0  0.39294  0.77867  0.04062  1.0000
  H   H2651     1.0  0.58422  0.97658  0.69792  1.0000
  H   H2652     1.0  0.42701  0.98894  0.95676  1.0000
  H   H2653     1.0  0.39790  0.88585  0.44585  1.0000
  C   C1491     1.0  0.58719  0.98420  0.48763  1.0000
  C   C1492     1.0  0.39128  0.84151  0.92086  1.0000
  H   H2654     1.0  0.56486  0.97482  0.67487  1.0000
  H   H2655     1.0  0.52514  0.99405  0.54532  1.0000
  C   C1493     1.0  0.43685  0.99377  0.95273  1.0000
  C   C1494     1.0  0.39948  0.87292  0.87142  1.0000
  H   H2656     1.0  0.58403  0.96980  0.63786  1.0000
  C   C1495     1.0  0.48236  0.98794  0.27446  1.0000
  H   H2657     1.0  0.45558  0.99290  0.92827  1.0000
  H   H2658     1.0  0.47580  0.98501  0.25762  1.0000
  H   H2659     1.0  0.41524  0.75323  0.97745  1.0000
  H   H2660     1.0  0.42045  0.74500  0.68752  1.0000
  C   C1496     1.0  0.38865  0.86999  0.11623  1.0000
  C   C1497     1.0  0.43817  0.99447  0.99378  1.0000
  C   C1498     1.0  0.60166  0.00512  0.45588  1.0000
  H   H2661     1.0  0.61284  0.11685  0.36156  1.0000
  S   S328      1.0  0.60220  0.13967  0.49381  1.0000
  H   H2662     1.0  0.69034  0.13035  0.88188  1.0000
  C   C1499     1.0  0.61505  0.04395  0.21088  1.0000
  H   H2663     1.0  0.60641  0.22563  0.25909  1.0000
  C   C1500     1.0  0.72639  0.16081  0.35215  1.0000
  S   S329      1.0  0.62263  0.04773  0.05250  1.0000
  C   C1501     1.0  0.61849  0.04455  0.27574  1.0000
  H   H2664     1.0  0.59657  0.13937  0.00012  1.0000
  H   H2665     1.0  0.69680  0.22696  0.06157  1.0000
  Fe  Fe162     1.0  0.65449  0.15158  0.59056  1.0000
  S   S330      1.0  0.66541  0.15235  0.52910  1.0000
  S   S331      1.0  0.63448  0.15309  0.60872  1.0000
  Fe  Fe163     1.0  0.67542  0.14644  0.62732  1.0000
  S   S332      1.0  0.68778  0.14630  0.56837  1.0000
  S   S333      1.0  0.68093  0.14176  0.68541  1.0000
  Fe  Fe164     1.0  0.68176  0.16373  0.54304  1.0000
  S   S334      1.0  0.69341  0.18224  0.49642  1.0000
  Fe  Fe165     1.0  0.67037  0.13491  0.55923  1.0000
  S   S335      1.0  0.66870  0.11621  0.54150  1.0000
  S   S336      1.0  0.67021  0.16429  0.60240  1.0000
  S   S337      1.0  0.65875  0.13369  0.62029  1.0000
  Fe  Fe166     1.0  0.62388  0.07068  0.43883  1.0000
  S   S338      1.0  0.61182  0.07534  0.39811  1.0000
  S   S339      1.0  0.63507  0.08915  0.44637  1.0000
  Fe  Fe167     1.0  0.61670  0.06005  0.37081  1.0000
  S   S340      1.0  0.61936  0.06597  0.30318  1.0000
  Fe  Fe168     1.0  0.59624  0.06016  0.44287  1.0000
  H   H2666     1.0  0.70096  0.21518  0.58638  1.0000
  S   S341      1.0  0.60757  0.05644  0.48562  1.0000
  Fe  Fe169     1.0  0.68246  0.16785  0.87231  1.0000
  S   S342      1.0  0.69475  0.16162  0.91103  1.0000
  S   S343      1.0  0.68616  0.17563  0.80487  1.0000
  Fe  Fe170     1.0  0.66004  0.16259  0.94453  1.0000
  S   S344      1.0  0.67035  0.15598  0.98832  1.0000
  S   S345      1.0  0.63988  0.16338  0.96372  1.0000
  Fe  Fe171     1.0  0.68649  0.17279  0.95159  1.0000
  S   S346      1.0  0.69383  0.18601  0.98759  1.0000
  Fe  Fe172     1.0  0.67762  0.14550  0.94524  1.0000
  S   S347      1.0  0.67670  0.12443  0.96419  1.0000
  S   S348      1.0  0.67536  0.17994  0.91028  1.0000
  S   S349      1.0  0.66627  0.15118  0.90382  1.0000
  Fe  Fe173     1.0  0.61501  0.06500  0.04196  1.0000
  S   S350      1.0  0.60325  0.06022  0.10506  1.0000
  S   S351      1.0  0.62284  0.08632  0.01789  1.0000
  C   C1502     1.0  0.59919  0.17279  0.58379  1.0000
  H   H2667     1.0  0.61975  0.02904  0.24987  1.0000
  Fe  Fe174     1.0  0.60986  0.04258  0.11537  1.0000
  S   S352      1.0  0.59934  0.05547  0.02145  1.0000
  C   C1503     1.0  0.71291  0.24307  0.02690  1.0000
  H   H2668     1.0  0.60392  0.17203  0.66668  1.0000
  S   S353      1.0  0.60493  0.13155  0.88784  1.0000
  C   C1504     1.0  0.69776  0.13962  0.46575  1.0000
  H   H2669     1.0  0.59936  0.11504  0.05351  1.0000
  H   H2670     1.0  0.60949  0.20066  0.30742  1.0000
  H   H2671     1.0  0.62374  0.18500  0.87240  1.0000
  H   H2672     1.0  0.61034  0.11457  0.31520  1.0000
  C   C1505     1.0  0.68915  0.19678  0.59511  1.0000
  H   H2673     1.0  0.67170  0.09197  0.75004  1.0000
  C   C1506     1.0  0.60274  0.10293  0.97057  1.0000
  Fe  Fe175     1.0  0.59995  0.23200  0.02900  1.0000
  H   H2674     1.0  0.61413  0.01733  0.62715  1.0000
  S   S354      1.0  0.61321  0.23547  0.06645  1.0000
  H   H2675     1.0  0.62528  0.22478  0.21126  1.0000
  H   H2676     1.0  0.61676  0.02461  0.57473  1.0000
  C   C1507     1.0  0.61657  0.09481  0.92113  1.0000
  C   C1508     1.0  0.71697  0.15471  0.39316  1.0000
  H   H2677     1.0  0.59561  0.22829  0.31509  1.0000
  C   C1509     1.0  0.61781  0.03826  0.24602  1.0000
  H   H2678     1.0  0.66109  0.06542  0.16511  1.0000
  H   H2679     1.0  0.66210  0.07860  0.18614  1.0000
  H   H2680     1.0  0.66007  0.24041  0.52603  1.0000
  H   H2681     1.0  0.64299  0.06641  0.94399  1.0000
  H   H2682     1.0  0.59050  0.11786  0.38444  1.0000
  C   C1510     1.0  0.62392  0.21346  0.39223  1.0000
  C   C1511     1.0  0.67811  0.11133  0.39616  1.0000
  H   H2683     1.0  0.60666  0.01520  0.92494  1.0000
  C   C1512     1.0  0.59049  0.20842  0.95603  1.0000
  H   H2684     1.0  0.69090  0.11436  0.82278  1.0000
  H   H2685     1.0  0.71433  0.21671  0.67784  1.0000
  C   C1513     1.0  0.59901  0.00833  0.49180  1.0000
  H   H2686     1.0  0.59665  0.20301  0.28878  1.0000
  Fe  Fe176     1.0  0.75480  0.24337  0.12140  1.0000
  H   H2687     1.0  0.59977  0.19574  0.49086  1.0000
  C   C1514     1.0  0.61770  0.01636  0.59676  1.0000
  H   H2688     1.0  0.69940  0.23042  0.51116  1.0000
  S   S355      1.0  0.76520  0.23821  0.06802  1.0000
  C   C1515     1.0  0.72717  0.23676  0.30509  1.0000
  H   H2689     1.0  0.71718  0.12545  0.51556  1.0000
  H   H2690     1.0  0.73456  0.16739  0.35496  1.0000
  C   C1516     1.0  0.61023  0.00420  0.59227  1.0000
  S   S356      1.0  0.62972  0.05594  0.40919  1.0000
  Fe  Fe177     1.0  0.60577  0.03758  0.03689  1.0000
  S   S357      1.0  0.59380  0.03105  0.10075  1.0000
  C   C1517     1.0  0.70720  0.19562  0.99520  1.0000
  C   C1518     1.0  0.70551  0.20096  0.02755  1.0000
  C   C1519     1.0  0.71570  0.20872  0.03463  1.0000
  C   C1520     1.0  0.72781  0.21147  0.00904  1.0000
  C   C1521     1.0  0.72949  0.20614  0.97673  1.0000
  C   C1522     1.0  0.71933  0.19829  0.96987  1.0000
  H   H2691     1.0  0.69624  0.19896  0.04759  1.0000
  H   H2692     1.0  0.71418  0.21251  0.05998  1.0000
  H   H2693     1.0  0.72089  0.19431  0.94489  1.0000
  C   C1523     1.0  0.66179  0.11378  0.97825  1.0000
  C   C1524     1.0  0.66072  0.10070  0.98594  1.0000
  C   C1525     1.0  0.64886  0.09208  0.99830  1.0000
  C   C1526     1.0  0.63803  0.09652  0.00255  1.0000
  C   C1527     1.0  0.63915  0.10959  0.99424  1.0000
  C   C1528     1.0  0.65094  0.11816  0.98239  1.0000
  H   H2694     1.0  0.66908  0.09724  0.98276  1.0000
  H   H2695     1.0  0.64811  0.08204  0.00439  1.0000
  H   H2696     1.0  0.63085  0.11316  0.99750  1.0000
  H   H2697     1.0  0.65165  0.12817  0.97710  1.0000
  C   C1529     1.0  0.62989  0.15408  0.94443  1.0000
  C   C1530     1.0  0.63272  0.14341  0.93428  1.0000
  C   C1531     1.0  0.62495  0.13640  0.91731  1.0000
  C   C1532     1.0  0.61431  0.14005  0.91046  1.0000
  C   C1533     1.0  0.61125  0.15049  0.92158  1.0000
  C   C1534     1.0  0.61897  0.15743  0.93886  1.0000
  H   H2698     1.0  0.64081  0.14045  0.93996  1.0000
  H   H2699     1.0  0.62721  0.12817  0.90945  1.0000
  H   H2700     1.0  0.60301  0.15336  0.91649  1.0000
  H   H2701     1.0  0.61653  0.16551  0.94717  1.0000
  C   C1535     1.0  0.61667  0.05675  0.27018  1.0000
  C   C1536     1.0  0.61248  0.05584  0.20652  1.0000
  C   C1537     1.0  0.61349  0.06227  0.23567  1.0000
  H   H2702     1.0  0.61017  0.06027  0.18004  1.0000
  H   H2703     1.0  0.61198  0.07166  0.23123  1.0000
  Fe  Fe178     1.0  0.60438  0.24168  0.43688  1.0000
  C   C1538     1.0  0.70738  0.19270  0.49600  1.0000
  C   C1539     1.0  0.71546  0.18874  0.51775  1.0000
  C   C1540     1.0  0.72656  0.19732  0.51585  1.0000
  Fe  Fe179     1.0  0.61224  0.04197  0.45369  1.0000
  H   H2704     1.0  0.69494  0.23875  0.93566  1.0000
  C   C1541     1.0  0.71058  0.20533  0.47237  1.0000
  H   H2705     1.0  0.71323  0.17904  0.53564  1.0000
  H   H2706     1.0  0.73278  0.19412  0.53253  1.0000
  H   H2707     1.0  0.70447  0.20847  0.45516  1.0000
  C   C1542     1.0  0.68188  0.15134  0.71846  1.0000
  C   C1543     1.0  0.68594  0.14701  0.75212  1.0000
  C   C1544     1.0  0.68677  0.15411  0.77965  1.0000
  C   C1545     1.0  0.68384  0.16582  0.77326  1.0000
  C   C1546     1.0  0.67993  0.17027  0.73926  1.0000
  C   C1547     1.0  0.67888  0.16305  0.71205  1.0000
  H   H2708     1.0  0.68873  0.13823  0.75634  1.0000
  H   H2709     1.0  0.69012  0.15076  0.80507  1.0000
  H   H2710     1.0  0.67763  0.17932  0.73412  1.0000
  H   H2711     1.0  0.67586  0.16658  0.68606  1.0000
  C   C1548     1.0  0.65850  0.10875  0.51715  1.0000
  C   C1549     1.0  0.65406  0.11572  0.48817  1.0000
  C   C1550     1.0  0.64719  0.10957  0.46652  1.0000
  C   C1551     1.0  0.64416  0.09630  0.47435  1.0000
  C   C1552     1.0  0.64832  0.08929  0.50410  1.0000
  C   C1553     1.0  0.65562  0.09549  0.52475  1.0000
  H   H2712     1.0  0.65623  0.12590  0.48156  1.0000
  H   H2713     1.0  0.64431  0.11519  0.44321  1.0000
  H   H2714     1.0  0.64618  0.07911  0.51057  1.0000
  H   H2715     1.0  0.65909  0.08996  0.54673  1.0000
  H   H2716     1.0  0.63864  0.23768  0.52196  1.0000
  H   H2717     1.0  0.64255  0.13353  0.82769  1.0000
  C   C1554     1.0  0.61437  0.11341  0.44774  1.0000
  H   H2718     1.0  0.62777  0.01645  0.59098  1.0000
  H   H2719     1.0  0.69576  0.11601  0.88791  1.0000
  H   H2720     1.0  0.73706  0.24192  0.57794  1.0000
  H   H2721     1.0  0.59357  0.18973  0.56376  1.0000
  C   C1555     1.0  0.61880  0.19515  0.91630  1.0000
  S   S358      1.0  0.73665  0.23941  0.10504  1.0000
  H   H2722     1.0  0.69890  0.12020  0.48978  1.0000
  H   H2723     1.0  0.66676  0.12445  0.80588  1.0000
  H   H2724     1.0  0.68845  0.20535  0.53489  1.0000
  H   H2725     1.0  0.59312  0.18572  0.61524  1.0000
  C   C1556     1.0  0.72516  0.22992  0.34973  1.0000
  C   C1557     1.0  0.70213  0.20539  0.59021  1.0000
  H   H2726     1.0  0.61648  0.20434  0.91594  1.0000
  H   H2727     1.0  0.61281  0.21102  0.22058  1.0000
  C   C1558     1.0  0.67920  0.09995  0.74976  1.0000
  H   H2728     1.0  0.68664  0.09620  0.76030  1.0000
  H   H2729     1.0  0.73770  0.23020  0.62062  1.0000
  C   C1559     1.0  0.61098  0.14382  0.52571  1.0000
  C   C1560     1.0  0.60516  0.14334  0.56505  1.0000
  C   C1561     1.0  0.61243  0.14630  0.59031  1.0000
  C   C1562     1.0  0.62552  0.14975  0.57631  1.0000
  C   C1563     1.0  0.63127  0.15040  0.53679  1.0000
  C   C1564     1.0  0.62404  0.14736  0.51167  1.0000
  C   C1565     1.0  0.59089  0.18179  0.59135  1.0000
  H   H2730     1.0  0.60790  0.14578  0.62084  1.0000
  H   H2731     1.0  0.64130  0.15331  0.52541  1.0000
  H   H2732     1.0  0.62858  0.14777  0.48126  1.0000
  S   S359      1.0  0.60007  0.04524  0.41298  1.0000
  N   N84       1.0  0.62877  0.19526  0.97512  1.0000
  H   H2733     1.0  0.72704  0.20681  0.58477  1.0000
  C   C1566     1.0  0.64033  0.19364  0.98831  1.0000
  C   C1567     1.0  0.61788  0.18470  0.00267  1.0000
  C   C1568     1.0  0.62599  0.20764  0.97860  1.0000
  H   H2734     1.0  0.60492  0.13855  0.03740  1.0000
  H   H2735     1.0  0.68165  0.11579  0.77357  1.0000
  C   C1569     1.0  0.61511  0.18379  0.04783  1.0000
  C   C1570     1.0  0.65310  0.19813  0.95578  1.0000
  C   C1571     1.0  0.66395  0.19778  0.97450  1.0000
  H   H2736     1.0  0.72208  0.16630  0.33147  1.0000
  H   H2737     1.0  0.61677  0.20818  0.97338  1.0000
  C   C1572     1.0  0.60575  0.17134  0.07287  1.0000
  H   H2738     1.0  0.70942  0.13715  0.38311  1.0000
  H   H2739     1.0  0.59664  0.08926  0.93861  1.0000
  H   H2740     1.0  0.64116  0.19841  0.01206  1.0000
  H   H2741     1.0  0.63953  0.18348  0.00247  1.0000
  H   H2742     1.0  0.61932  0.17545  0.99870  1.0000
  H   H2743     1.0  0.60905  0.18561  0.99522  1.0000
  H   H2744     1.0  0.71261  0.22789  0.98028  1.0000
  H   H2745     1.0  0.62492  0.20834  0.00961  1.0000
  H   H2746     1.0  0.64975  0.04634  0.07530  1.0000
  H   H2747     1.0  0.70271  0.14931  0.36409  1.0000
  H   H2748     1.0  0.60335  0.10722  0.63043  1.0000
  H   H2749     1.0  0.71875  0.16489  0.68697  1.0000
  H   H2750     1.0  0.61093  0.19159  0.05414  1.0000
  H   H2751     1.0  0.62364  0.18430  0.05819  1.0000
  H   H2752     1.0  0.65351  0.19176  0.93611  1.0000
  H   H2753     1.0  0.65466  0.20784  0.93679  1.0000
  H   H2754     1.0  0.66411  0.20415  0.99410  1.0000
  H   H2755     1.0  0.66315  0.18800  0.99218  1.0000
  H   H2756     1.0  0.67295  0.20093  0.95068  1.0000
  H   H2757     1.0  0.66991  0.11381  0.89530  1.0000
  H   H2758     1.0  0.68396  0.12758  0.82396  1.0000
  C   C1573     1.0  0.70048  0.20403  0.66062  1.0000
  H   H2759     1.0  0.68062  0.12235  0.45798  1.0000
  N   N85       1.0  0.60856  0.09734  0.56218  1.0000
  H   H2760     1.0  0.58932  0.03772  0.18916  1.0000
  H   H2761     1.0  0.60266  0.08101  0.61422  1.0000
  H   H2762     1.0  0.60052  0.21597  0.39068  1.0000
  H   H2763     1.0  0.60348  0.17114  0.10485  1.0000
  C   C1574     1.0  0.66760  0.09970  0.81976  1.0000
  H   H2764     1.0  0.59171  0.08302  0.03643  1.0000
  H   H2765     1.0  0.59440  0.06765  0.33780  1.0000
  H   H2766     1.0  0.73689  0.23725  0.28856  1.0000
  H   H2767     1.0  0.62054  0.09828  0.50477  1.0000
  C   C1575     1.0  0.60407  0.09164  0.95309  1.0000
  H   H2768     1.0  0.60128  0.16108  0.75977  1.0000
  N   N86       1.0  0.66337  0.10650  0.85054  1.0000
  H   H2769     1.0  0.59764  0.01524  0.37780  1.0000
  H   H2770     1.0  0.72976  0.15351  0.33935  1.0000
  C   C1576     1.0  0.65103  0.13717  0.83631  1.0000
  H   H2771     1.0  0.61701  0.10280  0.89559  1.0000
  H   H2772     1.0  0.60865  0.01167  0.43007  1.0000
  S   S360      1.0  0.59816  0.22145  0.47828  1.0000
  C   C1577     1.0  0.71393  0.18233  0.66302  1.0000
  C   C1578     1.0  0.68577  0.11920  0.84239  1.0000
  H   H2773     1.0  0.61093  0.10524  0.98220  1.0000
  H   H2774     1.0  0.59298  0.02385  0.31575  1.0000
  H   H2775     1.0  0.64058  0.17662  0.80741  1.0000
  H   H2776     1.0  0.72387  0.23827  0.23054  1.0000
  H   H2777     1.0  0.64874  0.14334  0.85563  1.0000
  C   C1579     1.0  0.71164  0.13246  0.50898  1.0000
  H   H2778     1.0  0.76408  0.23737  0.31260  1.0000
  C   C1580     1.0  0.69835  0.20825  0.72826  1.0000
  H   H2779     1.0  0.71605  0.22757  0.61250  1.0000
  H   H2780     1.0  0.62183  0.07738  0.57379  1.0000
  H   H2781     1.0  0.72097  0.23027  0.29426  1.0000
  C   C1581     1.0  0.64641  0.24314  0.49499  1.0000
  H   H2782     1.0  0.60003  0.09589  0.04784  1.0000
  H   H2783     1.0  0.59364  0.21859  0.94483  1.0000
  H   H2784     1.0  0.73030  0.23588  0.36452  1.0000
  C   C1582     1.0  0.70146  0.23861  0.52328  1.0000
  H   H2785     1.0  0.60036  0.00474  0.59749  1.0000
  H   H2786     1.0  0.63609  0.07936  0.94915  1.0000
  H   H2787     1.0  0.60356  0.08313  0.97678  1.0000
  N   N87       1.0  0.70813  0.20185  0.62344  1.0000
  H   H2788     1.0  0.60039  0.11348  0.56199  1.0000
  C   C1583     1.0  0.61008  0.11215  0.49236  1.0000
  C   C1584     1.0  0.59510  0.10239  0.62294  1.0000
  H   H2789     1.0  0.62955  0.20201  0.85360  1.0000
  H   H2790     1.0  0.71803  0.14207  0.49847  1.0000
  H   H2791     1.0  0.59664  0.09673  0.39896  1.0000
  H   H2792     1.0  0.71948  0.23683  0.02742  1.0000
  N   N88       1.0  0.61805  0.15424  0.75597  1.0000
  C   C1585     1.0  0.61024  0.14176  0.78455  1.0000
  C   C1586     1.0  0.62312  0.16259  0.77937  1.0000
  C   C1587     1.0  0.60939  0.16051  0.73653  1.0000
  C   C1588     1.0  0.62849  0.15283  0.72393  1.0000
  C   C1589     1.0  0.63456  0.14171  0.73567  1.0000
  C   C1590     1.0  0.60266  0.13280  0.76627  1.0000
  C   C1591     1.0  0.61526  0.17398  0.70767  1.0000
  C   C1592     1.0  0.63231  0.15809  0.80213  1.0000
  C   C1593     1.0  0.63582  0.16691  0.82689  1.0000
  C   C1594     1.0  0.64728  0.14381  0.70621  1.0000
  H   H2793     1.0  0.61035  0.18809  0.66559  1.0000
  H   H2794     1.0  0.64855  0.23675  0.47624  1.0000
  C   C1595     1.0  0.59864  0.11919  0.79283  1.0000
  H   H2795     1.0  0.61598  0.13652  0.79985  1.0000
  H   H2796     1.0  0.62839  0.17208  0.75934  1.0000
  H   H2797     1.0  0.61523  0.16411  0.80128  1.0000
  C   C1596     1.0  0.60613  0.17833  0.68535  1.0000
  H   H2798     1.0  0.60535  0.15472  0.71884  1.0000
  H   H2799     1.0  0.62519  0.15150  0.69771  1.0000
  H   H2800     1.0  0.63602  0.16177  0.71183  1.0000
  H   H2801     1.0  0.62851  0.13276  0.73542  1.0000
  H   H2802     1.0  0.63597  0.14032  0.76569  1.0000
  H   H2803     1.0  0.69113  0.19921  0.74268  1.0000
  H   H2804     1.0  0.60808  0.13296  0.73617  1.0000
  H   H2805     1.0  0.62394  0.17431  0.68525  1.0000
  C   C1597     1.0  0.59122  0.09250  0.04037  1.0000
  H   H2806     1.0  0.59696  0.17034  0.06376  1.0000
  H   H2807     1.0  0.64113  0.15822  0.78074  1.0000
  H   H2808     1.0  0.59195  0.09245  0.64155  1.0000
  H   H2809     1.0  0.62556  0.20996  0.24304  1.0000
  C   C1598     1.0  0.63600  0.21965  0.95148  1.0000
  H   H2810     1.0  0.64641  0.14559  0.67537  1.0000
  H   H2811     1.0  0.65401  0.15204  0.70816  1.0000
  H   H2812     1.0  0.65104  0.13535  0.71308  1.0000
  H   H2813     1.0  0.64454  0.22056  0.96193  1.0000
  H   H2814     1.0  0.62300  0.23121  0.94188  1.0000
  H   H2815     1.0  0.73991  0.22002  0.33945  1.0000
  H   H2816     1.0  0.68435  0.24149  0.47656  1.0000
  H   H2817     1.0  0.73538  0.24347  0.97305  1.0000
  H   H2818     1.0  0.61632  0.10345  0.34576  1.0000
  H   H2819     1.0  0.67183  0.10553  0.42584  1.0000
  H   H2820     1.0  0.67935  0.24290  0.52530  1.0000
  H   H2821     1.0  0.60332  0.14340  0.80912  1.0000
  H   H2822     1.0  0.72464  0.21126  0.34054  1.0000
  H   H2823     1.0  0.70756  0.18123  0.69276  1.0000
  S   S361      1.0  0.61557  0.03621  0.17254  1.0000
  N   N89       1.0  0.59682  0.20929  0.34133  1.0000
  H   H2824     1.0  0.61213  0.09855  0.14108  1.0000
  C   C1599     1.0  0.68800  0.12674  0.42923  1.0000
  H   H2825     1.0  0.62099  0.04020  0.30202  1.0000
  H   H2826     1.0  0.64226  0.16343  0.84346  1.0000
  H   H2827     1.0  0.60979  0.16323  0.06930  1.0000
  H   H2828     1.0  0.67363  0.19624  0.56900  1.0000
  H   H2829     1.0  0.61888  0.21576  0.41904  1.0000
  H   H2830     1.0  0.61015  0.08248  0.13855  1.0000
  H   H2831     1.0  0.62988  0.22232  0.36987  1.0000
  C   C1600     1.0  0.61665  0.09203  0.12722  1.0000
  H   H2832     1.0  0.61839  0.09542  0.09436  1.0000
  H   H2833     1.0  0.68653  0.10760  0.38935  1.0000
  Fe  Fe180     1.0  0.74731  0.23594  0.04904  1.0000
  H   H2834     1.0  0.63005  0.20738  0.40133  1.0000
  H   H2835     1.0  0.64907  0.10185  0.90709  1.0000
  H   H2836     1.0  0.69368  0.21597  0.72060  1.0000
  H   H2837     1.0  0.67311  0.12855  0.39985  1.0000
  C   C1601     1.0  0.73612  0.23169  0.59061  1.0000
  H   H2838     1.0  0.62018  0.20417  0.34871  1.0000
  H   H2839     1.0  0.62456  0.11431  0.43795  1.0000
  H   H2840     1.0  0.69810  0.22289  0.90000  1.0000
  C   C1602     1.0  0.61465  0.20649  0.37455  1.0000
  H   H2841     1.0  0.60416  0.11124  0.94520  1.0000
  H   H2842     1.0  0.61041  0.18742  0.93377  1.0000
  H   H2843     1.0  0.62672  0.08839  0.17078  1.0000
  C   C1603     1.0  0.63571  0.08299  0.11783  1.0000
  H   H2844     1.0  0.61580  0.12027  0.49812  1.0000
  H   H2845     1.0  0.65137  0.11489  0.81934  1.0000
  Fe  Fe181     1.0  0.75171  0.24125  0.45632  1.0000
  H   H2846     1.0  0.63567  0.07302  0.90729  1.0000
  H   H2847     1.0  0.63473  0.10157  0.12775  1.0000
  H   H2848     1.0  0.58922  0.03592  0.26454  1.0000
  C   C1604     1.0  0.60576  0.21460  0.36243  1.0000
  H   H2849     1.0  0.59048  0.08938  0.12127  1.0000
  H   H2850     1.0  0.72626  0.20815  0.63310  1.0000
  H   H2851     1.0  0.60919  0.19767  0.39799  1.0000
  C   C1605     1.0  0.68182  0.12520  0.39556  1.0000
  H   H2852     1.0  0.68825  0.13061  0.36577  1.0000
  H   H2853     1.0  0.72997  0.23975  0.93262  1.0000
  H   H2854     1.0  0.72194  0.14992  0.41301  1.0000
  C   C1606     1.0  0.65212  0.09759  0.88249  1.0000
  C   C1607     1.0  0.70747  0.20739  0.69096  1.0000
  H   H2855     1.0  0.70633  0.16290  0.66350  1.0000
  C   C1608     1.0  0.60361  0.20740  0.30249  1.0000
  H   H2856     1.0  0.59080  0.05115  0.30077  1.0000
  C   C1609     1.0  0.62893  0.09171  0.13786  1.0000
  C   C1610     1.0  0.58929  0.21877  0.33143  1.0000
  H   H2857     1.0  0.64067  0.13001  0.56854  1.0000
  H   H2858     1.0  0.59474  0.07960  0.57721  1.0000
  C   C1611     1.0  0.63014  0.19401  0.93330  1.0000
  C   C1612     1.0  0.72965  0.21001  0.49281  1.0000
  C   C1613     1.0  0.58960  0.11400  0.00690  1.0000
  C   C1614     1.0  0.70583  0.23381  0.97764  1.0000
  H   H2859     1.0  0.61234  0.12200  0.43075  1.0000
  H   H2860     1.0  0.65857  0.14300  0.80917  1.0000
  C   C1615     1.0  0.72156  0.21396  0.47107  1.0000
  C   C1616     1.0  0.69436  0.12398  0.86597  1.0000
  H   H2861     1.0  0.62887  0.07366  0.12660  1.0000
  H   H2862     1.0  0.66693  0.11176  0.76289  1.0000
  C   C1617     1.0  0.62157  0.19417  0.87352  1.0000
  H   H2863     1.0  0.70361  0.12948  0.84523  1.0000
  H   H2864     1.0  0.72328  0.18813  0.66027  1.0000
  H   H2865     1.0  0.65971  0.08569  0.92398  1.0000
  H   H2866     1.0  0.60918  0.17779  0.57693  1.0000
  H   H2867     1.0  0.59800  0.05815  0.57826  1.0000
  C   C1618     1.0  0.60687  0.06104  0.58590  1.0000
  H   H2868     1.0  0.68208  0.14826  0.39640  1.0000
  H   H2869     1.0  0.60020  0.11275  0.49935  1.0000
  H   H2870     1.0  0.69593  0.21188  0.65277  1.0000
  H   H2871     1.0  0.60141  0.18484  0.36610  1.0000
  H   H2872     1.0  0.74341  0.22876  0.57075  1.0000
  H   H2873     1.0  0.66322  0.13034  0.86900  1.0000
  S   S362      1.0  0.60670  0.02612  0.99054  1.0000
  H   H2874     1.0  0.65861  0.08003  0.88160  1.0000
  H   H2875     1.0  0.63059  0.11892  0.61417  1.0000
  H   H2876     1.0  0.59788  0.16929  0.55798  1.0000
  H   H2877     1.0  0.71259  0.12968  0.45097  1.0000
  C   C1619     1.0  0.61283  0.07513  0.56639  1.0000
  C   C1620     1.0  0.63135  0.23145  0.95329  1.0000
  N   N90       1.0  0.69436  0.14008  0.42715  1.0000
  H   H2878     1.0  0.67628  0.14349  0.44946  1.0000
  C   C1621     1.0  0.70825  0.18810  0.62990  1.0000
  H   H2879     1.0  0.67412  0.09408  0.82896  1.0000
  H   H2880     1.0  0.63725  0.08656  0.08507  1.0000
  H   H2881     1.0  0.64510  0.05186  0.22673  1.0000
  C   C1622     1.0  0.59824  0.10328  0.57777  1.0000
  H   H2882     1.0  0.61490  0.07668  0.53364  1.0000
  H   H2883     1.0  0.68297  0.19452  0.62589  1.0000
  C   C1623     1.0  0.70328  0.23496  0.93643  1.0000
  C   C1624     1.0  0.60979  0.10971  0.34644  1.0000
  C   C1625     1.0  0.72146  0.20976  0.60936  1.0000
  H   H2884     1.0  0.69476  0.12069  0.42900  1.0000
  C   C1626     1.0  0.65570  0.07003  0.18479  1.0000
  H   H2885     1.0  0.78244  0.22626  0.11242  1.0000
  H   H2886     1.0  0.69276  0.21524  0.95291  1.0000
  H   H2887     1.0  0.70834  0.20555  0.56119  1.0000
  H   H2888     1.0  0.69259  0.19559  0.67694  1.0000
  C   C1627     1.0  0.63538  0.12002  0.58248  1.0000
  H   H2889     1.0  0.64216  0.11404  0.58129  1.0000
  C   C1628     1.0  0.67390  0.10782  0.77588  1.0000
  H   H2890     1.0  0.62734  0.16721  0.84891  1.0000
  H   H2891     1.0  0.69695  0.22806  0.00006  1.0000
  H   H2892     1.0  0.61335  0.05550  0.57472  1.0000
  H   H2893     1.0  0.61394  0.00409  0.56097  1.0000
  C   C1629     1.0  0.68495  0.14794  0.42421  1.0000
  H   H2894     1.0  0.65149  0.10497  0.07101  1.0000
  H   H2895     1.0  0.65919  0.05883  0.23721  1.0000
  H   H2896     1.0  0.69859  0.18200  0.63844  1.0000
  H   H2897     1.0  0.60499  0.05880  0.61883  1.0000
  C   C1630     1.0  0.70531  0.12982  0.47727  1.0000
  H   H2898     1.0  0.67538  0.11625  0.09105  1.0000
  C   C1631     1.0  0.65108  0.06090  0.22675  1.0000
  H   H2899     1.0  0.65217  0.09834  0.14643  1.0000
  H   H2900     1.0  0.73876  0.20807  0.95677  1.0000
  H   H2901     1.0  0.70348  0.21021  0.75009  1.0000
  H   H2902     1.0  0.59509  0.14060  0.57618  1.0000
  H   H2903     1.0  0.61743  0.18091  0.72442  1.0000
  S   S363      1.0  0.74337  0.22058  0.49358  1.0000
  C   C1632     1.0  0.59828  0.00993  0.94850  1.0000
  C   C1633     1.0  0.65523  0.12622  0.85900  1.0000
  H   H2904     1.0  0.68913  0.13727  0.49097  1.0000
  H   H2905     1.0  0.67677  0.16928  0.39116  1.0000
  C   C1634     1.0  0.76361  0.24278  0.28410  1.0000
  H   H2906     1.0  0.68041  0.21163  0.57285  1.0000
  C   C1635     1.0  0.60405  0.08324  0.58147  1.0000
  C   C1636     1.0  0.59007  0.99982  0.94243  1.0000
  H   H2907     1.0  0.64002  0.07834  0.19097  1.0000
  N   N91       1.0  0.64774  0.08145  0.12747  1.0000
  C   C1637     1.0  0.65625  0.09402  0.12308  1.0000
  C   C1638     1.0  0.64457  0.07349  0.17008  1.0000
  H   H2908     1.0  0.63801  0.06048  0.10124  1.0000
  C   C1639     1.0  0.66664  0.11677  0.08235  1.0000
  H   H2909     1.0  0.59402  0.13583  0.76333  1.0000
  H   H2910     1.0  0.64734  0.12083  0.88558  1.0000
  C   C1640     1.0  0.76048  0.23658  0.25617  1.0000
  C   C1641     1.0  0.67347  0.10993  0.87019  1.0000
  S   S364      1.0  0.59396  0.21109  0.02919  1.0000
  C   C1642     1.0  0.64140  0.07532  0.92732  1.0000
  H   H2911     1.0  0.64565  0.06506  0.24803  1.0000
  H   H2912     1.0  0.63842  0.21960  0.91983  1.0000
  H   H2913     1.0  0.66056  0.12046  0.10352  1.0000
  C   C1643     1.0  0.65979  0.10379  0.08153  1.0000
  H   H2914     1.0  0.70904  0.21819  0.92625  1.0000
  H   H2915     1.0  0.72191  0.22642  0.56275  1.0000
  H   H2916     1.0  0.71261  0.20034  0.70052  1.0000
  H   H2917     1.0  0.66917  0.12351  0.05216  1.0000
  H   H2918     1.0  0.62892  0.23208  0.98447  1.0000
  H   H2919     1.0  0.67616  0.10136  0.88439  1.0000
  H   H2920     1.0  0.59042  0.12054  0.97745  1.0000
  H   H2921     1.0  0.60447  0.09208  0.51075  1.0000
  C   C1644     1.0  0.64771  0.06130  0.10351  1.0000
  H   H2922     1.0  0.61893  0.09839  0.60565  1.0000
  H   H2923     1.0  0.63753  0.06455  0.17503  1.0000
  H   H2924     1.0  0.71324  0.18658  0.60145  1.0000
  H   H2925     1.0  0.66615  0.10074  0.05921  1.0000
  C   C1645     1.0  0.65434  0.07518  0.09893  1.0000
  H   H2926     1.0  0.65555  0.08058  0.06764  1.0000
  H   H2927     1.0  0.66529  0.09275  0.12843  1.0000
  C   C1646     1.0  0.61109  0.09942  0.51755  1.0000
  S   S365      1.0  0.74113  0.22151  0.01548  1.0000
  C   C1647     1.0  0.70560  0.14503  0.39074  1.0000
  H   H2928     1.0  0.67021  0.16388  0.44465  1.0000
  C   C1648     1.0  0.65924  0.11791  0.83175  1.0000
  C   C1649     1.0  0.67889  0.16876  0.42020  1.0000
  C   C1650     1.0  0.70062  0.22203  0.92852  1.0000
  H   H2929     1.0  0.60904  0.12271  0.00322  1.0000
  C   C1651     1.0  0.59714  0.13338  0.02856  1.0000
  S   S366      1.0  0.75578  0.23516  0.18494  1.0000
  H   H2930     1.0  0.65481  0.06195  0.04102  1.0000
  H   H2931     1.0  0.64733  0.05499  0.13271  1.0000
  C   C1652     1.0  0.68255  0.20294  0.56614  1.0000
  H   H2932     1.0  0.69037  0.18782  0.58833  1.0000
  H   H2933     1.0  0.59325  0.11871  0.82339  1.0000
  C   C1653     1.0  0.59649  0.10184  0.36881  1.0000
  H   H2934     1.0  0.72233  0.16973  0.63328  1.0000
  H   H2935     1.0  0.68197  0.17854  0.42222  1.0000
  H   H2936     1.0  0.70450  0.13156  0.53701  1.0000
  C   C1654     1.0  0.65394  0.08455  0.90317  1.0000
  C   C1655     1.0  0.72308  0.22420  0.59333  1.0000
  H   H2937     1.0  0.60949  0.10502  0.44069  1.0000
  C   C1656     1.0  0.59022  0.99950  0.52537  1.0000
  C   C1657     1.0  0.65464  0.05630  0.07100  1.0000
  H   H2938     1.0  0.71139  0.22780  0.10287  1.0000
  H   H2939     1.0  0.66404  0.07547  0.10101  1.0000
  H   H2940     1.0  0.61862  0.12171  0.56671  1.0000
  H   H2941     1.0  0.64404  0.09585  0.86983  1.0000
  C   C1658     1.0  0.68926  0.16192  0.42352  1.0000
  H   H2942     1.0  0.71425  0.16236  0.40515  1.0000
  H   H2943     1.0  0.59368  0.03518  0.34413  1.0000
  C   C1659     1.0  0.59581  0.01325  0.98468  1.0000
  H   H2944     1.0  0.69658  0.22985  0.12803  1.0000
  C   C1660     1.0  0.59079  0.19610  0.48561  1.0000
  C   C1661     1.0  0.62583  0.11646  0.56031  1.0000
  C   C1662     1.0  0.59171  0.18453  0.36466  1.0000
  C   C1663     1.0  0.62036  0.10201  0.57294  1.0000
  H   H2945     1.0  0.61906  0.22469  0.28181  1.0000
  H   H2946     1.0  0.61144  0.22425  0.34449  1.0000
  H   H2947     1.0  0.63213  0.18477  0.93189  1.0000
  H   H2948     1.0  0.65948  0.09271  0.81804  1.0000
  H   H2949     1.0  0.61319  0.19472  0.86258  1.0000
  H   H2950     1.0  0.75837  0.22638  0.26373  1.0000
  H   H2951     1.0  0.63835  0.20111  0.91155  1.0000
  H   H2952     1.0  0.62802  0.09810  0.55906  1.0000
  H   H2953     1.0  0.69725  0.16702  0.39702  1.0000
  H   H2954     1.0  0.69186  0.16272  0.45103  1.0000
  H   H2955     1.0  0.72379  0.22366  0.45320  1.0000
  C   C1664     1.0  0.59953  0.12077  0.02374  1.0000
  S   S367      1.0  0.60780  0.02236  0.49751  1.0000
  H   H2956     1.0  0.68336  0.10598  0.71851  1.0000
  H   H2957     1.0  0.62819  0.14850  0.82288  1.0000
  H   H2958     1.0  0.67304  0.11039  0.37341  1.0000
  H   H2959     1.0  0.63071  0.11975  0.52794  1.0000
  H   H2960     1.0  0.66437  0.05662  0.07251  1.0000
  H   H2961     1.0  0.70296  0.14902  0.46574  1.0000
  C   C1665     1.0  0.71541  0.16917  0.66147  1.0000
  C   C1666     1.0  0.61937  0.21601  0.23416  1.0000
  C   C1667     1.0  0.61214  0.21939  0.27016  1.0000
  H   H2962     1.0  0.69558  0.23629  0.55453  1.0000
  H   H2963     1.0  0.71133  0.24122  0.91174  1.0000
  H   H2964     1.0  0.58950  0.09898  0.57150  1.0000
  C   C1668     1.0  0.70134  0.23637  0.06347  1.0000
  H   H2965     1.0  0.59261  0.11319  0.78019  1.0000
  H   H2966     1.0  0.59735  0.17825  0.70696  1.0000
  C   C1669     1.0  0.58959  0.20253  0.99576  1.0000
  H   H2967     1.0  0.70524  0.24125  0.30551  1.0000
  C   C1670     1.0  0.70506  0.23426  0.10237  1.0000
  H   H2968     1.0  0.72800  0.21298  0.38616  1.0000
  H   H2969     1.0  0.61756  0.08645  0.91018  1.0000
  C   C1671     1.0  0.76001  0.24346  0.21870  1.0000
  H   H2970     1.0  0.60695  0.11542  0.79460  1.0000
  H   H2971     1.0  0.69431  0.24203  0.06589  1.0000
  C   C1672     1.0  0.72970  0.21781  0.35406  1.0000
  H   H2972     1.0  0.59100  0.18284  0.33576  1.0000
  H   H2973     1.0  0.62449  0.09747  0.93352  1.0000
  H   H2974     1.0  0.59405  0.09476  0.35284  1.0000
  H   H2975     1.0  0.63877  0.24001  0.93461  1.0000
  H   H2976     1.0  0.71144  0.24051  0.52322  1.0000
  H   H2977     1.0  0.59695  0.16460  0.61051  1.0000
  H   H2978     1.0  0.59221  0.99744  0.91447  1.0000
  H   H2979     1.0  0.71508  0.22724  0.36622  1.0000
  H   H2980     1.0  0.70977  0.24339  0.10589  1.0000
  N   N92       1.0  0.59074  0.10119  0.00219  1.0000
  H   H2981     1.0  0.58842  0.10654  0.44750  1.0000
  Fe  Fe182     1.0  0.58833  0.04937  0.08549  1.0000
  Fe  Fe183     1.0  0.60383  0.35302  0.52804  1.0000
  H   H2982     1.0  0.68417  0.30686  0.07831  1.0000
  S   S368      1.0  0.62465  0.35961  0.51497  1.0000
  H   H2983     1.0  0.63282  0.29634  0.15192  1.0000
  C   C1673     1.0  0.66902  0.25611  0.47055  1.0000
  S   S369      1.0  0.59935  0.34797  0.78303  1.0000
  H   H2984     1.0  0.64315  0.25084  0.47819  1.0000
  Fe  Fe184     1.0  0.65045  0.41103  0.60319  1.0000
  S   S370      1.0  0.66002  0.42339  0.54117  1.0000
  S   S371      1.0  0.63255  0.39578  0.62361  1.0000
  Fe  Fe185     1.0  0.66877  0.42468  0.64023  1.0000
  S   S372      1.0  0.68005  0.43835  0.58076  1.0000
  S   S373      1.0  0.67141  0.42018  0.70253  1.0000
  Fe  Fe186     1.0  0.66121  0.43924  0.56985  1.0000
  S   S374      1.0  0.65549  0.45728  0.54714  1.0000
  Fe  Fe187     1.0  0.67795  0.42142  0.55657  1.0000
  S   S375      1.0  0.69204  0.41480  0.51520  1.0000
  S   S376      1.0  0.65033  0.42692  0.63105  1.0000
  S   S377      1.0  0.66804  0.40769  0.61657  1.0000
  H   H2985     1.0  0.71897  0.40999  0.36925  1.0000
  C   C1674     1.0  0.71161  0.29156  0.51000  1.0000
  Fe  Fe188     1.0  0.60698  0.37339  0.87379  1.0000
  H   H2986     1.0  0.59761  0.46181  0.17548  1.0000
  S   S378      1.0  0.62397  0.38973  0.85058  1.0000
  H   H2987     1.0  0.66847  0.28957  0.88894  1.0000
  C   C1675     1.0  0.67463  0.27220  0.57327  1.0000
  S   S379      1.0  0.60942  0.35446  0.86904  1.0000
  Fe  Fe189     1.0  0.67669  0.44438  0.88395  1.0000
  S   S380      1.0  0.67703  0.45611  0.92745  1.0000
  S   S381      1.0  0.68107  0.45426  0.81790  1.0000
  Fe  Fe190     1.0  0.66488  0.41981  0.94992  1.0000
  S   S382      1.0  0.66372  0.42956  0.99804  1.0000
  S   S383      1.0  0.65664  0.39879  0.96699  1.0000
  Fe  Fe191     1.0  0.65754  0.44430  0.95885  1.0000
  S   S384      1.0  0.64006  0.45136  0.97474  1.0000
  Fe  Fe192     1.0  0.68343  0.44042  0.96305  1.0000
  S   S385      1.0  0.69560  0.44187  0.00520  1.0000
  S   S386      1.0  0.65691  0.43343  0.91379  1.0000
  S   S387      1.0  0.68488  0.42974  0.91664  1.0000
  C   C1676     1.0  0.69916  0.25031  0.49750  1.0000
  H   H2988     1.0  0.74159  0.25461  0.31533  1.0000
  S   S388      1.0  0.61288  0.26547  0.04195  1.0000
  C   C1677     1.0  0.71917  0.29752  0.99768  1.0000
  Fe  Fe193     1.0  0.59984  0.26042  0.00618  1.0000
  H   H2989     1.0  0.62579  0.27932  0.23674  1.0000
  C   C1678     1.0  0.68822  0.27897  0.41452  1.0000
  N   N93       1.0  0.64090  0.28573  0.11368  1.0000
  H   H2990     1.0  0.62176  0.44843  0.38668  1.0000
  Fe  Fe194     1.0  0.75555  0.42119  0.04271  1.0000
  S   S389      1.0  0.74240  0.40466  0.09159  1.0000
  S   S390      1.0  0.75069  0.43529  0.99580  1.0000
  Fe  Fe195     1.0  0.77893  0.41292  0.05495  1.0000
  S   S391      1.0  0.76748  0.39568  0.10416  1.0000
  Fe  Fe196     1.0  0.75457  0.39314  0.06585  1.0000
  S   S392      1.0  0.74808  0.37351  0.05925  1.0000
  Fe  Fe197     1.0  0.75634  0.40848  0.12664  1.0000
  S   S393      1.0  0.74953  0.40461  0.19444  1.0000
  S   S394      1.0  0.76686  0.40931  0.01502  1.0000
  S   S395      1.0  0.76867  0.42608  0.07949  1.0000
  Fe  Fe198     1.0  0.68700  0.32373  0.94000  1.0000
  S   S396      1.0  0.69276  0.34376  0.90141  1.0000
  S   S397      1.0  0.66658  0.31551  0.97238  1.0000
  Fe  Fe199     1.0  0.71306  0.32003  0.91766  1.0000
  S   S398      1.0  0.72096  0.33977  0.87745  1.0000
  H   H2991     1.0  0.69937  0.37219  0.54781  1.0000
  Fe  Fe200     1.0  0.70931  0.34552  0.92660  1.0000
  S   S399      1.0  0.71560  0.36413  0.94025  1.0000
  Fe  Fe201     1.0  0.70385  0.33631  0.85592  1.0000
  S   S400      1.0  0.70639  0.34240  0.78937  1.0000
  S   S401      1.0  0.70261  0.32592  0.96907  1.0000
  S   S402      1.0  0.69678  0.31613  0.89254  1.0000
  Fe  Fe202     1.0  0.60223  0.26868  0.40625  1.0000
  S   S403      1.0  0.62129  0.27452  0.36224  1.0000
  C   C1679     1.0  0.59800  0.31342  0.93534  1.0000
  H   H2992     1.0  0.60155  0.43629  0.11327  1.0000
  H   H2993     1.0  0.63695  0.31237  0.36254  1.0000
  C   C1680     1.0  0.73859  0.30698  0.55648  1.0000
  H   H2994     1.0  0.59563  0.42320  0.45734  1.0000
  Fe  Fe203     1.0  0.62731  0.26444  0.41349  1.0000
  C   C1681     1.0  0.70652  0.43768  0.41351  1.0000
  Fe  Fe204     1.0  0.76730  0.39454  0.45316  1.0000
  C   C1682     1.0  0.71231  0.28440  0.54642  1.0000
  Fe  Fe205     1.0  0.76369  0.42027  0.45548  1.0000
  H   H2995     1.0  0.62374  0.47583  0.49891  1.0000
  S   S404      1.0  0.75099  0.43100  0.48459  1.0000
  H   H2996     1.0  0.61916  0.41520  0.96221  1.0000
  H   H2997     1.0  0.59263  0.30208  0.84576  1.0000
  S   S405      1.0  0.75741  0.40719  0.42092  1.0000
  Fe  Fe206     1.0  0.77615  0.41624  0.37629  1.0000
  Fe  Fe207     1.0  0.69435  0.30195  0.58668  1.0000
  H   H2998     1.0  0.61845  0.45287  0.77856  1.0000
  Fe  Fe208     1.0  0.69272  0.32881  0.55855  1.0000
  S   S406      1.0  0.67271  0.32423  0.59504  1.0000
  S   S407      1.0  0.70102  0.34931  0.52336  1.0000
  Fe  Fe209     1.0  0.67896  0.31313  0.64381  1.0000
  S   S408      1.0  0.67108  0.31269  0.70823  1.0000
  Fe  Fe210     1.0  0.66994  0.30685  0.57349  1.0000
  S   S409      1.0  0.65148  0.29934  0.56128  1.0000
  S   S410      1.0  0.69917  0.31887  0.60900  1.0000
  S   S411      1.0  0.68948  0.31230  0.53279  1.0000
  C   C1683     1.0  0.74320  0.36688  0.49358  1.0000
  C   C1684     1.0  0.73819  0.35406  0.51466  1.0000
  C   C1685     1.0  0.72528  0.34856  0.52407  1.0000
  C   C1686     1.0  0.71728  0.35584  0.51226  1.0000
  C   C1687     1.0  0.72228  0.36864  0.49124  1.0000
  C   C1688     1.0  0.73516  0.37415  0.48203  1.0000
  H   H2999     1.0  0.74433  0.34839  0.52376  1.0000
  H   H3000     1.0  0.72154  0.33868  0.54023  1.0000
  H   H3001     1.0  0.71617  0.37433  0.48189  1.0000
  H   H3002     1.0  0.73886  0.38401  0.46603  1.0000
  C   C1689     1.0  0.65020  0.29202  0.52284  1.0000
  C   C1690     1.0  0.63852  0.28460  0.52464  1.0000
  C   C1691     1.0  0.63699  0.27909  0.49379  1.0000
  C   C1692     1.0  0.64715  0.28100  0.46068  1.0000
  C   C1693     1.0  0.65879  0.28852  0.45876  1.0000
  C   C1694     1.0  0.66036  0.29392  0.48977  1.0000
  H   H3003     1.0  0.63061  0.28305  0.55015  1.0000
  H   H3004     1.0  0.62798  0.27332  0.49574  1.0000
  N   N94       1.0  0.59315  0.43299  0.04294  1.0000
  H   H3005     1.0  0.66935  0.29977  0.48767  1.0000
  C   C1695     1.0  0.69634  0.33419  0.76748  1.0000
  C   C1696     1.0  0.70089  0.33413  0.72777  1.0000
  C   C1697     1.0  0.69323  0.32753  0.70946  1.0000
  C   C1698     1.0  0.68084  0.32122  0.73036  1.0000
  C   C1699     1.0  0.67614  0.32166  0.76966  1.0000
  C   C1700     1.0  0.68391  0.32798  0.78842  1.0000
  H   H3006     1.0  0.71046  0.33905  0.71130  1.0000
  H   H3007     1.0  0.69693  0.32743  0.67908  1.0000
  H   H3008     1.0  0.66650  0.31701  0.78578  1.0000
  H   H3009     1.0  0.68029  0.32820  0.81883  1.0000
  S   S412      1.0  0.74497  0.24992  0.40491  1.0000
  H   H3010     1.0  0.68614  0.28533  0.43339  1.0000
  H   H3011     1.0  0.63981  0.43741  0.52714  1.0000
  H   H3012     1.0  0.71263  0.30340  0.99875  1.0000
  H   H3013     1.0  0.59593  0.43028  0.79606  1.0000
  C   C1701     1.0  0.75784  0.41013  0.22615  1.0000
  C   C1702     1.0  0.76668  0.42176  0.21293  1.0000
  H   H3014     1.0  0.64170  0.47285  0.12852  1.0000
  C   C1703     1.0  0.77058  0.41862  0.27854  1.0000
  C   C1704     1.0  0.76161  0.40706  0.29203  1.0000
  C   C1705     1.0  0.75519  0.40291  0.26601  1.0000
  S   S413      1.0  0.64590  0.27395  0.42161  1.0000
  H   H3015     1.0  0.75966  0.40130  0.32238  1.0000
  H   H3016     1.0  0.74824  0.39397  0.27668  1.0000
  C   C1706     1.0  0.73960  0.37097  0.02464  1.0000
  C   C1707     1.0  0.73435  0.35855  0.02497  1.0000
  C   C1708     1.0  0.72729  0.35624  0.99843  1.0000
  C   C1709     1.0  0.72549  0.36636  0.97123  1.0000
  C   C1710     1.0  0.73111  0.37874  0.97006  1.0000
  C   C1711     1.0  0.73807  0.38107  0.99675  1.0000
  H   H3017     1.0  0.73555  0.35069  0.04632  1.0000
  H   H3018     1.0  0.72302  0.34665  0.99963  1.0000
  H   H3019     1.0  0.72999  0.38654  0.94844  1.0000
  H   H3020     1.0  0.74220  0.39067  0.99585  1.0000
  H   H3021     1.0  0.63490  0.28482  0.06080  1.0000
  H   H3022     1.0  0.65112  0.29311  0.17551  1.0000
  H   H3023     1.0  0.78547  0.46983  0.99480  1.0000
  C   C1712     1.0  0.73595  0.28209  0.99513  1.0000
  C   C1713     1.0  0.59660  0.25249  0.22568  1.0000
  H   H3024     1.0  0.68152  0.37803  0.89303  1.0000
  H   H3025     1.0  0.61843  0.40649  0.92585  1.0000
  H   H3026     1.0  0.62850  0.44012  0.06344  1.0000
  H   H3027     1.0  0.71092  0.26729  0.32169  1.0000
  C   C1714     1.0  0.66097  0.29983  0.97278  1.0000
  C   C1715     1.0  0.66887  0.29166  0.96981  1.0000
  C   C1716     1.0  0.66382  0.27888  0.97341  1.0000
  C   C1717     1.0  0.65097  0.27435  0.97944  1.0000
  C   C1718     1.0  0.64328  0.28272  0.98009  1.0000
  C   C1719     1.0  0.64821  0.29533  0.97780  1.0000
  H   H3028     1.0  0.67875  0.29506  0.96629  1.0000
  H   H3029     1.0  0.67163  0.26047  0.85676  1.0000
  H   H3030     1.0  0.63352  0.27949  0.98247  1.0000
  H   H3031     1.0  0.64207  0.30157  0.98004  1.0000
  C   C1720     1.0  0.71054  0.43874  0.00087  1.0000
  C   C1721     1.0  0.71998  0.44319  0.96473  1.0000
  C   C1722     1.0  0.73224  0.44209  0.96366  1.0000
  C   C1723     1.0  0.73507  0.43610  0.99831  1.0000
  C   C1724     1.0  0.72552  0.43124  0.03415  1.0000
  C   C1725     1.0  0.71337  0.43276  0.03551  1.0000
  H   H3032     1.0  0.71798  0.44801  0.93802  1.0000
  H   H3033     1.0  0.73957  0.44593  0.93584  1.0000
  H   H3034     1.0  0.72758  0.42670  0.06108  1.0000
  H   H3035     1.0  0.70618  0.42945  0.06369  1.0000
  H   H3036     1.0  0.59369  0.32385  0.68939  1.0000
  H   H3037     1.0  0.59427  0.45399  0.92762  1.0000
  H   H3038     1.0  0.75189  0.25170  0.90989  1.0000
  H   H3039     1.0  0.77802  0.44231  0.99206  1.0000
  H   H3040     1.0  0.61626  0.43771  0.43588  1.0000
  S   S414      1.0  0.59314  0.36576  0.93449  1.0000
  C   C1726     1.0  0.72210  0.25414  0.95583  1.0000
  H   H3041     1.0  0.61211  0.47534  0.90614  1.0000
  C   C1727     1.0  0.63342  0.39124  0.88262  1.0000
  C   C1728     1.0  0.64472  0.40052  0.86858  1.0000
  C   C1729     1.0  0.65201  0.40261  0.89433  1.0000
  C   C1730     1.0  0.64810  0.39533  0.93407  1.0000
  C   C1731     1.0  0.63705  0.38567  0.94780  1.0000
  C   C1732     1.0  0.62967  0.38363  0.92208  1.0000
  H   H3042     1.0  0.64778  0.40627  0.83794  1.0000
  H   H3043     1.0  0.66061  0.40995  0.88360  1.0000
  H   H3044     1.0  0.63397  0.38014  0.97869  1.0000
  H   H3045     1.0  0.62095  0.37643  0.93302  1.0000
  H   H3046     1.0  0.73786  0.38745  0.59304  1.0000
  C   C1733     1.0  0.64001  0.46419  0.99546  1.0000
  C   C1734     1.0  0.62554  0.29733  0.08584  1.0000
  H   H3047     1.0  0.75532  0.43500  0.38957  1.0000
  C   C1735     1.0  0.67486  0.30814  0.07583  1.0000
  C   C1736     1.0  0.61496  0.25223  0.25009  1.0000
  Fe  Fe211     1.0  0.74485  0.26609  0.43167  1.0000
  H   H3048     1.0  0.74243  0.26079  0.88749  1.0000
  H   H3049     1.0  0.76936  0.38607  0.23315  1.0000
  H   H3050     1.0  0.71011  0.43909  0.43898  1.0000
  H   H3051     1.0  0.66659  0.29030  0.43282  1.0000
  C   C1737     1.0  0.64062  0.42732  0.72865  1.0000
  H   H3052     1.0  0.70524  0.41167  0.66671  1.0000
  C   C1738     1.0  0.70837  0.41947  0.50748  1.0000
  C   C1739     1.0  0.71384  0.42905  0.52188  1.0000
  C   C1740     1.0  0.72692  0.43249  0.51477  1.0000
  C   C1741     1.0  0.73458  0.42621  0.49406  1.0000
  C   C1742     1.0  0.72904  0.41641  0.48064  1.0000
  C   C1743     1.0  0.71604  0.41323  0.48664  1.0000
  H   H3053     1.0  0.70802  0.43392  0.53801  1.0000
  H   H3054     1.0  0.73113  0.44006  0.52540  1.0000
  H   H3055     1.0  0.73477  0.41128  0.46572  1.0000
  H   H3056     1.0  0.71190  0.40584  0.47525  1.0000
  C   C1744     1.0  0.67344  0.43012  0.73389  1.0000
  C   C1745     1.0  0.67651  0.44331  0.71986  1.0000
  C   C1746     1.0  0.67871  0.45071  0.74586  1.0000
  C   C1747     1.0  0.67773  0.44496  0.78599  1.0000
  C   C1748     1.0  0.67425  0.43182  0.80017  1.0000
  C   C1749     1.0  0.67217  0.42448  0.77426  1.0000
  H   H3057     1.0  0.67755  0.44780  0.68883  1.0000
  H   H3058     1.0  0.68141  0.46090  0.73464  1.0000
  H   H3059     1.0  0.67354  0.42733  0.83087  1.0000
  H   H3060     1.0  0.66976  0.41436  0.78564  1.0000
  C   C1750     1.0  0.64233  0.45680  0.52803  1.0000
  C   C1751     1.0  0.70025  0.25327  0.98687  1.0000
  H   H3061     1.0  0.71137  0.27222  0.98072  1.0000
  C   C1752     1.0  0.63780  0.46766  0.51954  1.0000
  C   C1753     1.0  0.62805  0.48944  0.90611  1.0000
  H   H3062     1.0  0.64244  0.47625  0.52454  1.0000
  H   H3063     1.0  0.69218  0.26059  0.41907  1.0000
  C   C1754     1.0  0.60304  0.31665  0.79287  1.0000
  H   H3064     1.0  0.61606  0.46498  0.28394  1.0000
  S   S415      1.0  0.59572  0.33117  0.97735  1.0000
  H   H3065     1.0  0.72610  0.26229  0.96578  1.0000
  S   S416      1.0  0.59461  0.34552  0.48609  1.0000
  H   H3066     1.0  0.59412  0.30753  0.70633  1.0000
  H   H3067     1.0  0.61994  0.29781  0.11491  1.0000
  H   H3068     1.0  0.64302  0.48386  0.92572  1.0000
  H   H3069     1.0  0.61246  0.42503  0.82961  1.0000
  H   H3070     1.0  0.71498  0.31746  0.76330  1.0000
  C   C1755     1.0  0.69885  0.39348  0.60272  1.0000
  C   C1756     1.0  0.62755  0.36915  0.54619  1.0000
  C   C1757     1.0  0.61837  0.36766  0.58139  1.0000
  C   C1758     1.0  0.62023  0.37560  0.60566  1.0000
  C   C1759     1.0  0.63116  0.38529  0.59434  1.0000
  C   C1760     1.0  0.64055  0.38662  0.55965  1.0000
  C   C1761     1.0  0.63876  0.37848  0.53565  1.0000
  H   H3071     1.0  0.60974  0.36047  0.58975  1.0000
  H   H3072     1.0  0.61306  0.37437  0.63285  1.0000
  H   H3073     1.0  0.64906  0.39405  0.55090  1.0000
  H   H3074     1.0  0.64589  0.37966  0.50839  1.0000
  H   H3075     1.0  0.60013  0.41604  0.41896  1.0000
  H   H3076     1.0  0.62114  0.40472  0.47953  1.0000
  H   H3077     1.0  0.71442  0.31515  0.81532  1.0000
  H   H3078     1.0  0.78729  0.37960  0.12239  1.0000
  C   C1762     1.0  0.64985  0.48039  0.02165  1.0000
  H   H3079     1.0  0.73867  0.25608  0.23919  1.0000
  H   H3080     1.0  0.59942  0.29918  0.90401  1.0000
  C   C1763     1.0  0.63491  0.28647  0.22541  1.0000
  C   C1764     1.0  0.68726  0.28809  0.74506  1.0000
  C   C1765     1.0  0.62931  0.46888  0.00054  1.0000
  H   H3081     1.0  0.75760  0.28532  0.50129  1.0000
  H   H3082     1.0  0.62572  0.27979  0.16808  1.0000
  H   H3083     1.0  0.60430  0.45291  0.14429  1.0000
  H   H3084     1.0  0.75695  0.43934  0.31502  1.0000
  C   C1766     1.0  0.70265  0.26544  0.00063  1.0000
  C   C1767     1.0  0.77157  0.32351  0.90073  1.0000
  H   H3085     1.0  0.70036  0.27024  0.44293  1.0000
  H   H3086     1.0  0.72014  0.25845  0.92744  1.0000
  S   S417      1.0  0.60599  0.48389  0.09726  1.0000
  H   H3087     1.0  0.66632  0.27545  0.56785  1.0000
  H   H3088     1.0  0.59320  0.28615  0.03050  1.0000
  H   H3089     1.0  0.69366  0.27413  0.85159  1.0000
  C   C1768     1.0  0.76881  0.45235  0.35468  1.0000
  H   H3090     1.0  0.65431  0.45746  0.79961  1.0000
  H   H3091     1.0  0.77583  0.31008  0.86910  1.0000
  H   H3092     1.0  0.59643  0.39606  0.57590  1.0000
  C   C1769     1.0  0.75608  0.30225  0.43514  1.0000
  H   H3093     1.0  0.66981  0.25057  0.44829  1.0000
  C   C1770     1.0  0.59650  0.39352  0.66549  1.0000
  C   C1771     1.0  0.60268  0.44254  0.96663  1.0000
  C   C1772     1.0  0.61637  0.43871  0.40427  1.0000
  C   C1773     1.0  0.67390  0.26552  0.87847  1.0000
  H   H3094     1.0  0.66321  0.47068  0.10953  1.0000
  C   C1774     1.0  0.64114  0.47400  0.19019  1.0000
  N   N95       1.0  0.64042  0.34167  0.97523  1.0000
  C   C1775     1.0  0.64134  0.33082  0.95721  1.0000
  C   C1776     1.0  0.64980  0.34275  0.99906  1.0000
  C   C1777     1.0  0.62750  0.33833  0.00400  1.0000
  C   C1778     1.0  0.64219  0.35402  0.94436  1.0000
  C   C1779     1.0  0.65123  0.35608  0.90252  1.0000
  C   C1780     1.0  0.63083  0.32704  0.93755  1.0000
  C   C1781     1.0  0.62491  0.34755  0.02952  1.0000
  C   C1782     1.0  0.66379  0.34700  0.97518  1.0000
  C   C1783     1.0  0.67226  0.34583  0.00287  1.0000
  C   C1784     1.0  0.65304  0.36932  0.87589  1.0000
  C   C1785     1.0  0.63449  0.31945  0.90833  1.0000
  C   C1786     1.0  0.61089  0.34551  0.04803  1.0000
  H   H3095     1.0  0.64102  0.32223  0.98057  1.0000
  H   H3096     1.0  0.65055  0.33268  0.93514  1.0000
  H   H3097     1.0  0.64859  0.34984  0.01585  1.0000
  H   H3098     1.0  0.64822  0.33356  0.02180  1.0000
  H   H3099     1.0  0.62546  0.32873  0.02498  1.0000
  H   H3100     1.0  0.62029  0.33783  0.98751  1.0000
  H   H3101     1.0  0.63309  0.35519  0.93905  1.0000
  H   H3102     1.0  0.64550  0.36211  0.95576  1.0000
  H   H3103     1.0  0.64744  0.34936  0.88719  1.0000
  H   H3104     1.0  0.66055  0.35478  0.90398  1.0000
  H   H3105     1.0  0.62230  0.32105  0.96111  1.0000
  H   H3106     1.0  0.62830  0.33543  0.92143  1.0000
  H   H3107     1.0  0.62867  0.35753  0.01142  1.0000
  H   H3108     1.0  0.62928  0.34593  0.05442  1.0000
  H   H3109     1.0  0.66612  0.34136  0.95422  1.0000
  H   H3110     1.0  0.66616  0.35707  0.95809  1.0000
  H   H3111     1.0  0.67068  0.33580  0.01977  1.0000
  H   H3112     1.0  0.68221  0.34930  0.98490  1.0000
  H   H3113     1.0  0.67050  0.35157  0.02408  1.0000
  H   H3114     1.0  0.66011  0.37069  0.84737  1.0000
  H   H3115     1.0  0.64410  0.37053  0.86965  1.0000
  H   H3116     1.0  0.65643  0.37661  0.89003  1.0000
  H   H3117     1.0  0.63581  0.31032  0.92426  1.0000
  H   H3118     1.0  0.62690  0.31739  0.89406  1.0000
  H   H3119     1.0  0.64324  0.32481  0.88466  1.0000
  H   H3120     1.0  0.60618  0.34799  0.02435  1.0000
  H   H3121     1.0  0.60658  0.33551  0.06569  1.0000
  H   H3122     1.0  0.60935  0.35167  0.06802  1.0000
  N   N96       1.0  0.62900  0.31918  0.47424  1.0000
  C   C1787     1.0  0.63360  0.31325  0.44160  1.0000
  C   C1788     1.0  0.63943  0.32344  0.49213  1.0000
  C   C1789     1.0  0.61879  0.30910  0.50658  1.0000
  C   C1790     1.0  0.62351  0.33002  0.45983  1.0000
  C   C1791     1.0  0.63208  0.34075  0.42328  1.0000
  C   C1792     1.0  0.62380  0.30802  0.42153  1.0000
  C   C1793     1.0  0.61284  0.31308  0.54379  1.0000
  C   C1794     1.0  0.65306  0.32730  0.46458  1.0000
  C   C1795     1.0  0.66240  0.33309  0.48434  1.0000
  C   C1796     1.0  0.62520  0.35076  0.41030  1.0000
  H   H3123     1.0  0.72813  0.26422  0.51268  1.0000
  C   C1797     1.0  0.60456  0.30154  0.57727  1.0000
  H   H3124     1.0  0.63754  0.30528  0.45361  1.0000
  H   H3125     1.0  0.64145  0.32001  0.41728  1.0000
  H   H3126     1.0  0.63786  0.33143  0.50468  1.0000
  H   H3127     1.0  0.63944  0.31578  0.51804  1.0000
  H   H3128     1.0  0.62237  0.30068  0.51664  1.0000
  H   H3129     1.0  0.61085  0.30571  0.49510  1.0000
  H   H3130     1.0  0.61457  0.32655  0.45319  1.0000
  H   H3131     1.0  0.62086  0.33460  0.48394  1.0000
  H   H3132     1.0  0.63525  0.33715  0.39735  1.0000
  H   H3133     1.0  0.64030  0.34554  0.43096  1.0000
  H   H3134     1.0  0.61689  0.29944  0.44242  1.0000
  H   H3135     1.0  0.61882  0.31516  0.41122  1.0000
  H   H3136     1.0  0.60683  0.31949  0.53606  1.0000
  H   H3137     1.0  0.61997  0.31802  0.55549  1.0000
  H   H3138     1.0  0.65580  0.31883  0.45795  1.0000
  H   H3139     1.0  0.65413  0.33425  0.43594  1.0000
  H   H3140     1.0  0.66074  0.34219  0.48854  1.0000
  H   H3141     1.0  0.66166  0.32655  0.51356  1.0000
  H   H3142     1.0  0.67207  0.33494  0.46497  1.0000
  H   H3143     1.0  0.63149  0.35828  0.38375  1.0000
  H   H3144     1.0  0.61676  0.34653  0.40242  1.0000
  H   H3145     1.0  0.62238  0.35521  0.43454  1.0000
  C   C1798     1.0  0.75536  0.44424  0.37015  1.0000
  H   H3146     1.0  0.59809  0.29552  0.56595  1.0000
  H   H3147     1.0  0.61041  0.29583  0.59045  1.0000
  H   H3148     1.0  0.59876  0.30463  0.60081  1.0000
  C   C1799     1.0  0.64432  0.27321  0.11852  1.0000
  C   C1800     1.0  0.64817  0.26930  0.07961  1.0000
  C   C1801     1.0  0.62388  0.41477  0.93201  1.0000
  S   S418      1.0  0.67459  0.29537  0.62563  1.0000
  H   H3149     1.0  0.77772  0.36896  0.03408  1.0000
  H   H3150     1.0  0.60677  0.43429  0.96709  1.0000
  H   H3151     1.0  0.65190  0.27291  0.13330  1.0000
  H   H3152     1.0  0.73577  0.25584  0.17078  1.0000
  C   C1802     1.0  0.62684  0.47599  0.31156  1.0000
  H   H3153     1.0  0.63970  0.26569  0.07077  1.0000
  H   H3154     1.0  0.65430  0.27744  0.05486  1.0000
  H   H3155     1.0  0.64467  0.27612  0.19142  1.0000
  H   H3156     1.0  0.70717  0.29927  0.50901  1.0000
  H   H3157     1.0  0.61309  0.30537  0.05549  1.0000
  C   C1803     1.0  0.59394  0.41960  0.04431  1.0000
  C   C1804     1.0  0.65501  0.25878  0.08499  1.0000
  H   H3158     1.0  0.77465  0.45569  0.96174  1.0000
  N   N97       1.0  0.64255  0.37956  0.73582  1.0000
  C   C1805     1.0  0.65583  0.38513  0.73487  1.0000
  C   C1806     1.0  0.64251  0.37717  0.69606  1.0000
  C   C1807     1.0  0.63537  0.38950  0.73999  1.0000
  C   C1808     1.0  0.63626  0.36775  0.76996  1.0000
  C   C1809     1.0  0.64469  0.35898  0.78234  1.0000
  C   C1810     1.0  0.65741  0.38968  0.77170  1.0000
  C   C1811     1.0  0.62129  0.38581  0.74171  1.0000
  C   C1812     1.0  0.64955  0.36752  0.68353  1.0000
  C   C1813     1.0  0.65049  0.36798  0.63996  1.0000
  C   C1814     1.0  0.63701  0.34672  0.81374  1.0000
  C   C1815     1.0  0.67068  0.39052  0.77579  1.0000
  C   C1816     1.0  0.61502  0.39637  0.74872  1.0000
  H   H3159     1.0  0.66028  0.39342  0.70812  1.0000
  H   H3160     1.0  0.66169  0.37838  0.73126  1.0000
  H   H3161     1.0  0.63282  0.37365  0.69483  1.0000
  H   H3162     1.0  0.64651  0.38626  0.67215  1.0000
  H   H3163     1.0  0.63992  0.39826  0.71492  1.0000
  H   H3164     1.0  0.63562  0.39226  0.76773  1.0000
  H   H3165     1.0  0.63196  0.37028  0.79739  1.0000
  H   H3166     1.0  0.62828  0.36203  0.76317  1.0000
  H   H3167     1.0  0.65155  0.36362  0.79553  1.0000
  H   H3168     1.0  0.65009  0.35654  0.75675  1.0000
  H   H3169     1.0  0.65557  0.39918  0.76862  1.0000
  H   H3170     1.0  0.65067  0.38340  0.79971  1.0000
  H   H3171     1.0  0.61624  0.37713  0.76630  1.0000
  H   H3172     1.0  0.61997  0.38422  0.71337  1.0000
  H   H3173     1.0  0.65920  0.36935  0.68626  1.0000
  H   H3174     1.0  0.64426  0.35784  0.70189  1.0000
  H   H3175     1.0  0.65580  0.36125  0.63098  1.0000
  H   H3176     1.0  0.64102  0.36541  0.63582  1.0000
  H   H3177     1.0  0.65546  0.37759  0.62001  1.0000
  H   H3178     1.0  0.62947  0.34182  0.80332  1.0000
  H   H3179     1.0  0.64320  0.34038  0.81989  1.0000
  H   H3180     1.0  0.63282  0.34872  0.84203  1.0000
  H   H3181     1.0  0.67759  0.39765  0.74951  1.0000
  H   H3182     1.0  0.67142  0.39339  0.80304  1.0000
  H   H3183     1.0  0.67303  0.38125  0.77836  1.0000
  H   H3184     1.0  0.62141  0.46470  0.99171  1.0000
  H   H3185     1.0  0.61919  0.40501  0.72321  1.0000
  H   H3186     1.0  0.60490  0.39332  0.75159  1.0000
  C   C1817     1.0  0.68305  0.37988  0.55680  1.0000
  C   C1818     1.0  0.68151  0.38013  0.51537  1.0000
  H   H3187     1.0  0.67655  0.37111  0.57794  1.0000
  H   H3188     1.0  0.68007  0.38805  0.56478  1.0000
  H   H3189     1.0  0.68405  0.37188  0.50637  1.0000
  H   H3190     1.0  0.67163  0.37980  0.51566  1.0000
  H   H3191     1.0  0.68753  0.38898  0.49304  1.0000
  N   N98       1.0  0.63231  0.32516  0.65333  1.0000
  C   C1819     1.0  0.61867  0.32314  0.67476  1.0000
  C   C1820     1.0  0.64060  0.32950  0.67810  1.0000
  C   C1821     1.0  0.63526  0.33555  0.61493  1.0000
  C   C1822     1.0  0.63506  0.31347  0.64297  1.0000
  C   C1823     1.0  0.63155  0.30142  0.67837  1.0000
  C   C1824     1.0  0.60908  0.31869  0.65294  1.0000
  C   C1825     1.0  0.64909  0.33960  0.58918  1.0000
  C   C1826     1.0  0.63505  0.32521  0.72418  1.0000
  C   C1827     1.0  0.64504  0.32819  0.74532  1.0000
  C   C1828     1.0  0.63427  0.29011  0.66413  1.0000
  H   H3192     1.0  0.59488  0.34746  0.65092  1.0000
  C   C1829     1.0  0.65167  0.35171  0.55575  1.0000
  H   H3193     1.0  0.61702  0.33204  0.68118  1.0000
  H   H3194     1.0  0.61597  0.31604  0.70420  1.0000
  H   H3195     1.0  0.64961  0.32669  0.67093  1.0000
  H   H3196     1.0  0.64332  0.33999  0.67045  1.0000
  H   H3197     1.0  0.63252  0.34410  0.62140  1.0000
  H   H3198     1.0  0.62971  0.33272  0.59501  1.0000
  H   H3199     1.0  0.63056  0.31133  0.61984  1.0000
  H   H3200     1.0  0.64522  0.31508  0.62871  1.0000
  H   H3201     1.0  0.62147  0.29890  0.69456  1.0000
  H   H3202     1.0  0.63722  0.30280  0.69924  1.0000
  H   H3203     1.0  0.60983  0.32617  0.62573  1.0000
  H   H3204     1.0  0.61051  0.31004  0.64464  1.0000
  H   H3205     1.0  0.65118  0.33212  0.57499  1.0000
  H   H3206     1.0  0.65571  0.34130  0.60703  1.0000
  H   H3207     1.0  0.62780  0.33030  0.73291  1.0000
  H   H3208     1.0  0.63075  0.31494  0.73566  1.0000
  H   H3209     1.0  0.65012  0.33831  0.73405  1.0000
  H   H3210     1.0  0.64061  0.32580  0.77789  1.0000
  H   H3211     1.0  0.65183  0.32239  0.74059  1.0000
  H   H3212     1.0  0.64446  0.29178  0.65017  1.0000
  H   H3213     1.0  0.63133  0.28153  0.68991  1.0000
  H   H3214     1.0  0.62911  0.28836  0.64216  1.0000
  H   H3215     1.0  0.77233  0.45375  0.38030  1.0000
  H   H3216     1.0  0.60746  0.32290  0.80860  1.0000
  C   C1830     1.0  0.78459  0.38050  0.58044  1.0000
  H   H3217     1.0  0.64983  0.35961  0.56811  1.0000
  H   H3218     1.0  0.66164  0.35433  0.53809  1.0000
  H   H3219     1.0  0.64574  0.35035  0.53554  1.0000
  N   N99       1.0  0.69754  0.39697  0.98345  1.0000
  C   C1831     1.0  0.69374  0.40569  0.00787  1.0000
  C   C1832     1.0  0.70988  0.40363  0.95254  1.0000
  C   C1833     1.0  0.68790  0.39454  0.96115  1.0000
  C   C1834     1.0  0.69820  0.38444  0.00864  1.0000
  C   C1835     1.0  0.70184  0.38438  0.04801  1.0000
  C   C1836     1.0  0.68015  0.40119  0.03571  1.0000
  C   C1837     1.0  0.69057  0.38665  0.93117  1.0000
  C   C1838     1.0  0.72101  0.40852  0.96791  1.0000
  C   C1839     1.0  0.73263  0.41557  0.93317  1.0000
  C   C1840     1.0  0.70369  0.37152  0.06741  1.0000
  C   C1841     1.0  0.67843  0.40755  0.06934  1.0000
  C   C1842     1.0  0.67970  0.38415  0.91298  1.0000
  H   H3220     1.0  0.69464  0.41522  0.98788  1.0000
  H   H3221     1.0  0.70018  0.40749  0.02625  1.0000
  H   H3222     1.0  0.71309  0.39724  0.93503  1.0000
  H   H3223     1.0  0.70871  0.41187  0.93080  1.0000
  H   H3224     1.0  0.68658  0.40363  0.94451  1.0000
  H   H3225     1.0  0.67860  0.38939  0.98241  1.0000
  H   H3226     1.0  0.68901  0.37740  0.01768  1.0000
  H   H3227     1.0  0.70478  0.38027  0.99061  1.0000
  H   H3228     1.0  0.69432  0.38628  0.06993  1.0000
  H   H3229     1.0  0.71050  0.39159  0.04343  1.0000
  H   H3230     1.0  0.67357  0.40360  0.01815  1.0000
  H   H3231     1.0  0.67740  0.39082  0.04925  1.0000
  H   H3232     1.0  0.69198  0.37742  0.94609  1.0000
  H   H3233     1.0  0.69899  0.39176  0.90594  1.0000
  H   H3234     1.0  0.71889  0.41512  0.98564  1.0000
  H   H3235     1.0  0.72352  0.40059  0.98623  1.0000
  H   H3236     1.0  0.74057  0.41867  0.94499  1.0000
  H   H3237     1.0  0.73531  0.40937  0.91429  1.0000
  H   H3238     1.0  0.73090  0.42406  0.91451  1.0000
  H   H3239     1.0  0.70624  0.37172  0.09547  1.0000
  H   H3240     1.0  0.69499  0.36399  0.07451  1.0000
  H   H3241     1.0  0.71138  0.36921  0.04729  1.0000
  H   H3242     1.0  0.68467  0.40529  0.08830  1.0000
  H   H3243     1.0  0.68050  0.41794  0.05693  1.0000
  H   H3244     1.0  0.66859  0.40417  0.08823  1.0000
  H   H3245     1.0  0.67864  0.39318  0.89519  1.0000
  N   N100      1.0  0.60041  0.41171  0.60095  1.0000
  C   C1843     1.0  0.77275  0.38499  0.57848  1.0000
  C   C1844     1.0  0.60468  0.40310  0.57667  1.0000
  C   C1845     1.0  0.61179  0.41954  0.60704  1.0000
  C   C1846     1.0  0.60947  0.42919  0.63086  1.0000
  H   H3246     1.0  0.60592  0.34600  0.70356  1.0000
  C   C1847     1.0  0.61276  0.40961  0.53294  1.0000
  C   C1848     1.0  0.62131  0.43499  0.64048  1.0000
  H   H3247     1.0  0.78227  0.24693  0.12558  1.0000
  C   C1849     1.0  0.61517  0.39986  0.51041  1.0000
  C   C1850     1.0  0.68108  0.26867  0.50496  1.0000
  H   H3248     1.0  0.61045  0.39754  0.59088  1.0000
  H   H3249     1.0  0.61719  0.41342  0.62091  1.0000
  H   H3250     1.0  0.61842  0.42518  0.57790  1.0000
  S   S419      1.0  0.61110  0.24873  0.97711  1.0000
  H   H3251     1.0  0.60674  0.43706  0.61266  1.0000
  S   S420      1.0  0.59126  0.36591  0.53848  1.0000
  H   H3252     1.0  0.60216  0.42480  0.65961  1.0000
  H   H3253     1.0  0.62202  0.41517  0.53233  1.0000
  H   H3254     1.0  0.60815  0.41595  0.51611  1.0000
  H   H3255     1.0  0.62909  0.43950  0.61272  1.0000
  H   H3256     1.0  0.61958  0.44235  0.65570  1.0000
  H   H3257     1.0  0.62406  0.42761  0.66062  1.0000
  C   C1851     1.0  0.72819  0.28174  0.03186  1.0000
  H   H3258     1.0  0.74178  0.26773  0.58302  1.0000
  C   C1852     1.0  0.63104  0.28557  0.09134  1.0000
  H   H3259     1.0  0.62010  0.39343  0.52533  1.0000
  H   H3260     1.0  0.60625  0.39418  0.50890  1.0000
  S   S421      1.0  0.72904  0.27560  0.43076  1.0000
  H   H3261     1.0  0.62121  0.43190  0.39325  1.0000
  C   C1853     1.0  0.67117  0.28869  0.82634  1.0000
  C   C1854     1.0  0.78038  0.27432  0.88449  1.0000
  C   C1855     1.0  0.74444  0.25676  0.91600  1.0000
  C   C1856     1.0  0.78563  0.45172  0.89110  1.0000
  H   H3262     1.0  0.78184  0.37004  0.58888  1.0000
  H   H3263     1.0  0.62273  0.30056  0.37141  1.0000
  H   H3264     1.0  0.68019  0.27640  0.40250  1.0000
  H   H3265     1.0  0.60167  0.32257  0.76557  1.0000
  H   H3266     1.0  0.74997  0.44136  0.25897  1.0000
  H   H3267     1.0  0.66396  0.27989  0.83074  1.0000
  H   H3268     1.0  0.70774  0.28965  0.38916  1.0000
  C   C1857     1.0  0.65049  0.46513  0.84950  1.0000
  C   C1858     1.0  0.70322  0.39651  0.63832  1.0000
  C   C1859     1.0  0.60511  0.44015  0.04803  1.0000
  H   H3269     1.0  0.66601  0.26454  0.45697  1.0000
  H   H3270     1.0  0.68933  0.26682  0.31961  1.0000
  H   H3271     1.0  0.62327  0.48898  0.93733  1.0000
  C   C1860     1.0  0.60819  0.43489  0.08773  1.0000
  H   H3272     1.0  0.75212  0.32135  0.89987  1.0000
  H   H3273     1.0  0.72359  0.39872  0.56623  1.0000
  C   C1861     1.0  0.59568  0.31555  0.67962  1.0000
  C   C1862     1.0  0.62722  0.46745  0.50491  1.0000
  H   H3274     1.0  0.76945  0.32480  0.93098  1.0000
  H   H3275     1.0  0.77046  0.27614  0.94011  1.0000
  H   H3276     1.0  0.61330  0.44032  0.02379  1.0000
  H   H3277     1.0  0.60382  0.41929  0.03228  1.0000
  H   H3278     1.0  0.75664  0.26619  0.55526  1.0000
  H   H3279     1.0  0.60704  0.44873  0.90211  1.0000
  S   S422      1.0  0.58998  0.48878  0.19615  1.0000
  H   H3280     1.0  0.64786  0.47339  0.83307  1.0000
  H   H3281     1.0  0.60781  0.42467  0.09335  1.0000
  H   H3282     1.0  0.78489  0.47065  0.89863  1.0000
  C   C1863     1.0  0.71832  0.27456  0.54726  1.0000
  H   H3283     1.0  0.60082  0.42855  0.55615  1.0000
  S   S423      1.0  0.70584  0.28760  0.59119  1.0000
  H   H3284     1.0  0.72607  0.31032  0.78305  1.0000
  C   C1864     1.0  0.69678  0.38034  0.55739  1.0000
  H   H3285     1.0  0.70423  0.40122  0.57552  1.0000
  H   H3286     1.0  0.72277  0.38947  0.53151  1.0000
  H   H3287     1.0  0.67080  0.37938  0.93667  1.0000
  C   C1865     1.0  0.62999  0.30417  0.38518  1.0000
  H   H3288     1.0  0.73665  0.37720  0.56093  1.0000
  H   H3289     1.0  0.65072  0.29953  0.89188  1.0000
  C   C1866     1.0  0.73523  0.28996  0.95977  1.0000
  H   H3290     1.0  0.64019  0.28476  0.24792  1.0000
  C   C1867     1.0  0.63133  0.42687  0.85813  1.0000
  C   C1868     1.0  0.63631  0.44577  0.52123  1.0000
  H   H3291     1.0  0.68907  0.39440  0.60753  1.0000
  H   H3292     1.0  0.70270  0.38875  0.53309  1.0000
  C   C1869     1.0  0.60450  0.45600  0.17147  1.0000
  C   C1870     1.0  0.71262  0.37880  0.59361  1.0000
  C   C1871     1.0  0.76626  0.30524  0.99325  1.0000
  H   H3293     1.0  0.70776  0.41699  0.61353  1.0000
  C   C1872     1.0  0.65318  0.29454  0.86892  1.0000
  C   C1873     1.0  0.70198  0.40963  0.64129  1.0000
  H   H3294     1.0  0.64730  0.28468  0.88043  1.0000
  C   C1874     1.0  0.72352  0.38922  0.56199  1.0000
  H   H3295     1.0  0.69208  0.41016  0.64641  1.0000
  H   H3296     1.0  0.76705  0.28741  0.55686  1.0000
  H   H3297     1.0  0.74508  0.27380  0.26465  1.0000
  H   H3298     1.0  0.66824  0.28876  0.07860  1.0000
  C   C1875     1.0  0.73770  0.27223  0.29282  1.0000
  N   N101      1.0  0.69969  0.38080  0.59618  1.0000
  H   H3299     1.0  0.66896  0.25453  0.56108  1.0000
  S   S424      1.0  0.59717  0.47334  0.39781  1.0000
  H   H3300     1.0  0.67246  0.31525  0.09137  1.0000
  H   H3301     1.0  0.68704  0.35604  0.59898  1.0000
  H   H3302     1.0  0.58899  0.31286  0.66275  1.0000
  H   H3303     1.0  0.71328  0.36980  0.58601  1.0000
  H   H3304     1.0  0.69748  0.38961  0.66695  1.0000
  C   C1876     1.0  0.73618  0.38673  0.56418  1.0000
  C   C1877     1.0  0.66702  0.29464  0.86074  1.0000
  C   C1878     1.0  0.66508  0.29552  0.09448  1.0000
  H   H3305     1.0  0.61017  0.45061  0.96558  1.0000
  H   H3306     1.0  0.68110  0.37271  0.63644  1.0000
  H   H3307     1.0  0.63317  0.29602  0.22223  1.0000
  C   C1879     1.0  0.65195  0.29684  0.09068  1.0000
  H   H3308     1.0  0.65285  0.29904  0.05808  1.0000
  S   S425      1.0  0.75270  0.25644  0.01386  1.0000
  H   H3309     1.0  0.64003  0.41771  0.78848  1.0000
  H   H3310     1.0  0.67243  0.30460  0.85284  1.0000
  S   S426      1.0  0.72573  0.30675  0.91574  1.0000
  C   C1880     1.0  0.69047  0.37063  0.63086  1.0000
  H   H3311     1.0  0.67862  0.27132  0.79368  1.0000
  H   H3312     1.0  0.66926  0.35039  0.66080  1.0000
  H   H3313     1.0  0.66345  0.48473  0.90020  1.0000
  C   C1881     1.0  0.60037  0.44048  0.79000  1.0000
  C   C1882     1.0  0.73275  0.24748  0.94589  1.0000
  H   H3314     1.0  0.76823  0.29531  0.05040  1.0000
  C   C1883     1.0  0.78351  0.39840  0.17954  1.0000
  N   N102      1.0  0.68155  0.25995  0.47834  1.0000
  Fe  Fe212     1.0  0.62344  0.25284  0.01578  1.0000
  H   H3315     1.0  0.65110  0.29941  0.84144  1.0000
  H   H3316     1.0  0.71382  0.28932  0.06149  1.0000
  C   C1884     1.0  0.71984  0.28953  0.03312  1.0000
  C   C1885     1.0  0.78157  0.45255  0.97664  1.0000
  H   H3317     1.0  0.60867  0.28840  0.07324  1.0000
  C   C1886     1.0  0.60305  0.43646  0.40010  1.0000
  H   H3318     1.0  0.67963  0.26086  0.93308  1.0000
  H   H3319     1.0  0.64126  0.42687  0.85640  1.0000
  H   H3320     1.0  0.69765  0.35378  0.62878  1.0000
  H   H3321     1.0  0.76801  0.38251  0.18765  1.0000
  H   H3322     1.0  0.60381  0.43755  0.36810  1.0000
  C   C1887     1.0  0.68900  0.35694  0.62727  1.0000
  H   H3323     1.0  0.59315  0.30790  0.03545  1.0000
  Fe  Fe213     1.0  0.59405  0.35424  0.83903  1.0000
  H   H3324     1.0  0.61664  0.46048  0.22773  1.0000
  C   C1888     1.0  0.77220  0.30978  0.90099  1.0000
  H   H3325     1.0  0.70344  0.26338  0.03159  1.0000
  C   C1889     1.0  0.62112  0.45636  0.49860  1.0000
  H   H3326     1.0  0.69324  0.37054  0.65877  1.0000
  H   H3327     1.0  0.71456  0.37760  0.62317  1.0000
  H   H3328     1.0  0.74373  0.39386  0.53964  1.0000
  H   H3329     1.0  0.62501  0.46795  0.33836  1.0000
  C   C1890     1.0  0.59273  0.48774  0.26970  1.0000
  C   C1891     1.0  0.62568  0.47109  0.27573  1.0000
  H   H3330     1.0  0.62167  0.29632  0.02933  1.0000
  H   H3331     1.0  0.71790  0.25178  0.03230  1.0000
  H   H3332     1.0  0.77537  0.30672  0.51689  1.0000
  C   C1892     1.0  0.76073  0.29770  0.03708  1.0000
  C   C1893     1.0  0.63879  0.43708  0.78618  1.0000
  C   C1894     1.0  0.60270  0.25353  0.25549  1.0000
  C   C1895     1.0  0.67822  0.34782  0.66130  1.0000
  H   H3333     1.0  0.63335  0.41349  0.93194  1.0000
  H   H3334     1.0  0.71317  0.39641  0.63486  1.0000
  H   H3335     1.0  0.74756  0.28952  0.30127  1.0000
  C   C1896     1.0  0.59794  0.49182  0.29783  1.0000
  H   H3336     1.0  0.61602  0.39858  0.77670  1.0000
  H   H3337     1.0  0.67733  0.33817  0.65773  1.0000
  H   H3338     1.0  0.59491  0.31092  0.40513  1.0000
  C   C1897     1.0  0.65829  0.46884  0.14160  1.0000
  C   C1898     1.0  0.62886  0.47927  0.01578  1.0000
  H   H3339     1.0  0.76327  0.32643  0.85096  1.0000
  H   H3340     1.0  0.66857  0.24824  0.92684  1.0000
  H   H3341     1.0  0.68504  0.48703  0.90392  1.0000
  C   C1899     1.0  0.69237  0.25787  0.32478  1.0000
  H   H3342     1.0  0.76864  0.27305  0.22912  1.0000
  N   N103      1.0  0.68398  0.28616  0.82062  1.0000
  H   H3343     1.0  0.76552  0.38083  0.60765  1.0000
  H   H3344     1.0  0.74236  0.27616  0.99380  1.0000
  H   H3345     1.0  0.77757  0.40501  0.17331  1.0000
  H   H3346     1.0  0.65035  0.30554  0.09883  1.0000
  H   H3347     1.0  0.63250  0.46526  0.27104  1.0000
  C   C1900     1.0  0.72372  0.27196  0.51170  1.0000
  H   H3348     1.0  0.69668  0.43196  0.42568  1.0000
  H   H3349     1.0  0.67818  0.29025  0.74394  1.0000
  C   C1901     1.0  0.77456  0.28233  0.90911  1.0000
  Fe  Fe214     1.0  0.60084  0.47261  0.45723  1.0000
  H   H3350     1.0  0.75448  0.31770  0.38873  1.0000
  H   H3351     1.0  0.62547  0.42039  0.78208  1.0000
  H   H3352     1.0  0.75802  0.31025  0.55795  1.0000
  H   H3353     1.0  0.72234  0.38864  0.38488  1.0000
  H   H3354     1.0  0.77717  0.29157  0.98464  1.0000
  H   H3355     1.0  0.65060  0.43258  0.71800  1.0000
  C   C1902     1.0  0.59804  0.30110  0.93267  1.0000
  H   H3356     1.0  0.78521  0.29965  0.12712  1.0000
  H   H3357     1.0  0.73020  0.27651  0.28523  1.0000
  C   C1903     1.0  0.59609  0.31589  0.97248  1.0000
  C   C1904     1.0  0.61439  0.44258  0.78561  1.0000
  H   H3358     1.0  0.63888  0.46372  0.20567  1.0000
  H   H3359     1.0  0.62830  0.45065  0.85983  1.0000
  H   H3360     1.0  0.74291  0.42982  0.21471  1.0000
  C   C1905     1.0  0.61763  0.46376  0.16657  1.0000
  C   C1906     1.0  0.72839  0.43785  0.37596  1.0000
  H   H3361     1.0  0.67555  0.31175  0.04372  1.0000
  H   H3362     1.0  0.68000  0.34777  0.69057  1.0000
  H   H3363     1.0  0.69218  0.30264  0.83621  1.0000
  H   H3364     1.0  0.59576  0.44399  0.81469  1.0000
  C   C1907     1.0  0.61675  0.29679  0.05928  1.0000
  H   H3365     1.0  0.68470  0.25237  0.89756  1.0000
  C   C1908     1.0  0.70743  0.29792  0.79995  1.0000
  H   H3366     1.0  0.66536  0.26814  0.89275  1.0000
  H   H3367     1.0  0.62210  0.45203  0.08175  1.0000
  H   H3368     1.0  0.78789  0.38372  0.60419  1.0000
  H   H3369     1.0  0.76928  0.46176  0.33526  1.0000
  C   C1909     1.0  0.71621  0.31101  0.78983  1.0000
  H   H3370     1.0  0.65727  0.25599  0.05690  1.0000
  C   C1910     1.0  0.72910  0.39656  0.38832  1.0000
  H   H3371     1.0  0.73094  0.40833  0.33018  1.0000
  C   C1911     1.0  0.68494  0.27745  0.85808  1.0000
  H   H3372     1.0  0.66974  0.27241  0.97292  1.0000
  C   C1912     1.0  0.73584  0.43028  0.24109  1.0000
  C   C1913     1.0  0.71680  0.28881  0.47454  1.0000
  H   H3373     1.0  0.77970  0.43506  0.22861  1.0000
  H   H3374     1.0  0.78791  0.27109  0.89607  1.0000
  H   H3375     1.0  0.65859  0.46633  0.00256  1.0000
  H   H3376     1.0  0.69173  0.27539  0.96790  1.0000
  H   H3377     1.0  0.73859  0.39489  0.38022  1.0000
  H   H3378     1.0  0.73138  0.43800  0.23133  1.0000
  Fe  Fe215     1.0  0.76511  0.25976  0.37421  1.0000
  H   H3379     1.0  0.69223  0.30566  0.78592  1.0000
  C   C1914     1.0  0.62126  0.44172  0.08710  1.0000
  H   H3380     1.0  0.74104  0.28993  0.93137  1.0000
  H   H3381     1.0  0.65787  0.48493  0.02943  1.0000
  S   S427      1.0  0.77247  0.40705  0.49090  1.0000
  C   C1915     1.0  0.69944  0.28648  0.37896  1.0000
  S   S428      1.0  0.76021  0.26419  0.09095  1.0000
  C   C1916     1.0  0.59626  0.29118  0.96692  1.0000
  H   H3382     1.0  0.76890  0.38197  0.55522  1.0000
  H   H3383     1.0  0.71883  0.26897  0.57543  1.0000
  C   C1917     1.0  0.72868  0.40905  0.36127  1.0000
  H   H3384     1.0  0.72656  0.39661  0.42009  1.0000
  H   H3385     1.0  0.72869  0.42111  0.25267  1.0000
  C   C1918     1.0  0.72681  0.29764  0.96094  1.0000
  H   H3386     1.0  0.70943  0.29175  0.82546  1.0000
  S   S429      1.0  0.60847  0.25921  0.45812  1.0000
  C   C1919     1.0  0.72294  0.27908  0.47532  1.0000
  H   H3387     1.0  0.74975  0.45207  0.31788  1.0000
  C   C1920     1.0  0.59513  0.42320  0.42680  1.0000
  C   C1921     1.0  0.65029  0.46991  0.00629  1.0000
  H   H3388     1.0  0.71618  0.29435  0.44645  1.0000
  H   H3389     1.0  0.73752  0.32460  0.57168  1.0000
  H   H3390     1.0  0.76660  0.46301  0.87529  1.0000
  H   H3391     1.0  0.72384  0.42761  0.31486  1.0000
  H   H3392     1.0  0.74624  0.42470  0.28247  1.0000
  H   H3393     1.0  0.60491  0.45020  0.04549  1.0000
  C   C1922     1.0  0.61684  0.43524  0.82417  1.0000
  H   H3394     1.0  0.68596  0.28259  0.88086  1.0000
  H   H3395     1.0  0.62304  0.43805  0.11623  1.0000
  N   N104      1.0  0.62953  0.47890  0.19866  1.0000
  C   C1923     1.0  0.69210  0.27208  0.99916  1.0000
  H   H3396     1.0  0.78296  0.36556  0.10737  1.0000
  C   C1924     1.0  0.69064  0.28115  0.71360  1.0000
  S   S430      1.0  0.72851  0.27137  0.07625  1.0000
  C   C1925     1.0  0.73524  0.31432  0.58678  1.0000
  C   C1926     1.0  0.74218  0.43272  0.27300  1.0000
  H   H3397     1.0  0.71054  0.43014  0.36386  1.0000
  H   H3398     1.0  0.71300  0.42122  0.40894  1.0000
  Fe  Fe216     1.0  0.74288  0.25992  0.07060  1.0000
  H   H3399     1.0  0.62062  0.48292  0.01848  1.0000
  C   C1927     1.0  0.75677  0.28505  0.56193  1.0000
  H   H3400     1.0  0.68339  0.27224  0.72001  1.0000
  C   C1928     1.0  0.64825  0.45423  0.83089  1.0000
  H   H3401     1.0  0.69123  0.28722  0.68374  1.0000
  C   C1929     1.0  0.73287  0.43451  0.30910  1.0000
  C   C1930     1.0  0.73820  0.42035  0.36479  1.0000
  C   C1931     1.0  0.71437  0.43083  0.38932  1.0000
  H   H3402     1.0  0.61990  0.48157  0.31797  1.0000
  H   H3403     1.0  0.61849  0.43933  0.75973  1.0000
  C   C1932     1.0  0.69355  0.29852  0.81065  1.0000
  H   H3404     1.0  0.73097  0.44394  0.29910  1.0000
  N   N105      1.0  0.73714  0.43349  0.34640  1.0000
  H   H3405     1.0  0.74762  0.41909  0.35141  1.0000
  C   C1933     1.0  0.74342  0.27946  0.31845  1.0000
  H   H3406     1.0  0.78019  0.37830  0.20879  1.0000
  C   C1934     1.0  0.77099  0.36688  0.98415  1.0000
  H   H3407     1.0  0.72799  0.25670  0.34614  1.0000
  H   H3408     1.0  0.65140  0.44642  0.84709  1.0000
  C   C1935     1.0  0.77296  0.42599  0.23906  1.0000
  C   C1936     1.0  0.59692  0.34821  0.70883  1.0000
  H   H3409     1.0  0.59404  0.48673  0.32883  1.0000
  H   H3410     1.0  0.69490  0.27640  0.78577  1.0000
  C   C1937     1.0  0.64806  0.47601  0.14561  1.0000
  H   H3411     1.0  0.74992  0.44917  0.38863  1.0000
  C   C1938     1.0  0.74991  0.44251  0.33510  1.0000
  H   H3412     1.0  0.72504  0.31109  0.60192  1.0000
  H   H3413     1.0  0.64647  0.48878  0.87317  1.0000
  Fe  Fe217     1.0  0.59406  0.48737  0.05668  1.0000
  H   H3414     1.0  0.70663  0.44702  0.39444  1.0000
  S   S431      1.0  0.75946  0.37349  0.48252  1.0000
  H   H3415     1.0  0.61123  0.43791  0.84924  1.0000
  H   H3416     1.0  0.73758  0.41905  0.39688  1.0000
  H   H3417     1.0  0.75498  0.32141  0.52022  1.0000
  H   H3418     1.0  0.67067  0.29528  0.79886  1.0000
  H   H3419     1.0  0.69035  0.27542  0.49791  1.0000
  H   H3420     1.0  0.73613  0.27906  0.34550  1.0000
  H   H3421     1.0  0.73115  0.43689  0.40421  1.0000
  H   H3422     1.0  0.72731  0.26487  0.24265  1.0000
  C   C1939     1.0  0.62245  0.47706  0.89835  1.0000
  H   H3423     1.0  0.76243  0.30382  0.91043  1.0000
  H   H3424     1.0  0.72911  0.44811  0.36376  1.0000
  H   H3425     1.0  0.70176  0.28066  0.35847  1.0000
  C   C1940     1.0  0.67695  0.25621  0.91097  1.0000
  H   H3426     1.0  0.76256  0.35943  0.00343  1.0000
  H   H3427     1.0  0.66516  0.29206  0.12578  1.0000
  H   H3428     1.0  0.76852  0.42756  0.18271  1.0000
  H   H3429     1.0  0.68280  0.28049  0.56364  1.0000
  C   C1941     1.0  0.75208  0.27067  0.57730  1.0000
  H   H3430     1.0  0.63469  0.29656  0.39412  1.0000
  C   C1942     1.0  0.59872  0.44594  0.92833  1.0000
  C   C1943     1.0  0.76667  0.25598  0.27438  1.0000
  H   H3431     1.0  0.59884  0.44570  0.76192  1.0000
  C   C1944     1.0  0.63916  0.48518  0.02596  1.0000
  Fe  Fe218     1.0  0.77026  0.26677  0.45008  1.0000
  H   H3432     1.0  0.76839  0.37607  0.97893  1.0000
  C   C1945     1.0  0.73290  0.25786  0.31438  1.0000
  H   H3433     1.0  0.62037  0.47137  0.13836  1.0000
  N   N106      1.0  0.77980  0.30376  0.92592  1.0000
  S   S432      1.0  0.60743  0.45531  0.48222  1.0000
  H   H3434     1.0  0.59555  0.39716  0.02468  1.0000
  H   H3435     1.0  0.68297  0.26566  0.01798  1.0000
  H   H3436     1.0  0.68510  0.25896  0.55945  1.0000
  H   H3437     1.0  0.75367  0.30289  0.37644  1.0000
  C   C1946     1.0  0.67734  0.26253  0.55068  1.0000
  H   H3438     1.0  0.75255  0.28900  0.58586  1.0000
  N   N107      1.0  0.75732  0.30426  0.50486  1.0000
  H   H3439     1.0  0.60527  0.39794  0.67113  1.0000
  C   C1947     1.0  0.68628  0.27990  0.78740  1.0000
  H   H3440     1.0  0.75447  0.26726  0.60557  1.0000
  H   H3441     1.0  0.66057  0.46794  0.84784  1.0000
  H   H3442     1.0  0.73552  0.29680  0.57283  1.0000
  C   C1948     1.0  0.62579  0.44559  0.50650  1.0000
  Fe  Fe219     1.0  0.61608  0.25598  0.34867  1.0000
  H   H3443     1.0  0.74034  0.31265  0.60978  1.0000
  H   H3444     1.0  0.74789  0.26453  0.92831  1.0000
  H   H3445     1.0  0.62309  0.27703  0.10637  1.0000
  H   H3446     1.0  0.77864  0.41024  0.93134  1.0000
  H   H3447     1.0  0.76696  0.28522  0.89728  1.0000
  H   H3448     1.0  0.75583  0.30337  0.05397  1.0000
  H   H3449     1.0  0.66389  0.26208  0.09208  1.0000
  H   H3450     1.0  0.70980  0.29427  0.77364  1.0000
  H   H3451     1.0  0.62408  0.45746  0.16400  1.0000
  H   H3452     1.0  0.64864  0.43821  0.78765  1.0000
  C   C1949     1.0  0.75083  0.30730  0.40075  1.0000
  C   C1950     1.0  0.69100  0.26698  0.43859  1.0000
  H   H3453     1.0  0.66525  0.47200  0.15702  1.0000
  C   C1951     1.0  0.76277  0.25663  0.20941  1.0000
  C   C1952     1.0  0.62475  0.42697  0.90103  1.0000
  H   H3454     1.0  0.77393  0.36470  0.95525  1.0000
  C   C1953     1.0  0.76626  0.26284  0.23685  1.0000
  H   H3455     1.0  0.76641  0.30476  0.42335  1.0000
  S   S433      1.0  0.59490  0.27561  0.96265  1.0000
  H   H3456     1.0  0.75854  0.30830  0.98253  1.0000
  H   H3457     1.0  0.73303  0.30882  0.53497  1.0000
  H   H3458     1.0  0.75092  0.27544  0.32755  1.0000
  C   C1954     1.0  0.75283  0.31110  0.53491  1.0000
  H   H3459     1.0  0.62601  0.47755  0.86639  1.0000
  H   H3460     1.0  0.78143  0.43121  0.94794  1.0000
  S   S434      1.0  0.77230  0.26431  0.30614  1.0000
  C   C1955     1.0  0.63435  0.45010  0.83151  1.0000
  S   S435      1.0  0.59447  0.24874  0.15387  1.0000
  S   S436      1.0  0.78575  0.40251  0.40570  1.0000
  H   H3461     1.0  0.67275  0.26788  0.60579  1.0000
  H   H3462     1.0  0.69453  0.29710  0.73598  1.0000
  H   H3463     1.0  0.62730  0.41751  0.85445  1.0000
  C   C1956     1.0  0.75170  0.30759  0.47072  1.0000
  S   S437      1.0  0.64447  0.25809  0.98953  1.0000
  H   H3464     1.0  0.74311  0.28665  0.52852  1.0000
  H   H3465     1.0  0.75266  0.29181  0.44461  1.0000
  H   H3466     1.0  0.63297  0.45762  0.80802  1.0000
  C   C1957     1.0  0.60267  0.25018  0.19012  1.0000
  C   C1958     1.0  0.63563  0.42477  0.77367  1.0000
  S   S438      1.0  0.76451  0.27679  0.39762  1.0000
  Fe  Fe220     1.0  0.76969  0.25902  0.03677  1.0000
  C   C1959     1.0  0.59720  0.49448  0.22937  1.0000
  H   H3467     1.0  0.63003  0.43493  0.90907  1.0000
  H   H3468     1.0  0.74135  0.30390  0.48115  1.0000
  S   S439      1.0  0.77926  0.42423  0.30919  1.0000
  N   N108      1.0  0.63035  0.43731  0.82491  1.0000
  H   H3469     1.0  0.60944  0.31077  0.78397  1.0000
  H   H3470     1.0  0.64827  0.47850  0.20305  1.0000
  C   C1960     1.0  0.61796  0.46898  0.20281  1.0000
  H   H3471     1.0  0.76155  0.33733  0.88069  1.0000
  H   H3472     1.0  0.78432  0.27979  0.85260  1.0000
  H   H3473     1.0  0.75388  0.28883  0.04014  1.0000
  H   H3474     1.0  0.76218  0.26203  0.18110  1.0000
  H   H3475     1.0  0.70574  0.25251  0.46729  1.0000
  H   H3476     1.0  0.62129  0.43710  0.50091  1.0000
  C   C1961     1.0  0.63490  0.28694  0.15442  1.0000
  H   H3477     1.0  0.77468  0.32870  0.48368  1.0000
  H   H3478     1.0  0.63983  0.41827  0.72090  1.0000
  S   S440      1.0  0.75018  0.25690  0.48547  1.0000
  C   C1962     1.0  0.78456  0.29399  0.90795  1.0000
  H   H3479     1.0  0.60951  0.47270  0.21059  1.0000
  H   H3480     1.0  0.69918  0.25627  0.95630  1.0000
  H   H3481     1.0  0.78677  0.44777  0.86510  1.0000
  C   C1963     1.0  0.59142  0.40341  0.64005  1.0000
  H   H3482     1.0  0.59897  0.44398  0.40916  1.0000
  H   H3483     1.0  0.77479  0.39543  0.57189  1.0000
  H   H3484     1.0  0.63918  0.44540  0.76166  1.0000
  H   H3485     1.0  0.67461  0.27474  0.49871  1.0000
  H   H3486     1.0  0.69717  0.29497  0.36226  1.0000
  H   H3487     1.0  0.64505  0.46217  0.88143  1.0000
  H   H3488     1.0  0.74045  0.30494  0.41083  1.0000
  C   C1964     1.0  0.68548  0.24817  0.49505  1.0000
  H   H3489     1.0  0.77497  0.44762  0.33761  1.0000
  H   H3490     1.0  0.72345  0.26400  0.17872  1.0000
  H   H3491     1.0  0.63307  0.30616  0.07192  1.0000
  H   H3492     1.0  0.63519  0.43294  0.71293  1.0000
  C   C1965     1.0  0.75334  0.29014  0.52285  1.0000
  H   H3493     1.0  0.60170  0.44754  0.19764  1.0000
  C   C1966     1.0  0.76153  0.32735  0.88182  1.0000
  H   H3494     1.0  0.63629  0.26556  0.13894  1.0000
  C   C1967     1.0  0.64243  0.28546  0.18553  1.0000
  H   H3495     1.0  0.75328  0.31801  0.45937  1.0000
  H   H3496     1.0  0.59935  0.32097  0.90877  1.0000
  C   C1968     1.0  0.77478  0.38553  0.20387  1.0000
  C   C1969     1.0  0.62794  0.48217  0.23793  1.0000
  H   H3497     1.0  0.61508  0.42794  0.90370  1.0000
  C   C1970     1.0  0.78228  0.45945  0.00856  1.0000
  H   H3498     1.0  0.69385  0.28048  0.01056  1.0000
  C   C1971     1.0  0.78309  0.28937  0.12992  1.0000
  H   H3499     1.0  0.76356  0.28994  0.96798  1.0000
  C   C1972     1.0  0.77181  0.29703  0.96800  1.0000
  H   H3500     1.0  0.77609  0.28439  0.15902  1.0000
  S   S441      1.0  0.59639  0.25072  0.38862  1.0000
  C   C1973     1.0  0.77143  0.30821  0.49092  1.0000
  H   H3501     1.0  0.78066  0.33022  0.88305  1.0000
  H   H3502     1.0  0.77284  0.45728  0.02978  1.0000
  S   S442      1.0  0.59257  0.37379  0.84003  1.0000
  H   H3503     1.0  0.62489  0.46902  0.91685  1.0000
  H   H3504     1.0  0.77707  0.46331  0.82847  1.0000
  H   H3505     1.0  0.77662  0.47776  0.84214  1.0000
  H   H3506     1.0  0.59791  0.25528  0.28266  1.0000
  C   C1974     1.0  0.78141  0.36725  0.00484  1.0000
  C   C1975     1.0  0.70653  0.26068  0.30709  1.0000
  H   H3507     1.0  0.69987  0.27900  0.71249  1.0000
  H   H3508     1.0  0.65418  0.45851  0.15437  1.0000
  H   H3509     1.0  0.70148  0.25829  0.51008  1.0000
  C   C1976     1.0  0.77600  0.46755  0.85386  1.0000
  S   S443      1.0  0.77229  0.25017  0.42438  1.0000
  H   H3510     1.0  0.59825  0.38613  0.65045  1.0000
  S   S444      1.0  0.78195  0.43036  0.40878  1.0000
  S   S445      1.0  0.59292  0.33707  0.58192  1.0000
  C   C1977     1.0  0.72852  0.25515  0.25142  1.0000
  S   S446      1.0  0.59302  0.28512  0.40410  1.0000
  H   H3511     1.0  0.77334  0.31363  0.99230  1.0000
  C   C1978     1.0  0.78625  0.46592  0.87453  1.0000
  H   H3512     1.0  0.78328  0.35778  0.01090  1.0000
  H   H3513     1.0  0.68741  0.25156  0.31034  1.0000
  H   H3514     1.0  0.78379  0.26540  0.14741  1.0000
  C   C1979     1.0  0.71114  0.24846  0.31487  1.0000
  C   C1980     1.0  0.64233  0.49135  0.90059  1.0000
  C   C1981     1.0  0.59056  0.30808  0.82024  1.0000
  H   H3515     1.0  0.63638  0.48200  0.30598  1.0000
  C   C1982     1.0  0.59474  0.29375  0.00387  1.0000
  C   C1983     1.0  0.77734  0.32216  0.46610  1.0000
  H   H3516     1.0  0.77896  0.28770  0.10574  1.0000
  C   C1984     1.0  0.59386  0.42009  0.57799  1.0000
  C   C1985     1.0  0.61492  0.24889  0.18476  1.0000
  S   S447      1.0  0.78148  0.27678  0.48673  1.0000
  S   S448      1.0  0.62291  0.25275  0.28736  1.0000
  Fe  Fe221     1.0  0.59430  0.34657  0.92648  1.0000
  C   C1986     1.0  0.59464  0.30606  0.00661  1.0000
  H   H3517     1.0  0.78604  0.40525  0.22836  1.0000
  C   C1987     1.0  0.59159  0.35021  0.74545  1.0000
  H   H3518     1.0  0.77436  0.32435  0.43842  1.0000
  H   H3519     1.0  0.77587  0.44696  0.90999  1.0000
  H   H3520     1.0  0.77316  0.26584  0.88663  1.0000
  H   H3521     1.0  0.64900  0.25037  0.10924  1.0000
  H   H3522     1.0  0.77518  0.30206  0.47329  1.0000
  H   H3523     1.0  0.65261  0.48616  0.13081  1.0000
  H   H3524     1.0  0.70865  0.26535  0.27476  1.0000
  C   C1988     1.0  0.65787  0.24852  0.50735  1.0000
  H   H3525     1.0  0.62096  0.49302  0.17166  1.0000
  H   H3526     1.0  0.61998  0.48663  0.24333  1.0000
  H   H3527     1.0  0.58916  0.41504  0.55981  1.0000
  C   C1989     1.0  0.59162  0.30513  0.43577  1.0000
  C   C1990     1.0  0.59071  0.34909  0.67890  1.0000
  H   H3528     1.0  0.67500  0.48735  0.95021  1.0000
  H   H3529     1.0  0.65512  0.25486  0.52568  1.0000
  Fe  Fe222     1.0  0.60152  0.24781  0.08962  1.0000
  H   H3530     1.0  0.78770  0.28723  0.04158  1.0000
  C   C1991     1.0  0.62106  0.25004  0.21441  1.0000
  C   C1992     1.0  0.66893  0.49431  0.89754  1.0000
  N   N109      1.0  0.72482  0.24980  0.29626  1.0000
  S   S449      1.0  0.60959  0.49354  0.44063  1.0000
  C   C1993     1.0  0.67917  0.49258  0.91816  1.0000
  H   H3531     1.0  0.71133  0.24609  0.23914  1.0000
  C   C1994     1.0  0.72159  0.24757  0.22813  1.0000
  H   H3532     1.0  0.59088  0.37972  0.72330  1.0000
  C   C1995     1.0  0.59154  0.44005  0.00402  1.0000
  H   H3533     1.0  0.58957  0.32083  0.46019  1.0000
  C   C1996     1.0  0.59036  0.29202  0.44403  1.0000
  H   H3534     1.0  0.69095  0.24708  0.00543  1.0000
  H   H3535     1.0  0.59105  0.41368  0.07587  1.0000
  H   H3536     1.0  0.59004  0.44946  0.00570  1.0000
  H   H3537     1.0  0.59062  0.34950  0.35759  1.0000
  H   H3538     1.0  0.59198  0.43770  0.92628  1.0000
  H   H3539     1.0  0.58959  0.35106  0.40707  1.0000
  H   H3540     1.0  0.59084  0.41661  0.98828  1.0000
  H   H3541     1.0  0.63634  0.48929  0.23699  1.0000
  H   H3542     1.0  0.63203  0.48918  0.13683  1.0000
  C   C1997     1.0  0.72558  0.25459  0.18368  1.0000
  N   N110      1.0  0.71025  0.24607  0.98681  1.0000
  H   H3543     1.0  0.61957  0.24683  0.15796  1.0000
  H   H3544     1.0  0.72044  0.24907  0.16762  1.0000
  H   H3545     1.0  0.68966  0.25334  0.35743  1.0000
  C   C1998     1.0  0.63021  0.49067  0.16697  1.0000
  H   H3546     1.0  0.63051  0.24893  0.21009  1.0000
  S   S450      1.0  0.62388  0.24629  0.39621  1.0000
  H   H3547     1.0  0.58862  0.40159  0.48681  1.0000
  C   C1999     1.0  0.58858  0.31075  0.46686  1.0000
  Fe  Fe223     1.0  0.60420  0.49436  0.38342  1.0000
  H   H3548     1.0  0.70882  0.24477  0.34787  1.0000
  H   H3549     1.0  0.62226  0.52192  0.42245  1.0000
  Fe  Fe224     1.0  0.59713  0.49622  0.12939  1.0000
  S   S451      1.0  0.60773  0.50463  0.01321  1.0000
  H   H3550     1.0  0.61925  0.55664  0.30682  1.0000
  H   H3551     1.0  0.63133  0.52972  0.94248  1.0000
  H   H3552     1.0  0.61005  0.56769  0.34552  1.0000
  C   C2000     1.0  0.59650  0.54917  0.36557  1.0000
  C   C2001     1.0  0.63902  0.52826  0.95614  1.0000
  S   S452      1.0  0.61531  0.50650  0.32135  1.0000
  H   H3553     1.0  0.67360  0.49911  0.86551  1.0000
  H   H3554     1.0  0.66701  0.51140  0.91317  1.0000
  C   C2002     1.0  0.61682  0.52785  0.43632  1.0000
  H   H3555     1.0  0.64920  0.52159  0.12672  1.0000
  H   H3556     1.0  0.61009  0.55807  0.39308  1.0000
  H   H3557     1.0  0.66057  0.50791  0.83877  1.0000
  C   C2003     1.0  0.64175  0.51002  0.92675  1.0000
  Fe  Fe225     1.0  0.59816  0.51506  0.05284  1.0000
  H   H3558     1.0  0.60025  0.52137  0.41997  1.0000
  H   H3559     1.0  0.62328  0.53681  0.43475  1.0000
  H   H3560     1.0  0.65243  0.52995  0.90131  1.0000
  C   C2004     1.0  0.61283  0.53715  0.37029  1.0000
  H   H3561     1.0  0.64390  0.53749  0.95844  1.0000
  S   S453      1.0  0.61132  0.51399  0.09192  1.0000
  H   H3562     1.0  0.62577  0.49719  0.88608  1.0000
  Fe  Fe226     1.0  0.61927  0.50164  0.05641  1.0000
  N   N111      1.0  0.60406  0.54123  0.34677  1.0000
  H   H3563     1.0  0.63796  0.50341  0.95733  1.0000
  H   H3564     1.0  0.64735  0.50979  0.10043  1.0000
  H   H3565     1.0  0.63497  0.52177  0.98677  1.0000
  H   H3566     1.0  0.65575  0.52182  0.94591  1.0000
  H   H3567     1.0  0.62065  0.54530  0.36698  1.0000
  N   N112      1.0  0.64973  0.50414  0.89999  1.0000
  H   H3568     1.0  0.60602  0.55393  0.28896  1.0000
  S   S454      1.0  0.63892  0.49903  0.04130  1.0000
  H   H3569     1.0  0.64499  0.52877  0.78022  1.0000
  C   C2005     1.0  0.64277  0.51294  0.12595  1.0000
  H   H3570     1.0  0.58843  0.52252  0.97073  1.0000
  H   H3571     1.0  0.61226  0.52268  0.46824  1.0000
  H   H3572     1.0  0.63338  0.51143  0.91701  1.0000
  H   H3573     1.0  0.64892  0.50043  0.16816  1.0000
  C   C2006     1.0  0.60810  0.50233  0.28583  1.0000
  C   C2007     1.0  0.61264  0.50918  0.24535  1.0000
  C   C2008     1.0  0.60709  0.50534  0.21710  1.0000
  H   H3574     1.0  0.66182  0.52129  0.85689  1.0000
  C   C2009     1.0  0.62592  0.55026  0.23765  1.0000
  H   H3575     1.0  0.62046  0.51740  0.23586  1.0000
  H   H3576     1.0  0.61052  0.51067  0.18597  1.0000
  H   H3577     1.0  0.63996  0.50829  0.83032  1.0000
  H   H3578     1.0  0.63403  0.51534  0.12147  1.0000
  H   H3579     1.0  0.61742  0.53034  0.35807  1.0000
  H   H3580     1.0  0.63633  0.50666  0.18965  1.0000
  H   H3581     1.0  0.60043  0.60627  0.74506  1.0000
  H   H3582     1.0  0.60220  0.61389  0.78339  1.0000
  Fe  Fe227     1.0  0.58997  0.49530  0.46504  1.0000
  C   C2010     1.0  0.61177  0.54894  0.30528  1.0000
  H   H3583     1.0  0.60030  0.52276  0.33686  1.0000
  C   C2011     1.0  0.60684  0.53054  0.41546  1.0000
  C   C2012     1.0  0.59513  0.52960  0.34597  1.0000
  H   H3584     1.0  0.61973  0.55466  0.22194  1.0000
  H   H3585     1.0  0.63331  0.55778  0.24038  1.0000
  C   C2013     1.0  0.65502  0.51262  0.85787  1.0000
  H   H3586     1.0  0.65745  0.53500  0.79943  1.0000
  C   C2014     1.0  0.61834  0.54153  0.27876  1.0000
  C   C2015     1.0  0.60406  0.56080  0.37388  1.0000
  C   C2016     1.0  0.59528  0.56747  0.39545  1.0000
  H   H3587     1.0  0.62486  0.53706  0.29254  1.0000
  C   C2017     1.0  0.64830  0.52289  0.93086  1.0000
  C   C2018     1.0  0.64544  0.51661  0.83611  1.0000
  H   H3588     1.0  0.63049  0.54470  0.21943  1.0000
  H   H3589     1.0  0.65846  0.52226  0.77642  1.0000
  H   H3590     1.0  0.63901  0.52101  0.85344  1.0000
  H   H3591     1.0  0.61147  0.53401  0.27398  1.0000
  H   H3592     1.0  0.60082  0.57587  0.40072  1.0000
  C   C2019     1.0  0.65204  0.52624  0.79560  1.0000
  H   H3593     1.0  0.60172  0.53639  0.43075  1.0000
  C   C2020     1.0  0.63999  0.50265  0.16502  1.0000
  C   C2021     1.0  0.66060  0.50219  0.91653  1.0000
  H   H3594     1.0  0.59077  0.55280  0.34630  1.0000
  C   C2022     1.0  0.59650  0.61233  0.76262  1.0000
  H   H3595     1.0  0.68528  0.50187  0.91556  1.0000
  H   H3596     1.0  0.65713  0.49750  0.94916  1.0000
  H   H3597     1.0  0.58904  0.52453  0.37647  1.0000
  H   H3598     1.0  0.58957  0.54331  0.39402  1.0000
  H   H3599     1.0  0.58939  0.56104  0.42484  1.0000
  H   H3600     1.0  0.59113  0.53797  0.28921  1.0000
  H   H3601     1.0  0.59720  0.62164  0.74208  1.0000
  S   S455      1.0  0.59105  0.53261  0.03728  1.0000
  H   H3602     1.0  0.58907  0.57065  0.37738  1.0000
  C   C2023     1.0  0.60725  0.97790  0.58226  1.0000
  H   H3603     1.0  0.59988  0.95315  0.73138  1.0000
  H   H3604     1.0  0.61849  0.97844  0.68189  1.0000
  H   H3605     1.0  0.59827  0.99061  0.42620  1.0000
  H   H3606     1.0  0.59042  0.96472  0.58086  1.0000
  C   C2024     1.0  0.60598  0.96918  0.65247  1.0000
  H   H3607     1.0  0.59801  0.96068  0.66220  1.0000
  H   H3608     1.0  0.61753  0.97882  0.57271  1.0000
  H   H3609     1.0  0.61616  0.95514  0.70579  1.0000
  C   C2025     1.0  0.58971  0.97950  0.63327  1.0000
  H   H3610     1.0  0.60229  0.97626  0.70620  1.0000
  C   C2026     1.0  0.60606  0.96372  0.53639  1.0000
  C   C2027     1.0  0.60048  0.96516  0.57765  1.0000
  C   C2028     1.0  0.60906  0.97189  0.69036  1.0000
  H   H3611     1.0  0.60573  0.97183  0.51257  1.0000
  C   C2029     1.0  0.59583  0.99312  0.45389  1.0000
  H   H3612     1.0  0.61199  0.96218  0.74587  1.0000
  C   C2030     1.0  0.60928  0.95982  0.71998  1.0000
  N   N113      1.0  0.60347  0.97984  0.62330  1.0000
  H   H3613     1.0  0.61417  0.96609  0.63758  1.0000
  H   H3614     1.0  0.61592  0.96312  0.53253  1.0000
  H   H3615     1.0  0.60541  0.98532  0.55956  1.0000
  H   H3616     1.0  0.60058  0.95496  0.53285  1.0000
  H   H3617     1.0  0.60123  0.95695  0.60010  1.0000
  H   H3618     1.0  0.58946  0.99302  0.66981  1.0000
  H   H3619     1.0  0.62155  0.99219  0.61402  1.0000
  C   C2031     1.0  0.61150  0.99238  0.62186  1.0000
  H   H3620     1.0  0.60956  0.99415  0.65160  1.0000
  C   C2032     1.0  0.79056  0.24310  0.12694  1.0000
  C   C2033     1.0  0.79119  0.23394  0.10123  1.0000
  H   H3621     1.0  0.79919  0.22960  0.10266  1.0000
  H   H3622     1.0  0.79221  0.23889  0.06966  1.0000
  H   H3623     1.0  0.78918  0.23744  0.15798  1.0000
  S   S456      1.0  0.79966  0.41373  0.03481  1.0000
  H   H3624     1.0  0.84475  0.43261  0.98194  1.0000
  H   H3625     1.0  0.82240  0.35719  0.67175  1.0000
  S   S457      1.0  0.81060  0.41939  0.44669  1.0000
  Fe  Fe228     1.0  0.87688  0.44761  0.61972  1.0000
  S   S458      1.0  0.89504  0.44638  0.58109  1.0000
  S   S459      1.0  0.87139  0.44392  0.68771  1.0000
  Fe  Fe229     1.0  0.86344  0.44725  0.55261  1.0000
  S   S460      1.0  0.88089  0.44666  0.50898  1.0000
  S   S461      1.0  0.84345  0.44541  0.54568  1.0000
  Fe  Fe230     1.0  0.88321  0.43252  0.55990  1.0000
  S   S462      1.0  0.88823  0.41469  0.55186  1.0000
  Fe  Fe231     1.0  0.89165  0.46093  0.53270  1.0000
  S   S463      1.0  0.90800  0.47557  0.48440  1.0000
  S   S464      1.0  0.86544  0.43226  0.60235  1.0000
  S   S465      1.0  0.87386  0.46296  0.57241  1.0000
  Fe  Fe232     1.0  0.83880  0.32899  0.53478  1.0000
  S   S466      1.0  0.83086  0.33722  0.58417  1.0000
  S   S467      1.0  0.82762  0.31853  0.49900  1.0000
  Fe  Fe233     1.0  0.86623  0.34193  0.53206  1.0000
  S   S468      1.0  0.85992  0.35045  0.58133  1.0000
  S   S469      1.0  0.88696  0.34598  0.49867  1.0000
  Fe  Fe234     1.0  0.84592  0.33206  0.61194  1.0000
  S   S470      1.0  0.84223  0.32424  0.67933  1.0000
  Fe  Fe235     1.0  0.84568  0.35511  0.55007  1.0000
  S   S471      1.0  0.84252  0.37468  0.54144  1.0000
  S   S472      1.0  0.85313  0.32263  0.56481  1.0000
  S   S473      1.0  0.85266  0.34765  0.49869  1.0000
  H   H3626     1.0  0.79627  0.43212  0.95624  1.0000
  H   H3627     1.0  0.96986  0.44541  0.14460  1.0000
  H   H3628     1.0  0.94696  0.39610  0.29719  1.0000
  H   H3629     1.0  0.91384  0.40461  0.05052  1.0000
  H   H3630     1.0  0.92649  0.37442  0.11432  1.0000
  H   H3631     1.0  0.93793  0.43934  0.87300  1.0000
  Fe  Fe236     1.0  0.86736  0.45648  0.94748  1.0000
  S   S474      1.0  0.88401  0.47292  0.91336  1.0000
  S   S475      1.0  0.84808  0.45976  0.96931  1.0000
  Fe  Fe237     1.0  0.88308  0.43753  0.94600  1.0000
  S   S476      1.0  0.90084  0.45224  0.91211  1.0000
  S   S477      1.0  0.88430  0.41740  0.96474  1.0000
  Fe  Fe238     1.0  0.89457  0.46371  0.95328  1.0000
  S   S478      1.0  0.90573  0.47143  0.99302  1.0000
  Fe  Fe239     1.0  0.88905  0.46020  0.87461  1.0000
  S   S479      1.0  0.89710  0.46664  0.80685  1.0000
  S   S480      1.0  0.87743  0.44817  0.99001  1.0000
  S   S481      1.0  0.87174  0.44458  0.90593  1.0000
  H   H3632     1.0  0.90167  0.41264  0.04866  1.0000
  H   H3633     1.0  0.88912  0.32800  0.66437  1.0000
  H   H3634     1.0  0.89067  0.39763  0.02118  1.0000
  H   H3635     1.0  0.92283  0.42038  0.99161  1.0000
  C   C2034     1.0  0.89906  0.37557  0.08569  1.0000
  H   H3636     1.0  0.97712  0.48790  0.22225  1.0000
  H   H3637     1.0  0.81926  0.35357  0.92819  1.0000
  C   C2035     1.0  0.81592  0.34938  0.96103  1.0000
  Fe  Fe240     1.0  0.84511  0.33349  0.94293  1.0000
  S   S482      1.0  0.84298  0.34725  0.88997  1.0000
  S   S483      1.0  0.82742  0.31976  0.98814  1.0000
  Fe  Fe241     1.0  0.87244  0.34897  0.93214  1.0000
  S   S484      1.0  0.87177  0.36330  0.87818  1.0000
  S   S485      1.0  0.88863  0.35034  0.96212  1.0000
  Fe  Fe242     1.0  0.85243  0.36218  0.91315  1.0000
  S   S486      1.0  0.84566  0.37955  0.91691  1.0000
  Fe  Fe243     1.0  0.86248  0.34702  0.85891  1.0000
  S   S487      1.0  0.86867  0.35011  0.79124  1.0000
  S   S488      1.0  0.85330  0.34875  0.96806  1.0000
  S   S489      1.0  0.86442  0.33235  0.91085  1.0000
  C   C2036     1.0  0.90108  0.36224  0.96571  1.0000
  C   C2037     1.0  0.90420  0.37490  0.94301  1.0000
  C   C2038     1.0  0.91413  0.38384  0.94709  1.0000
  C   C2039     1.0  0.92100  0.38041  0.97441  1.0000
  C   C2040     1.0  0.91789  0.36775  0.99697  1.0000
  C   C2041     1.0  0.90807  0.35879  0.99254  1.0000
  H   H3638     1.0  0.89899  0.37780  0.92222  1.0000
  H   H3639     1.0  0.91637  0.39354  0.92925  1.0000
  C   C2042     1.0  0.96475  0.36392  0.64285  1.0000
  H   H3640     1.0  0.90587  0.34906  0.01016  1.0000
  H   H3641     1.0  0.84196  0.37414  0.81724  1.0000
  C   C2043     1.0  0.96658  0.46527  0.02592  1.0000
  C   C2044     1.0  0.97155  0.47201  0.04963  1.0000
  H   H3642     1.0  0.95968  0.46838  0.01220  1.0000
  H   H3643     1.0  0.96840  0.48022  0.05408  1.0000
  C   C2045     1.0  0.92043  0.48136  0.99008  1.0000
  C   C2046     1.0  0.80137  0.26659  0.20498  1.0000
  C   C2047     1.0  0.82235  0.39088  0.42346  1.0000
  H   H3644     1.0  0.79786  0.36946  0.11829  1.0000
  C   C2048     1.0  0.79506  0.28479  0.12752  1.0000
  C   C2049     1.0  0.92474  0.47995  0.02438  1.0000
  H   H3645     1.0  0.80092  0.45238  0.96398  1.0000
  H   H3646     1.0  0.97667  0.44471  0.39863  1.0000
  C   C2050     1.0  0.98091  0.38645  0.11551  1.0000
  H   H3647     1.0  0.91934  0.47262  0.05129  1.0000
  C   C2051     1.0  0.87338  0.40679  0.95250  1.0000
  C   C2052     1.0  0.86237  0.40974  0.94657  1.0000
  C   C2053     1.0  0.85380  0.40122  0.93638  1.0000
  C   C2054     1.0  0.85619  0.38976  0.93196  1.0000
  C   C2055     1.0  0.86712  0.38671  0.93857  1.0000
  C   C2056     1.0  0.87571  0.39523  0.94879  1.0000
  H   H3648     1.0  0.86037  0.41851  0.95033  1.0000
  H   H3649     1.0  0.84537  0.40356  0.93157  1.0000
  H   H3650     1.0  0.86900  0.37781  0.93586  1.0000
  H   H3651     1.0  0.88423  0.39292  0.95328  1.0000
  C   C2057     1.0  0.87966  0.30691  0.56970  1.0000
  H   H3652     1.0  0.95330  0.46407  0.95201  1.0000
  H   H3653     1.0  0.91066  0.38669  0.11449  1.0000
  H   H3654     1.0  0.92897  0.43345  0.92417  1.0000
  H   H3655     1.0  0.96494  0.47478  0.33135  1.0000
  H   H3656     1.0  0.87267  0.40807  0.76699  1.0000
  H   H3657     1.0  0.90286  0.38979  0.01498  1.0000
  C   C2058     1.0  0.79105  0.31309  0.92736  1.0000
  H   H3658     1.0  0.83537  0.34978  0.66782  1.0000
  C   C2059     1.0  0.84906  0.33199  0.71045  1.0000
  C   C2060     1.0  0.84558  0.32623  0.75183  1.0000
  C   C2061     1.0  0.85115  0.33183  0.77729  1.0000
  C   C2062     1.0  0.86048  0.34315  0.76146  1.0000
  C   C2063     1.0  0.86382  0.34899  0.72019  1.0000
  C   C2064     1.0  0.85803  0.34356  0.69495  1.0000
  H   H3659     1.0  0.83862  0.31731  0.76427  1.0000
  H   H3660     1.0  0.84850  0.32719  0.80896  1.0000
  H   H3661     1.0  0.87099  0.35775  0.70763  1.0000
  H   H3662     1.0  0.86061  0.34830  0.66348  1.0000
  C   C2065     1.0  0.89933  0.35908  0.49437  1.0000
  C   C2066     1.0  0.89831  0.36665  0.52052  1.0000
  C   C2067     1.0  0.90873  0.37618  0.51826  1.0000
  C   C2068     1.0  0.92015  0.37869  0.48873  1.0000
  C   C2069     1.0  0.92096  0.37154  0.46132  1.0000
  C   C2070     1.0  0.91068  0.36169  0.46454  1.0000
  H   H3663     1.0  0.88961  0.36495  0.54321  1.0000
  H   H3664     1.0  0.90795  0.38163  0.53965  1.0000
  H   H3665     1.0  0.92966  0.37328  0.43855  1.0000
  H   H3666     1.0  0.91159  0.35595  0.44400  1.0000
  C   C2071     1.0  0.87859  0.45095  0.71947  1.0000
  C   C2072     1.0  0.87248  0.44720  0.76057  1.0000
  C   C2073     1.0  0.87798  0.45196  0.78751  1.0000
  C   C2074     1.0  0.88973  0.46055  0.77372  1.0000
  C   C2075     1.0  0.89583  0.46435  0.73254  1.0000
  C   C2076     1.0  0.89030  0.45961  0.70551  1.0000
  H   H3667     1.0  0.86339  0.44060  0.77162  1.0000
  H   H3668     1.0  0.87311  0.44900  0.81895  1.0000
  H   H3669     1.0  0.90489  0.47104  0.72145  1.0000
  H   H3670     1.0  0.89511  0.46261  0.67397  1.0000
  C   C2077     1.0  0.92277  0.48331  0.48766  1.0000
  H   H3671     1.0  0.80065  0.26530  0.26687  1.0000
  H   H3672     1.0  0.93685  0.48259  0.81597  1.0000
  H   H3673     1.0  0.82524  0.41680  0.89214  1.0000
  H   H3674     1.0  0.82410  0.35012  0.97344  1.0000
  H   H3675     1.0  0.81755  0.40492  0.18140  1.0000
  H   H3676     1.0  0.91624  0.40833  0.97190  1.0000
  H   H3677     1.0  0.79839  0.28627  0.15319  1.0000
  H   H3678     1.0  0.91880  0.36429  0.08989  1.0000
  H   H3679     1.0  0.80700  0.34352  0.56878  1.0000
  C   C2078     1.0  0.87541  0.40375  0.54909  1.0000
  C   C2079     1.0  0.86395  0.40677  0.54925  1.0000
  C   C2080     1.0  0.85387  0.39783  0.54684  1.0000
  C   C2081     1.0  0.85526  0.38592  0.54374  1.0000
  C   C2082     1.0  0.86685  0.38312  0.54234  1.0000
  C   C2083     1.0  0.87678  0.39187  0.54598  1.0000
  H   H3680     1.0  0.86287  0.41604  0.55061  1.0000
  H   H3681     1.0  0.84508  0.40026  0.54675  1.0000
  H   H3682     1.0  0.86837  0.37441  0.53701  1.0000
  H   H3683     1.0  0.88566  0.38953  0.54536  1.0000
  H   H3684     1.0  0.83143  0.35710  0.62374  1.0000
  H   H3685     1.0  0.89104  0.40807  0.64821  1.0000
  C   C2084     1.0  0.94924  0.44684  0.49517  1.0000
  C   C2085     1.0  0.97010  0.45426  0.02152  1.0000
  H   H3686     1.0  0.82076  0.31146  0.43230  1.0000
  C   C2086     1.0  0.81951  0.42680  0.47447  1.0000
  C   C2087     1.0  0.81430  0.43238  0.50326  1.0000
  C   C2088     1.0  0.82176  0.43795  0.52463  1.0000
  C   C2089     1.0  0.83453  0.43798  0.51794  1.0000
  C   C2090     1.0  0.83970  0.43225  0.48950  1.0000
  C   C2091     1.0  0.83227  0.42679  0.46782  1.0000
  H   H3687     1.0  0.80454  0.43250  0.50888  1.0000
  H   H3688     1.0  0.81762  0.44236  0.54643  1.0000
  H   H3689     1.0  0.84947  0.43216  0.48385  1.0000
  H   H3690     1.0  0.83643  0.42254  0.44563  1.0000
  H   H3691     1.0  0.88451  0.36274  0.04639  1.0000
  H   H3692     1.0  0.79190  0.40963  0.95138  1.0000
  H   H3693     1.0  0.79487  0.37754  0.94774  1.0000
  H   H3694     1.0  0.82614  0.41102  0.67242  1.0000
  H   H3695     1.0  0.85680  0.38584  0.79873  1.0000
  Fe  Fe244     1.0  0.96748  0.40784  0.35208  1.0000
  C   C2092     1.0  0.83470  0.44686  0.98852  1.0000
  C   C2093     1.0  0.82282  0.44908  0.00105  1.0000
  C   C2094     1.0  0.81197  0.43903  0.01545  1.0000
  C   C2095     1.0  0.81295  0.42668  0.01784  1.0000
  C   C2096     1.0  0.82483  0.42443  0.00614  1.0000
  C   C2097     1.0  0.83566  0.43446  0.99129  1.0000
  H   H3696     1.0  0.82200  0.45864  0.99916  1.0000
  H   H3697     1.0  0.80287  0.44079  0.02460  1.0000
  H   H3698     1.0  0.82569  0.41488  0.00829  1.0000
  C   C2098     1.0  0.79453  0.42656  0.90308  1.0000
  H   H3699     1.0  0.82159  0.39179  0.98992  1.0000
  C   C2099     1.0  0.82225  0.41232  0.92484  1.0000
  C   C2100     1.0  0.98220  0.44309  0.20329  1.0000
  C   C2101     1.0  0.96503  0.40420  0.25454  1.0000
  Fe  Fe245     1.0  0.97839  0.41614  0.41847  1.0000
  H   H3700     1.0  0.98065  0.40503  0.57980  1.0000
  H   H3701     1.0  0.79935  0.34024  0.62118  1.0000
  H   H3702     1.0  0.94205  0.44849  0.25711  1.0000
  H   H3703     1.0  0.92125  0.47232  0.83785  1.0000
  N   N114      1.0  0.88657  0.39236  0.41515  1.0000
  C   C2102     1.0  0.88935  0.37956  0.41913  1.0000
  C   C2103     1.0  0.89267  0.39874  0.44131  1.0000
  C   C2104     1.0  0.87258  0.39022  0.43135  1.0000
  C   C2105     1.0  0.89066  0.40055  0.37240  1.0000
  C   C2106     1.0  0.90221  0.39857  0.34374  1.0000
  C   C2107     1.0  0.88209  0.37089  0.39918  1.0000
  C   C2108     1.0  0.86783  0.40218  0.43478  1.0000
  C   C2109     1.0  0.90712  0.40273  0.42884  1.0000
  C   C2110     1.0  0.91186  0.40874  0.45869  1.0000
  C   C2111     1.0  0.90609  0.40841  0.30314  1.0000
  C   C2112     1.0  0.88891  0.36106  0.38846  1.0000
  C   C2113     1.0  0.85392  0.40008  0.43757  1.0000
  H   H3704     1.0  0.88697  0.37425  0.45126  1.0000
  H   H3705     1.0  0.89952  0.38043  0.40779  1.0000
  H   H3706     1.0  0.88975  0.40757  0.44285  1.0000
  H   H3707     1.0  0.88956  0.39247  0.47238  1.0000
  H   H3708     1.0  0.86911  0.38329  0.46154  1.0000
  H   H3709     1.0  0.86762  0.38582  0.41245  1.0000
  H   H3710     1.0  0.88294  0.39916  0.35805  1.0000
  H   H3711     1.0  0.89257  0.41072  0.37169  1.0000
  H   H3712     1.0  0.90006  0.38919  0.33820  1.0000
  H   H3713     1.0  0.91037  0.39905  0.35590  1.0000
  H   H3714     1.0  0.87274  0.36579  0.42016  1.0000
  H   H3715     1.0  0.88053  0.37637  0.37163  1.0000
  H   H3716     1.0  0.87294  0.41045  0.40885  1.0000
  H   H3717     1.0  0.86913  0.40459  0.46225  1.0000
  H   H3718     1.0  0.91120  0.39456  0.42719  1.0000
  H   H3719     1.0  0.91061  0.41002  0.39968  1.0000
  H   H3720     1.0  0.92224  0.41137  0.44960  1.0000
  H   H3721     1.0  0.90850  0.41737  0.45989  1.0000
  H   H3722     1.0  0.90852  0.40203  0.48900  1.0000
  H   H3723     1.0  0.91460  0.40704  0.28378  1.0000
  H   H3724     1.0  0.89851  0.40739  0.28824  1.0000
  H   H3725     1.0  0.90820  0.41811  0.30647  1.0000
  H   H3726     1.0  0.89047  0.35517  0.41533  1.0000
  H   H3727     1.0  0.88318  0.35476  0.37584  1.0000
  H   H3728     1.0  0.89809  0.36571  0.36599  1.0000
  H   H3729     1.0  0.85059  0.40828  0.44414  1.0000
  H   H3730     1.0  0.85228  0.39907  0.40892  1.0000
  H   H3731     1.0  0.84842  0.39148  0.46186  1.0000
  H   H3732     1.0  0.92057  0.45395  0.52261  1.0000
  H   H3733     1.0  0.96696  0.41522  0.52099  1.0000
  H   H3734     1.0  0.87510  0.38454  0.21055  1.0000
  H   H3735     1.0  0.95546  0.46702  0.49287  1.0000
  H   H3736     1.0  0.81170  0.40024  0.62695  1.0000
  H   H3737     1.0  0.91601  0.45453  0.46667  1.0000
  H   H3738     1.0  0.86122  0.35811  0.06519  1.0000
  H   H3739     1.0  0.95309  0.44764  0.28529  1.0000
  H   H3740     1.0  0.90640  0.29372  0.67270  1.0000
  C   C2114     1.0  0.80536  0.29887  0.53041  1.0000
  H   H3741     1.0  0.93818  0.42450  0.26791  1.0000
  H   H3742     1.0  0.88385  0.48145  0.99462  1.0000
  H   H3743     1.0  0.96190  0.46769  0.25670  1.0000
  H   H3744     1.0  0.89959  0.29338  0.72367  1.0000
  H   H3745     1.0  0.93607  0.43305  0.34433  1.0000
  H   H3746     1.0  0.81523  0.42894  0.19756  1.0000
  N   N115      1.0  0.80517  0.37790  0.99169  1.0000
  H   H3747     1.0  0.81314  0.28073  0.05840  1.0000
  N   N116      1.0  0.89132  0.38481  0.07579  1.0000
  H   H3748     1.0  0.83036  0.41463  0.93666  1.0000
  C   C2115     1.0  0.92768  0.46101  0.58607  1.0000
  C   C2116     1.0  0.95247  0.40050  0.19619  1.0000
  H   H3749     1.0  0.96554  0.48543  0.19574  1.0000
  H   H3750     1.0  0.93522  0.46985  0.57192  1.0000
  H   H3751     1.0  0.79537  0.47092  0.85229  1.0000
  C   C2117     1.0  0.98400  0.45707  0.06308  1.0000
  C   C2118     1.0  0.91165  0.38090  0.09325  1.0000
  H   H3752     1.0  0.87411  0.36995  0.10151  1.0000
  H   H3753     1.0  0.89605  0.48879  0.03735  1.0000
  C   C2119     1.0  0.79660  0.29048  0.01913  1.0000
  C   C2120     1.0  0.95957  0.44375  0.15400  1.0000
  H   H3754     1.0  0.82187  0.37115  0.97903  1.0000
  H   H3755     1.0  0.79824  0.46566  0.93352  1.0000
  C   C2121     1.0  0.89770  0.39433  0.03555  1.0000
  C   C2122     1.0  0.88160  0.38296  0.15049  1.0000
  H   H3756     1.0  0.79911  0.42623  0.22203  1.0000
  C   C2123     1.0  0.80356  0.36000  0.58807  1.0000
  H   H3757     1.0  0.81371  0.41414  0.30246  1.0000
  H   H3758     1.0  0.90831  0.42045  0.97906  1.0000
  C   C2124     1.0  0.97806  0.45460  0.38431  1.0000
  C   C2125     1.0  0.93046  0.45431  0.52220  1.0000
  H   H3759     1.0  0.95619  0.49183  0.36345  1.0000
  H   H3760     1.0  0.79520  0.32286  0.48024  1.0000
  H   H3761     1.0  0.81172  0.37195  0.04346  1.0000
  H   H3762     1.0  0.79907  0.40623  0.26805  1.0000
  H   H3763     1.0  0.82248  0.42010  0.14719  1.0000
  H   H3764     1.0  0.88658  0.39596  0.62496  1.0000
  H   H3765     1.0  0.80773  0.39530  0.13952  1.0000
  C   C2126     1.0  0.92199  0.45010  0.44809  1.0000
  H   H3766     1.0  0.96708  0.43026  0.25057  1.0000
  H   H3767     1.0  0.94457  0.42173  0.94019  1.0000
  S   S490      1.0  0.96307  0.44542  0.99437  1.0000
  C   C2127     1.0  0.87998  0.37063  0.03989  1.0000
  C   C2128     1.0  0.95855  0.46008  0.47775  1.0000
  C   C2129     1.0  0.80058  0.25790  0.17720  1.0000
  C   C2130     1.0  0.81308  0.39134  0.97903  1.0000
  H   H3768     1.0  0.92427  0.49245  0.92930  1.0000
  H   H3769     1.0  0.89695  0.39764  0.10941  1.0000
  H   H3770     1.0  0.91849  0.38664  0.06463  1.0000
  H   H3771     1.0  0.81345  0.28271  0.94121  1.0000
  H   H3772     1.0  0.81741  0.39934  0.49126  1.0000
  C   C2131     1.0  0.96744  0.39643  0.55331  1.0000
  H   H3773     1.0  0.95685  0.43917  0.10022  1.0000
  C   C2132     1.0  0.89771  0.29382  0.69434  1.0000
  H   H3774     1.0  0.92309  0.44192  0.58312  1.0000
  H   H3775     1.0  0.94920  0.42437  0.29676  1.0000
  H   H3776     1.0  0.80866  0.41029  0.10565  1.0000
  H   H3777     1.0  0.85406  0.47429  0.02689  1.0000
  H   H3778     1.0  0.92442  0.48821  0.84197  1.0000
  H   H3779     1.0  0.95388  0.42766  0.88860  1.0000
  H   H3780     1.0  0.83010  0.38621  0.42531  1.0000
  H   H3781     1.0  0.89118  0.37208  0.79115  1.0000
  C   C2133     1.0  0.96529  0.40621  0.18470  1.0000
  H   H3782     1.0  0.89024  0.28534  0.69798  1.0000
  C   C2134     1.0  0.93159  0.47539  0.88089  1.0000
  H   H3783     1.0  0.88687  0.39164  0.67641  1.0000
  H   H3784     1.0  0.85636  0.36944  0.81614  1.0000
  C   C2135     1.0  0.81964  0.40431  0.59946  1.0000
  N   N117      1.0  0.95954  0.44562  0.22578  1.0000
  H   H3785     1.0  0.97259  0.44439  0.26153  1.0000
  C   C2136     1.0  0.95209  0.39910  0.26592  1.0000
  C   C2137     1.0  0.86001  0.47117  0.04600  1.0000
  H   H3786     1.0  0.81003  0.45412  0.08351  1.0000
  C   C2138     1.0  0.93330  0.48620  0.45460  1.0000
  C   C2139     1.0  0.97010  0.44066  0.23727  1.0000
  H   H3787     1.0  0.88697  0.37614  0.16038  1.0000
  C   C2140     1.0  0.81448  0.41157  0.15982  1.0000
  C   C2141     1.0  0.81310  0.42054  0.27475  1.0000
  C   C2142     1.0  0.81114  0.33006  0.88968  1.0000
  H   H3788     1.0  0.98212  0.44211  0.03499  1.0000
  H   H3789     1.0  0.79231  0.40690  0.90338  1.0000
  H   H3790     1.0  0.81419  0.36636  0.52721  1.0000
  H   H3791     1.0  0.80837  0.44941  0.85908  1.0000
  C   C2143     1.0  0.94587  0.39722  0.23689  1.0000
  C   C2144     1.0  0.90688  0.40660  0.03447  1.0000
  H   H3792     1.0  0.79098  0.25157  0.18984  1.0000
  H   H3793     1.0  0.81883  0.38911  0.39820  1.0000
  C   C2145     1.0  0.88835  0.39151  0.10752  1.0000
  H   H3794     1.0  0.87272  0.38386  0.06882  1.0000
  H   H3795     1.0  0.86813  0.36003  0.01310  1.0000
  H   H3796     1.0  0.80675  0.31170  0.88112  1.0000
  S   S491      1.0  0.97375  0.40505  0.28992  1.0000
  H   H3797     1.0  0.79130  0.29037  0.92299  1.0000
  H   H3798     1.0  0.97124  0.45723  0.51468  1.0000
  H   H3799     1.0  0.80329  0.29561  0.42614  1.0000
  H   H3800     1.0  0.81670  0.28102  0.13005  1.0000
  H   H3801     1.0  0.81480  0.41641  0.93882  1.0000
  H   H3802     1.0  0.80666  0.33780  0.89458  1.0000
  H   H3803     1.0  0.95036  0.44274  0.52492  1.0000
  C   C2146     1.0  0.79704  0.38100  0.06154  1.0000
  C   C2147     1.0  0.79992  0.34594  0.59087  1.0000
  H   H3804     1.0  0.81538  0.32708  0.91427  1.0000
  H   H3805     1.0  0.81874  0.33372  0.86123  1.0000
  H   H3806     1.0  0.79772  0.32202  0.86225  1.0000
  H   H3807     1.0  0.94064  0.44738  0.43442  1.0000
  H   H3808     1.0  0.79328  0.27089  0.20802  1.0000
  C   C2148     1.0  0.79956  0.28349  0.99222  1.0000
  N   N118      1.0  0.84859  0.38470  0.69120  1.0000
  C   C2149     1.0  0.84729  0.38439  0.73434  1.0000
  C   C2150     1.0  0.84246  0.39441  0.67199  1.0000
  C   C2151     1.0  0.84169  0.37186  0.69081  1.0000
  C   C2152     1.0  0.86205  0.38703  0.66774  1.0000
  C   C2153     1.0  0.87112  0.39930  0.66688  1.0000
  C   C2154     1.0  0.85305  0.37478  0.75806  1.0000
  C   C2155     1.0  0.84086  0.37038  0.64932  1.0000
  C   C2156     1.0  0.84294  0.40659  0.68591  1.0000
  C   C2157     1.0  0.83635  0.41535  0.66375  1.0000
  C   C2158     1.0  0.88473  0.39867  0.65330  1.0000
  C   C2159     1.0  0.85193  0.37618  0.80007  1.0000
  C   C2160     1.0  0.83196  0.35782  0.65366  1.0000
  H   H3809     1.0  0.83720  0.38233  0.75071  1.0000
  H   H3810     1.0  0.85155  0.39374  0.73718  1.0000
  H   H3811     1.0  0.84649  0.39743  0.63892  1.0000
  H   H3812     1.0  0.83230  0.39017  0.67741  1.0000
  H   H3813     1.0  0.83197  0.36928  0.71089  1.0000
  H   H3814     1.0  0.84616  0.36439  0.70278  1.0000
  H   H3815     1.0  0.86586  0.37883  0.67826  1.0000
  H   H3816     1.0  0.86273  0.38755  0.63589  1.0000
  H   H3817     1.0  0.86975  0.40121  0.69629  1.0000
  H   H3818     1.0  0.86981  0.40742  0.64531  1.0000
  H   H3819     1.0  0.84813  0.36492  0.76146  1.0000
  H   H3820     1.0  0.86313  0.37626  0.74328  1.0000
  H   H3821     1.0  0.85019  0.37051  0.63071  1.0000
  H   H3822     1.0  0.83740  0.37797  0.63284  1.0000
  H   H3823     1.0  0.83797  0.40431  0.71809  1.0000
  H   H3824     1.0  0.85270  0.41185  0.68103  1.0000
  H   H3825     1.0  0.83783  0.42447  0.67142  1.0000
  H   H3826     1.0  0.84007  0.41735  0.63093  1.0000
  C   C2161     1.0  0.88864  0.39582  0.79399  1.0000
  H   H3827     1.0  0.79791  0.36423  0.53341  1.0000
  C   C2162     1.0  0.95411  0.43844  0.19989  1.0000
  H   H3828     1.0  0.82779  0.40057  0.60381  1.0000
  H   H3829     1.0  0.97348  0.37506  0.56652  1.0000
  H   H3830     1.0  0.98137  0.41237  0.20453  1.0000
  H   H3831     1.0  0.83104  0.40003  0.12030  1.0000
  H   H3832     1.0  0.82850  0.30250  0.93719  1.0000
  H   H3833     1.0  0.92308  0.36483  0.01777  1.0000
  S   S492      1.0  0.94192  0.41113  0.05403  1.0000
  C   C2163     1.0  0.96352  0.45964  0.20538  1.0000
  H   H3834     1.0  0.92457  0.40431  0.58275  1.0000
  H   H3835     1.0  0.90768  0.37458  0.78660  1.0000
  C   C2164     1.0  0.97136  0.47163  0.34714  1.0000
  H   H3836     1.0  0.82256  0.42674  0.25836  1.0000
  H   H3837     1.0  0.85393  0.46659  0.07690  1.0000
  H   H3838     1.0  0.96173  0.38939  0.58171  1.0000
  H   H3839     1.0  0.90837  0.39637  0.79377  1.0000
  H   H3840     1.0  0.92028  0.40659  0.53679  1.0000
  H   H3841     1.0  0.91547  0.45083  0.03445  1.0000
  C   C2165     1.0  0.89909  0.37743  0.79910  1.0000
  C   C2166     1.0  0.92836  0.47986  0.84173  1.0000
  H   H3842     1.0  0.98098  0.48325  0.17698  1.0000
  H   H3843     1.0  0.80333  0.35124  0.01223  1.0000
  C   C2167     1.0  0.90103  0.39165  0.78242  1.0000
  H   H3844     1.0  0.89090  0.40933  0.84394  1.0000
  H   H3845     1.0  0.91063  0.42945  0.84581  1.0000
  H   H3846     1.0  0.93480  0.43866  0.99304  1.0000
  H   H3847     1.0  0.92021  0.43698  0.05572  1.0000
  S   S493      1.0  0.93294  0.39238  0.98013  1.0000
  C   C2168     1.0  0.92159  0.41096  0.56093  1.0000
  H   H3848     1.0  0.90469  0.39390  0.74952  1.0000
  C   C2169     1.0  0.91875  0.44258  0.02808  1.0000
  H   H3849     1.0  0.93763  0.45356  0.00416  1.0000
  H   H3850     1.0  0.90347  0.44255  0.84042  1.0000
  H   H3851     1.0  0.90558  0.41345  0.80840  1.0000
  H   H3852     1.0  0.90592  0.42740  0.65890  1.0000
  H   H3853     1.0  0.95887  0.48078  0.86593  1.0000
  H   H3854     1.0  0.79080  0.42706  0.16897  1.0000
  C   C2170     1.0  0.90179  0.43222  0.84453  1.0000
  C   C2171     1.0  0.93105  0.44700  0.99482  1.0000
  H   H3855     1.0  0.91140  0.43662  0.01967  1.0000
  C   C2172     1.0  0.89599  0.41488  0.81256  1.0000
  C   C2173     1.0  0.81176  0.38556  0.46218  1.0000
  Fe  Fe246     1.0  0.79035  0.41608  0.44153  1.0000
  H   H3856     1.0  0.79872  0.35490  0.96653  1.0000
  N   N119      1.0  0.88989  0.40994  0.78385  1.0000
  N   N120      1.0  0.79496  0.44875  0.91372  1.0000
  C   C2174     1.0  0.79293  0.27084  0.12600  1.0000
  H   H3857     1.0  0.81237  0.36185  0.59692  1.0000
  H   H3858     1.0  0.79614  0.36195  0.61008  1.0000
  C   C2175     1.0  0.96143  0.47582  0.89225  1.0000
  H   H3859     1.0  0.89451  0.42733  0.87326  1.0000
  C   C2176     1.0  0.87694  0.41207  0.78805  1.0000
  H   H3860     1.0  0.94045  0.42143  0.53010  1.0000
  C   C2177     1.0  0.98019  0.46786  0.06845  1.0000
  C   C2178     1.0  0.89741  0.42903  0.80984  1.0000
  H   H3861     1.0  0.95520  0.45141  0.88696  1.0000
  H   H3862     1.0  0.80280  0.30693  0.03810  1.0000
  C   C2179     1.0  0.80159  0.31886  0.88754  1.0000
  C   C2180     1.0  0.79160  0.32493  0.45368  1.0000
  H   H3863     1.0  0.80874  0.37521  0.46720  1.0000
  H   H3864     1.0  0.95184  0.40427  0.54440  1.0000
  C   C2181     1.0  0.93588  0.48804  0.02456  1.0000
  H   H3865     1.0  0.79669  0.36316  0.04758  1.0000
  H   H3866     1.0  0.88435  0.39135  0.82660  1.0000
  H   H3867     1.0  0.88215  0.39129  0.77910  1.0000
  H   H3868     1.0  0.89727  0.37489  0.83202  1.0000
  C   C2182     1.0  0.83156  0.29000  0.05803  1.0000
  H   H3869     1.0  0.91251  0.41241  0.57630  1.0000
  H   H3870     1.0  0.90798  0.41734  0.73972  1.0000
  H   H3871     1.0  0.88846  0.43175  0.81096  1.0000
  C   C2183     1.0  0.80280  0.37287  0.03620  1.0000
  H   H3872     1.0  0.79566  0.33505  0.43708  1.0000
  C   C2184     1.0  0.94503  0.49317  0.45449  1.0000
  H   H3873     1.0  0.80455  0.38901  0.06104  1.0000
  C   C2185     1.0  0.79876  0.42420  0.15211  1.0000
  H   H3874     1.0  0.87112  0.41091  0.85205  1.0000
  C   C2186     1.0  0.81289  0.38682  0.56863  1.0000
  C   C2187     1.0  0.81468  0.30681  0.49647  1.0000
  Fe  Fe247     1.0  0.96044  0.42459  0.01975  1.0000
  H   H3875     1.0  0.89613  0.40913  0.72282  1.0000
  H   H3876     1.0  0.87724  0.42228  0.77915  1.0000
  C   C2188     1.0  0.89787  0.41576  0.74107  1.0000
  H   H3877     1.0  0.90459  0.43490  0.78199  1.0000
  H   H3878     1.0  0.95020  0.44416  0.93840  1.0000
  S   S494      1.0  0.95694  0.38877  0.05606  1.0000
  C   C2189     1.0  0.79543  0.28980  0.52679  1.0000
  C   C2190     1.0  0.78901  0.41247  0.92372  1.0000
  H   H3879     1.0  0.97783  0.37626  0.11789  1.0000
  H   H3880     1.0  0.79626  0.44187  0.09048  1.0000
  H   H3881     1.0  0.95743  0.42596  0.13825  1.0000
  H   H3882     1.0  0.80586  0.29964  0.55958  1.0000
  C   C2191     1.0  0.86763  0.40665  0.83028  1.0000
  C   C2192     1.0  0.81675  0.30607  0.98749  1.0000
  H   H3883     1.0  0.78847  0.28369  0.55346  1.0000
  Fe  Fe248     1.0  0.94702  0.39864  0.01466  1.0000
  H   H3884     1.0  0.93842  0.41735  0.90183  1.0000
  C   C2193     1.0  0.92910  0.45359  0.95443  1.0000
  H   H3885     1.0  0.92145  0.44721  0.94845  1.0000
  H   H3886     1.0  0.80401  0.25795  0.07976  1.0000
  H   H3887     1.0  0.95717  0.45285  0.14344  1.0000
  H   H3888     1.0  0.80478  0.42805  0.89123  1.0000
  C   C2194     1.0  0.81961  0.29925  0.95990  1.0000
  H   H3889     1.0  0.89565  0.43533  0.73416  1.0000
  H   H3890     1.0  0.88539  0.37711  0.01026  1.0000
  H   H3891     1.0  0.85591  0.41991  0.82336  1.0000
  H   H3892     1.0  0.92519  0.46157  0.95975  1.0000
  H   H3893     1.0  0.97718  0.46540  0.23731  1.0000
  C   C2195     1.0  0.81370  0.30546  0.45894  1.0000
  H   H3894     1.0  0.86605  0.39626  0.84090  1.0000
  C   C2196     1.0  0.89572  0.42820  0.71741  1.0000
  C   C2197     1.0  0.81281  0.37032  0.97123  1.0000
  H   H3895     1.0  0.98053  0.43716  0.18317  1.0000
  C   C2198     1.0  0.93152  0.42350  0.54389  1.0000
  H   H3896     1.0  0.79616  0.39545  0.21633  1.0000
  C   C2199     1.0  0.85497  0.40957  0.83013  1.0000
  C   C2200     1.0  0.81596  0.27290  0.11722  1.0000
  S   S495      1.0  0.95668  0.44779  0.36299  1.0000
  C   C2201     1.0  0.80272  0.25390  0.11224  1.0000
  C   C2202     1.0  0.94669  0.44781  0.91275  1.0000
  H   H3897     1.0  0.95469  0.42841  0.20838  1.0000
  S   S496      1.0  0.93328  0.39022  0.48901  1.0000
  H   H3898     1.0  0.88658  0.42619  0.71065  1.0000
  C   C2203     1.0  0.98160  0.48038  0.34928  1.0000
  C   C2204     1.0  0.97898  0.45029  0.03953  1.0000
  C   C2205     1.0  0.88011  0.39084  0.18015  1.0000
  C   C2206     1.0  0.80515  0.30166  0.01686  1.0000
  H   H3899     1.0  0.84817  0.40501  0.85988  1.0000
  H   H3900     1.0  0.85117  0.40593  0.80778  1.0000
  H   H3901     1.0  0.89238  0.31392  0.50934  1.0000
  H   H3902     1.0  0.87735  0.31764  0.51397  1.0000
  H   H3903     1.0  0.93278  0.42729  0.56902  1.0000
  N   N121      1.0  0.94058  0.45833  0.91902  1.0000
  C   C2207     1.0  0.88219  0.31032  0.52433  1.0000
  C   C2208     1.0  0.94427  0.42518  0.90890  1.0000
  H   H3904     1.0  0.90370  0.44273  0.66115  1.0000
  H   H3905     1.0  0.96035  0.41123  0.57437  1.0000
  H   H3906     1.0  0.97952  0.39196  0.08769  1.0000
  C   C2209     1.0  0.80794  0.45328  0.88521  1.0000
  H   H3907     1.0  0.80671  0.42647  0.28348  1.0000
  H   H3908     1.0  0.97805  0.49087  0.87953  1.0000
  H   H3909     1.0  0.88779  0.34933  0.66354  1.0000
  C   C2210     1.0  0.90578  0.43407  0.67757  1.0000
  H   H3910     1.0  0.87862  0.30182  0.51531  1.0000
  H   H3911     1.0  0.88659  0.34313  0.58503  1.0000
  H   H3912     1.0  0.81536  0.43401  0.10178  1.0000
  H   H3913     1.0  0.89436  0.32313  0.56466  1.0000
  C   C2211     1.0  0.93858  0.43657  0.90411  1.0000
  H   H3914     1.0  0.92928  0.45617  0.87867  1.0000
  C   C2212     1.0  0.96901  0.46818  0.22909  1.0000
  C   C2213     1.0  0.81748  0.39801  0.93346  1.0000
  H   H3915     1.0  0.82844  0.29784  0.06821  1.0000
  H   H3916     1.0  0.79501  0.41984  0.13096  1.0000
  C   C2214     1.0  0.80374  0.29642  0.45531  1.0000
  H   H3917     1.0  0.95695  0.36463  0.62911  1.0000
  H   H3918     1.0  0.81017  0.27412  0.19422  1.0000
  S   S497      1.0  0.94874  0.41121  0.37679  1.0000
  C   C2215     1.0  0.96954  0.45875  0.36495  1.0000
  H   H3919     1.0  0.87896  0.32534  0.57411  1.0000
  H   H3920     1.0  0.89995  0.35505  0.61650  1.0000
  C   C2216     1.0  0.88452  0.31860  0.58321  1.0000
  C   C2217     1.0  0.91392  0.41436  0.99168  1.0000
  H   H3921     1.0  0.78875  0.45631  0.02555  1.0000
  H   H3922     1.0  0.81067  0.24949  0.11447  1.0000
  C   C2218     1.0  0.80564  0.36826  0.54493  1.0000
  C   C2219     1.0  0.89358  0.30587  0.68014  1.0000
  H   H3923     1.0  0.90004  0.33177  0.61639  1.0000
  C   C2220     1.0  0.88430  0.34016  0.61801  1.0000
  H   H3924     1.0  0.88422  0.29921  0.57826  1.0000
  C   C2221     1.0  0.93675  0.46347  0.88214  1.0000
  C   C2222     1.0  0.94970  0.46836  0.92720  1.0000
  C   C2223     1.0  0.88969  0.35166  0.63059  1.0000
  H   H3925     1.0  0.92291  0.47334  0.90540  1.0000
  H   H3926     1.0  0.83174  0.41486  0.08566  1.0000
  C   C2224     1.0  0.80271  0.44612  0.10580  1.0000
  H   H3927     1.0  0.87462  0.39776  0.17198  1.0000
  C   C2225     1.0  0.80640  0.42140  0.21119  1.0000
  C   C2226     1.0  0.81108  0.28800  0.96241  1.0000
  S   S498      1.0  0.96496  0.41314  0.97756  1.0000
  H   H3928     1.0  0.86938  0.30342  0.58254  1.0000
  C   C2227     1.0  0.89140  0.30724  0.63827  1.0000
  H   H3929     1.0  0.95544  0.46295  0.19782  1.0000
  H   H3930     1.0  0.94395  0.43805  0.20503  1.0000
  H   H3931     1.0  0.83938  0.28794  0.07016  1.0000
  Fe  Fe249     1.0  0.95042  0.40177  0.43709  1.0000
  H   H3932     1.0  0.92751  0.41865  0.33906  1.0000
  C   C2228     1.0  0.88985  0.32891  0.63229  1.0000
  H   H3933     1.0  0.90080  0.31010  0.61616  1.0000
  H   H3934     1.0  0.88529  0.35943  0.62076  1.0000
  C   C2229     1.0  0.85022  0.29493  0.68684  1.0000
  N   N122      1.0  0.88378  0.31644  0.62696  1.0000
  H   H3935     1.0  0.94469  0.46556  0.85489  1.0000
  H   H3936     1.0  0.87402  0.33752  0.63054  1.0000
  H   H3937     1.0  0.94492  0.47527  0.93804  1.0000
  C   C2230     1.0  0.79448  0.28842  0.48926  1.0000
  C   C2231     1.0  0.97341  0.48202  0.20437  1.0000
  H   H3938     1.0  0.82184  0.38399  0.56744  1.0000
  H   H3939     1.0  0.83840  0.45111  0.88581  1.0000
  C   C2232     1.0  0.80665  0.35610  0.97986  1.0000
  C   C2233     1.0  0.87003  0.48243  0.04549  1.0000
  Fe  Fe250     1.0  0.95278  0.40219  0.09331  1.0000
  H   H3940     1.0  0.86426  0.31659  0.63571  1.0000
  H   H3941     1.0  0.91607  0.48558  0.54612  1.0000
  H   H3942     1.0  0.96721  0.46946  0.88314  1.0000
  H   H3943     1.0  0.82988  0.44618  0.85279  1.0000
  H   H3944     1.0  0.80779  0.40521  0.56059  1.0000
  H   H3945     1.0  0.82394  0.40621  0.53715  1.0000
  H   H3946     1.0  0.91862  0.46301  0.58333  1.0000
  Fe  Fe251     1.0  0.97443  0.40450  0.02151  1.0000
  C   C2234     1.0  0.83088  0.45277  0.87148  1.0000
  C   C2235     1.0  0.93049  0.45070  0.56647  1.0000
  H   H3947     1.0  0.97044  0.40905  0.15351  1.0000
  H   H3948     1.0  0.93964  0.44933  0.57001  1.0000
  H   H3949     1.0  0.97157  0.38405  0.63053  1.0000
  C   C2236     1.0  0.96130  0.40750  0.54795  1.0000
  C   C2237     1.0  0.98118  0.40090  0.55413  1.0000
  C   C2238     1.0  0.95402  0.43466  0.13280  1.0000
  H   H3950     1.0  0.97063  0.46183  0.17635  1.0000
  H   H3951     1.0  0.93850  0.48332  0.88354  1.0000
  C   C2239     1.0  0.80881  0.43634  0.12563  1.0000
  H   H3952     1.0  0.82403  0.27102  0.05773  1.0000
  H   H3953     1.0  0.82527  0.39448  0.91861  1.0000
  H   H3954     1.0  0.80781  0.39734  0.99302  1.0000
  H   H3955     1.0  0.88716  0.29770  0.63667  1.0000
  H   H3956     1.0  0.79542  0.30846  0.94966  1.0000
  C   C2240     1.0  0.87030  0.31221  0.65232  1.0000
  S   S499      1.0  0.98631  0.47623  0.09831  1.0000
  H   H3957     1.0  0.86437  0.46406  0.03509  1.0000
  C   C2241     1.0  0.82069  0.27824  0.07108  1.0000
  H   H3958     1.0  0.90108  0.31400  0.67891  1.0000
  H   H3959     1.0  0.93594  0.39286  0.24614  1.0000
  H   H3960     1.0  0.82040  0.45692  0.92241  1.0000
  H   H3961     1.0  0.97823  0.46880  0.46685  1.0000
  H   H3962     1.0  0.93535  0.46443  0.50855  1.0000
  C   C2242     1.0  0.86431  0.29775  0.66819  1.0000
  C   C2243     1.0  0.81595  0.38897  0.49767  1.0000
  H   H3963     1.0  0.86916  0.31578  0.67925  1.0000
  H   H3964     1.0  0.80903  0.25500  0.24640  1.0000
  H   H3965     1.0  0.84622  0.28457  0.69854  1.0000
  H   H3966     1.0  0.86585  0.29291  0.64454  1.0000
  H   H3967     1.0  0.82475  0.40013  0.07830  1.0000
  H   H3968     1.0  0.90151  0.37124  0.06094  1.0000
  C   C2244     1.0  0.81865  0.45051  0.90368  1.0000
  C   C2245     1.0  0.93217  0.42871  0.32337  1.0000
  H   H3969     1.0  0.92852  0.42844  0.48672  1.0000
  C   C2246     1.0  0.94255  0.42953  0.28660  1.0000
  C   C2247     1.0  0.92791  0.43284  0.51187  1.0000
  H   H3970     1.0  0.81644  0.44066  0.92261  1.0000
  C   C2248     1.0  0.97532  0.37597  0.62482  1.0000
  H   H3971     1.0  0.91781  0.43256  0.52329  1.0000
  H   H3972     1.0  0.92844  0.45167  0.38461  1.0000
  S   S500      1.0  0.94439  0.39711  0.16102  1.0000
  H   H3973     1.0  0.92729  0.46643  0.39584  1.0000
  H   H3974     1.0  0.92713  0.45794  0.61824  1.0000
  H   H3975     1.0  0.84819  0.29921  0.71195  1.0000
  H   H3976     1.0  0.86835  0.29336  0.69167  1.0000
  H   H3977     1.0  0.94773  0.48570  0.33216  1.0000
  C   C2249     1.0  0.81589  0.40125  0.56370  1.0000
  C   C2250     1.0  0.92412  0.48752  0.52071  1.0000
  H   H3978     1.0  0.87306  0.49021  0.98241  1.0000
  C   C2251     1.0  0.97149  0.40803  0.21371  1.0000
  C   C2252     1.0  0.94932  0.44351  0.26366  1.0000
  H   H3979     1.0  0.91513  0.43677  0.68246  1.0000
  H   H3980     1.0  0.91713  0.43999  0.45533  1.0000
  C   C2253     1.0  0.81322  0.40526  0.12625  1.0000
  H   H3981     1.0  0.84557  0.29873  0.66423  1.0000
  H   H3982     1.0  0.92513  0.43361  0.31471  1.0000
  H   H3983     1.0  0.88502  0.30573  0.70273  1.0000
  S   S501      1.0  0.97080  0.41677  0.06185  1.0000
  Fe  Fe252     1.0  0.95998  0.42870  0.38420  1.0000
  S   S502      1.0  0.96013  0.41991  0.44663  1.0000
  C   C2254     1.0  0.87906  0.37746  0.07325  1.0000
  N   N123      1.0  0.93570  0.44637  0.49702  1.0000
  H   H3984     1.0  0.86227  0.37258  0.02809  1.0000
  H   H3985     1.0  0.91333  0.45486  0.40043  1.0000
  C   C2255     1.0  0.91729  0.37029  0.11043  1.0000
  C   C2256     1.0  0.92287  0.45615  0.40450  1.0000
  C   C2257     1.0  0.93520  0.45178  0.45493  1.0000
  H   H3986     1.0  0.98562  0.45314  0.18571  1.0000
  H   H3987     1.0  0.89347  0.36746  0.11176  1.0000
  H   H3988     1.0  0.81533  0.37416  0.93826  1.0000
  H   H3989     1.0  0.87208  0.37768  0.15246  1.0000
  N   N124      1.0  0.80708  0.38235  0.53859  1.0000
  C   C2258     1.0  0.97151  0.45949  0.48265  1.0000
  H   H3990     1.0  0.80979  0.39631  0.91942  1.0000
  H   H3991     1.0  0.91108  0.36434  0.13999  1.0000
  S   S503      1.0  0.97861  0.42603  0.35613  1.0000
  H   H3992     1.0  0.95962  0.46372  0.44535  1.0000
  H   H3993     1.0  0.97491  0.45222  0.46976  1.0000
  H   H3994     1.0  0.93971  0.46209  0.44413  1.0000
  H   H3995     1.0  0.95267  0.44079  0.47658  1.0000
  H   H3996     1.0  0.86513  0.48911  0.05685  1.0000
  S   S504      1.0  0.96881  0.39721  0.41249  1.0000
  C   C2259     1.0  0.80077  0.25903  0.24691  1.0000
  H   H3997     1.0  0.96109  0.36252  0.67543  1.0000
  H   H3998     1.0  0.82591  0.40125  0.41748  1.0000
  H   H3999     1.0  0.83374  0.46266  0.85221  1.0000
  H   H4000     1.0  0.81480  0.40701  0.24142  1.0000
  H   H4001     1.0  0.88248  0.39806  0.09915  1.0000
  H   H4002     1.0  0.80226  0.29099  0.10023  1.0000
  H   H4003     1.0  0.82289  0.26791  0.12673  1.0000
  H   H4004     1.0  0.98309  0.49032  0.33503  1.0000
  C   C2260     1.0  0.82600  0.40507  0.10125  1.0000
  C   C2261     1.0  0.80814  0.41275  0.24911  1.0000
  H   H4005     1.0  0.94364  0.43206  0.14318  1.0000
  C   C2262     1.0  0.86705  0.36502  0.03662  1.0000
  H   H4006     1.0  0.79602  0.39604  0.52898  1.0000
  C   C2263     1.0  0.79161  0.43463  0.93234  1.0000
  H   H4007     1.0  0.88941  0.39597  0.18078  1.0000
  H   H4008     1.0  0.96677  0.39204  0.52896  1.0000
  H   H4009     1.0  0.82231  0.41474  0.59403  1.0000
  N   N125      1.0  0.80298  0.26419  0.13325  1.0000
  C   C2264     1.0  0.79241  0.40336  0.20288  1.0000
  H   H4010     1.0  0.80715  0.25176  0.18140  1.0000
  H   H4011     1.0  0.80695  0.38214  0.59952  1.0000
  H   H4012     1.0  0.81134  0.33921  0.96754  1.0000
  H   H4013     1.0  0.82537  0.38716  0.49646  1.0000
  H   H4014     1.0  0.81432  0.44089  0.14274  1.0000
  H   H4015     1.0  0.83503  0.29316  0.02494  1.0000
  H   H4016     1.0  0.81036  0.46370  0.87229  1.0000
  C   C2265     1.0  0.96963  0.48576  0.90474  1.0000
  H   H4017     1.0  0.79151  0.27094  0.09615  1.0000
  H   H4018     1.0  0.96822  0.35558  0.63823  1.0000
  N   N126      1.0  0.80300  0.41498  0.18075  1.0000
  H   H4019     1.0  0.79477  0.31914  0.43389  1.0000
  C   C2266     1.0  0.79454  0.45525  0.94630  1.0000
  H   H4020     1.0  0.80385  0.38971  0.45752  1.0000
  H   H4021     1.0  0.87520  0.47887  0.06673  1.0000
  C   C2267     1.0  0.92753  0.49097  0.95569  1.0000
  H   H4022     1.0  0.93237  0.48295  0.42900  1.0000
  H   H4023     1.0  0.97499  0.38840  0.14157  1.0000
  H   H4024     1.0  0.97267  0.48122  0.93066  1.0000
  C   C2268     1.0  0.87906  0.48870  0.00283  1.0000
  H   H4025     1.0  0.93895  0.48686  0.05136  1.0000
  H   H4026     1.0  0.79730  0.44984  0.12850  1.0000
  C   C2269     1.0  0.79324  0.37786  0.97929  1.0000
  H   H4027     1.0  0.96444  0.49271  0.91303  1.0000
  C   C2270     1.0  0.79095  0.37338  0.10507  1.0000
  H   H4028     1.0  0.98257  0.37502  0.64089  1.0000
  H   H4029     1.0  0.78991  0.38495  0.04972  1.0000
  C   C2271     1.0  0.98115  0.37803  0.57956  1.0000
  C   C2272     1.0  0.79469  0.38563  0.53973  1.0000
  H   H4030     1.0  0.79063  0.42903  0.87747  1.0000
  H   H4031     1.0  0.98802  0.42167  0.89254  1.0000
  H   H4032     1.0  0.98125  0.37742  0.50377  1.0000
  H   H4033     1.0  0.98270  0.39385  0.48000  1.0000
  H   H4034     1.0  0.79065  0.34341  0.58523  1.0000
  H   H4035     1.0  0.79211  0.25124  0.25954  1.0000
  H   H4036     1.0  0.98593  0.40905  0.52728  1.0000
  H   H4037     1.0  0.79042  0.38184  0.51836  1.0000
  H   H4038     1.0  0.98695  0.37108  0.57687  1.0000
  H   H4039     1.0  0.79046  0.38687  0.97968  1.0000
  H   H4040     1.0  0.78990  0.29834  0.87603  1.0000
  S   S505      1.0  0.78905  0.26935  0.99378  1.0000
  H   H4041     1.0  0.78853  0.39748  0.15057  1.0000
  C   C2273     1.0  0.98790  0.38676  0.48885  1.0000
  C   C2274     1.0  0.95293  0.49447  0.33645  1.0000
  H   H4042     1.0  0.78838  0.32099  0.93807  1.0000
  H   H4043     1.0  0.96527  0.53044  0.38316  1.0000
  H   H4044     1.0  0.97077  0.54942  0.40651  1.0000
  Fe  Fe253     1.0  0.97881  0.51373  0.43612  1.0000
  S   S506      1.0  0.96067  0.50744  0.48686  1.0000
  H   H4045     1.0  0.94812  0.53718  0.21106  1.0000
  H   H4046     1.0  0.95393  0.52633  0.26956  1.0000
  C   C2275     1.0  0.95906  0.53700  0.38350  1.0000
  H   H4047     1.0  0.90581  0.51198  0.95227  1.0000
  C   C2276     1.0  0.94116  0.53373  0.24088  1.0000
  S   S507      1.0  0.97808  0.52849  0.04338  1.0000
  H   H4048     1.0  0.97364  0.54740  0.17612  1.0000
  H   H4049     1.0  0.94384  0.50672  0.92950  1.0000
  H   H4050     1.0  0.96115  0.55699  0.38036  1.0000
  C   C2277     1.0  0.93861  0.49915  0.95600  1.0000
  C   C2278     1.0  0.95312  0.53763  0.34823  1.0000
  H   H4051     1.0  0.95398  0.51279  0.37572  1.0000
  S   S508      1.0  0.97960  0.50884  0.37856  1.0000
  H   H4052     1.0  0.95307  0.49511  0.42921  1.0000
  H   H4053     1.0  0.94846  0.54559  0.34620  1.0000
  C   C2279     1.0  0.94629  0.49776  0.48694  1.0000
  H   H4054     1.0  0.97486  0.55332  0.35282  1.0000
  Fe  Fe254     1.0  0.98213  0.49517  0.08353  1.0000
  H   H4055     1.0  0.87366  0.53202  0.01334  1.0000
  Fe  Fe255     1.0  0.96807  0.51024  0.03472  1.0000
  Fe  Fe256     1.0  0.97451  0.51707  0.10764  1.0000
  C   C2280     1.0  0.97684  0.51898  0.22487  1.0000
  C   C2281     1.0  0.91265  0.50503  0.06029  1.0000
  S   S509      1.0  0.95649  0.50897  0.98964  1.0000
  S   S510      1.0  0.96630  0.52361  0.16140  1.0000
  C   C2282     1.0  0.93851  0.52858  0.31556  1.0000
  C   C2283     1.0  0.97605  0.54047  0.19752  1.0000
  H   H4056     1.0  0.96021  0.51953  0.32397  1.0000
  H   H4057     1.0  0.93664  0.49824  0.54553  1.0000
  C   C2284     1.0  0.94793  0.53296  0.27337  1.0000
  H   H4058     1.0  0.96114  0.54049  0.32083  1.0000
  N   N127      1.0  0.94403  0.52566  0.35018  1.0000
  H   H4059     1.0  0.95189  0.53374  0.41285  1.0000
  C   C2285     1.0  0.96693  0.55000  0.38044  1.0000
  C   C2286     1.0  0.97410  0.52794  0.19582  1.0000
  C   C2287     1.0  0.90833  0.50698  0.02242  1.0000
  C   C2288     1.0  0.95119  0.51564  0.34787  1.0000
  H   H4060     1.0  0.93504  0.54036  0.24299  1.0000
  C   C2289     1.0  0.94436  0.50336  0.34121  1.0000
  H   H4061     1.0  0.97496  0.50920  0.22467  1.0000
  H   H4062     1.0  0.95400  0.54251  0.26800  1.0000
  H   H4063     1.0  0.93343  0.53609  0.31821  1.0000
  H   H4064     1.0  0.93135  0.52027  0.31618  1.0000
  C   C2290     1.0  0.88183  0.53423  0.98679  1.0000
  H   H4065     1.0  0.93545  0.52424  0.24339  1.0000
  H   H4066     1.0  0.98223  0.55383  0.22804  1.0000
  H   H4067     1.0  0.91561  0.50495  0.45457  1.0000
  C   C2291     1.0  0.92058  0.51479  0.39110  1.0000
  C   C2292     1.0  0.93390  0.52190  0.38955  1.0000
  H   H4068     1.0  0.91644  0.52101  0.37183  1.0000
  H   H4069     1.0  0.92062  0.50618  0.38110  1.0000
  H   H4070     1.0  0.89923  0.51029  0.85593  1.0000
  H   H4071     1.0  0.93248  0.53044  0.39919  1.0000
  H   H4072     1.0  0.89297  0.52515  0.01881  1.0000
  H   H4073     1.0  0.93685  0.51610  0.41377  1.0000
  C   C2293     1.0  0.98344  0.53521  0.25654  1.0000
  H   H4074     1.0  0.90254  0.50534  0.43419  1.0000
  C   C2294     1.0  0.88960  0.52453  0.99237  1.0000
  C   C2295     1.0  0.98083  0.54409  0.22723  1.0000
  C   C2296     1.0  0.89289  0.50662  0.92026  1.0000
  H   H4075     1.0  0.88895  0.49955  0.05837  1.0000
  H   H4076     1.0  0.94119  0.50527  0.31385  1.0000
  H   H4077     1.0  0.88494  0.49892  0.92202  1.0000
  C   C2297     1.0  0.98153  0.52260  0.25518  1.0000
  H   H4078     1.0  0.90912  0.51716  0.01082  1.0000
  H   H4079     1.0  0.90239  0.49572  0.95613  1.0000
  H   H4080     1.0  0.92252  0.51048  0.05313  1.0000
  H   H4081     1.0  0.88767  0.54379  0.98285  1.0000
  H   H4082     1.0  0.89768  0.52733  0.96545  1.0000
  C   C2298     1.0  0.91183  0.51091  0.43342  1.0000
  H   H4083     1.0  0.88976  0.51551  0.91740  1.0000
  H   H4084     1.0  0.91505  0.50434  0.00006  1.0000
  H   H4085     1.0  0.98348  0.51565  0.27773  1.0000
  H   H4086     1.0  0.91115  0.51619  0.87774  1.0000
  C   C2299     1.0  0.94283  0.49783  0.99049  1.0000
  H   H4087     1.0  0.93625  0.49824  0.36718  1.0000
  H   H4088     1.0  0.90676  0.50834  0.08307  1.0000
  S   S511      1.0  0.98616  0.50478  0.01898  1.0000
  H   H4089     1.0  0.87849  0.53440  0.95985  1.0000
  H   H4090     1.0  0.91055  0.51936  0.44349  1.0000
  H   H4091     1.0  0.87572  0.51134  0.97865  1.0000
  S   S512      1.0  0.96337  0.49940  0.09947  1.0000
  H   H4092     1.0  0.96118  0.49896  0.31004  1.0000
  H   H4093     1.0  0.98365  0.50911  0.93627  1.0000
  C   C2300     1.0  0.90305  0.50824  0.88198  1.0000
  C   C2301     1.0  0.88161  0.51101  0.99971  1.0000
  C   C2302     1.0  0.89796  0.50375  0.95720  1.0000
  H   H4094     1.0  0.90629  0.49944  0.88298  1.0000
  H   H4095     1.0  0.87487  0.50873  0.02964  1.0000
  C   C2303     1.0  0.89493  0.49867  0.03034  1.0000
  N   N128      1.0  0.88857  0.50085  0.99738  1.0000
  H   H4096     1.0  0.91220  0.49489  0.07279  1.0000
  C   C2304     1.0  0.93579  0.49477  0.52020  1.0000
