data_image0
_chemical_formula_structural       CFeS2FeS2FeSFeS3HCSHFeS2HSHCFeSHSFeS2HSCFeSFeCSCHCH5C2H2CH6C6H4C6H4C6H4C2HC2H3NCSH4CHCSNC11H26NC11H30C2HCH6CH3CNC4HC3SH6CH3CH4CH2CHCH3CH2NH4C2HC2H6CH4NHC4H2CH2C4H3CH2CH3CH2C2H3S2CH2NH7CH4FeCHCH2CSHCHCHFeC2H3SHC2H2CFeHCH4SH2SCFeSCHCFeS2FeS2Fe2S3HFeS2H3CNSH2FeS2FeH3S2H6C2H3CH3CH5C6H4C6H6CH3C6H5CSFeH3CH4CH2CHCH4CHCH2CFeHCNHC2H2CHCH2SH2CFeH4CH3CH4C3H4C2HCHCH8C4HCFe2H2CHNC4HC7H6CHC2H5C2H4C2H3CHSHS2HC2H7CH2C2H3CSH5CHCHCHCH5SNC2HCH3SCHCHFeCHNCHC2HCHC2H2CHSC3H6CSH4SC2FeS2FeS2FeSFeS3H2C6H4C6H4CHCNH3C6H4C2H3C4H4C3H9CH3CH2CHCH2CHC2HCNH2NHCH4C3H2CH3C2H5C2H3CHC2HCH9CH4CH16CHC2FeCHCHCH5CHCH2CHCHSHC2HCH3C2HCHCHSC2H6CNC2HCH2CH4CHC2HC2FeH11S3H2C2SCNHCHC2HSH2CFeSCHFeS2FeS2FeSFeS3H2CHC2NH4C6H4C6H4C6H4CHC4H5NC6HCH7SH6CH13CH3CH2SCH6SHNC3H2C3H7CH15NC12H29C2H2CHCH3C4HCH5C3H2C2HCNH4C2H4C3H7C5HCH2CH5CNCH2CH8SCFeCSH6CSHCHCH3CH9FeS2CSHFeS2FeSH2SHFeS2FeS2FeSFeS3HC2FeCH4CHC6H2C7H8CH5C6H4C3H4CHC3H2CHCH3SH2SCHCH2CH9CH3FeH3SFeH3CH3NC12H26CFeNC4H2C4H4CH3CH12NC6HC3NH4C2H4FeH2CH2CHC2HCHCNH2C2HCSC2H2C4H3CH3CH3CH2C2H3CH8SCH2CHCHSH2C2H5CH2SHC2SFeS2FeCSFeSFeHS2FeS2FeS2FeSFeS3C6H4C7H3C6H4CHC3H3NH4SC2H4C4H2CHC2HCH2CHFeCH13NC12H27NC11H27CH11CH5CH6CH2CH2NCH2C3H7C2H2SCSHCH10C2H6NC5SH12C2HCH5CHC2HCH4NH2CHCHCHCHCH2CHCSHC3HC2FeCH2C3H2C2H4CH6CSHCH2SCFe3SHNSHFeS2HFeH2FeS2FeHFeS2FeSFeS2FeSFeS3FeS2CHFeCFeS4CHC2H2CHC6H4CSC6H5C2FeH3CHNC6H4SCHCHSH6C2H8CH2CHFeCHCHCH2CH2CH6SHCNHCH3CH4NH5SCH2C4HC2H3CH4C2H9CH3C2H5C3H2CH4CH5NCH5CHCH6C3H4CH8CFeCH4CH4CHCH2NC12H12CH14CS2H3CH2NC9H2CHCH2SHSHCHCH7CH2CHC2HC3H3C3HC2H2C3H3S2CH3C2HCHCH2CH5CHSH2CH4CFeSFeS2FeSFeS3FeS3FeSFeS3FeS2CSH2FeS2H3FeHFeCS2HSHS3CHC4H8FeC3H3CHC4HCH3C5H4C6H4C6H4C6H5C3HC2NC4FeC6FeH6CH4CH14CHCH2CH2SH6CHFeHSHC2HC2H4C2HCH2CH3CNCH2SHNC12H28NC11H25NC5HCH2C2H10CH3CSCSH9Fe2CH2C3HSH2CH4C2H3CH4CH2CHCHCFeCH5SFeS2FeSFeS2FeSFeS3H3FeHSH2SHS2H2FeC4H3SFeSCSC2H2C3H3CH3C4HC7H4C6H6CHCH2CHC6H4CHSC2HNHCH6CH2CH2SCSH9CHCH8CHCHCHCHCHNCH2CH2CH4FeCFeH2SC2HCNC2H12CH2SH2C2H3CH2CH9C2SH4CHCHCHCH3NC6H12CH5CHCH5CNC8HC3H13C2HC2H6CHNH3CH4SH3CH3C2H2FeCFeCSFeH6S2FeS2FeS2Fe2S3H2FeCSFeSHSH5C3FeSHSC2SCHC2HC3H2CH3C6H4C6H4CH5C2H2C7H8SH3CHNCHC5FeC4H8SH5C2H2C2H7CHCH5C3HCH2FeH3CH3CHNH8CHCHCHC3H3C3HCH2C2H2NHC2HCH2SHSH2C3HC2H2CSH3CH5CFeHCH9C3H5CHSH4C2H9SNC12H19SHFeH2CHCH2NHCNH10C2H3CH3SC2HCH2CH2CH2NH2C3HSHCH3FeSCFeS2FeS2FeSFeS3H2C4H6CH2C6H6C6H5C4H3C2NH2C7HC2H8CH4CH4CNH3CH2CH3CH7CHC3HSC2HCHC4H5CH3NC5H16CHC2H5CH8CH2CH2CH6CNCHCFeC4HC2HCFeH8CH4CH4SHCHSH2CSC2H5CHC2HCNH4Fe2SHCH6SFeS2FeS2FeSFeS3C5FeC2H4C2HCH4CH3C2NCHC6H5C6H16C2HCH5C3HCH2C3H3CH4CS2H2CH4CH2CHCSH3CH2NCH3SNC7HCHCHCHCH6CH2CH5C2HCH8C2H2CHCH5CHCH10C5H5CHNC5H15SNH5SHCH2CH2CH3CHCH5C3H5CH2C4H3FeSHFeS2FeS2FeSFeS3HCFeHS3H2C6H4C6H4C6H7FeCH2SH2C2H2SC2H2CH2C3H3CHCH2SH2CH2CH2C2H2NCHSH2C2H3C3HCSCH4NC5HC3HC2H8SHCHCH6SHCH4SH2CNC12H28NC12H25NH2NC9HC2H6CH17CH5CHCH9CNCFeH2CHC3H9FeC2HCFeHSHSHFeSHCH3CH2C2SFeHCH3CH5SH2FeH4C2HCHCHC5SFeS2FeS2FeSFeS3CH2SCHSHCHC3NH3CHCHC3SH2C6H4C6H4C6H4CH3CHCH2CHCHCSH2FeSH4CH6CS2CHFeH3C3HFeHCHCHCH16NC12H28CNC5HC2HCSHCH7CH12CHNC12H16FeSCH9CHCH2CHC4H3CHCH3FeHSCHCH2CH9SHNH2CSHC3HC3FeHCSFeH2SCFeS2HCFeSFeS2FeHSFeS2FeSFeHS2FeS2HSFeSFeS4HFeS2FeS2FeSFeHS2CH3C8H2C7H4CH3CH3C7H4C6H2CHC6H5CHC2HCH2SFeC2SCHCHC2HC2HC2H6CH5CNC12H28C4H8CH3C2HC2HNH2CH3C2NCH6C2H6CHC2H4C2H2CH4CH3SH2CH6FeHCHSCH7CH3NH3CH6CHC3HCHC2H2CH7CHCNH2C2H5CHCH2CHCHC2NH2C2H9CH4SHFeH2CH2SH2CH3SH5CHCH5C2HCH3FeS2FeSCFeSFeS3H2CSCFeS2FeS2FeS2Fe2S3FeS2FeSCFeSFeS3C2H2CH3CH3C5H3C6H5C6H5CH2C6H4CH2NC2HCNHC2H2C5SHSH19CH2CH3NC12H19C2H7NC11H26FeHNC12H28C3H3CHC2H2CH8CH3CHNHSH2C2H2SCH5CHCH3CHSH7CSCH2CH7C4HCHCHCH2C4H2CH3C3HCHC2HC2H6CHNH2CHC2HFeC2H2CH2CH2C2H4CH2CH3CH2C3H3SH2C2H4CH3CHFeH3CH4CH3CNCNCHCHC2HFeSHC2H
_chemical_formula_sum              "C1728 Fe192 S384 H3072 N96"
_cell_length_a       61.3303
_cell_length_b       61.2062
_cell_length_c       61.1677
_cell_angle_alpha    80.1686
_cell_angle_beta     80.2035
_cell_angle_gamma    80.1011

_space_group_name_H-M_alt    "P 1"
_space_group_IT_number       1

loop_
  _space_group_symop_operation_xyz
  'x, y, z'

loop_
  _atom_site_type_symbol
  _atom_site_label
  _atom_site_symmetry_multiplicity
  _atom_site_fract_x
  _atom_site_fract_y
  _atom_site_fract_z
  _atom_site_occupancy
  C   C1        1.0  0.22282  0.32291  0.13684  1.0000
  Fe  Fe1       1.0  0.10226  0.22608  0.19682  1.0000
  S   S1        1.0  0.08460  0.19679  0.21152  1.0000
  S   S2        1.0  0.09613  0.24316  0.16245  1.0000
  Fe  Fe2       1.0  0.12317  0.22491  0.23857  1.0000
  S   S3        1.0  0.10693  0.19540  0.25710  1.0000
  S   S4        1.0  0.14892  0.24258  0.24844  1.0000
  Fe  Fe3       1.0  0.11656  0.18151  0.22453  1.0000
  S   S5        1.0  0.12860  0.14563  0.21930  1.0000
  Fe  Fe4       1.0  0.07582  0.21291  0.24255  1.0000
  S   S6        1.0  0.04063  0.21254  0.26189  1.0000
  S   S7        1.0  0.13516  0.20948  0.20697  1.0000
  S   S8        1.0  0.09129  0.24381  0.22690  1.0000
  H   H1        1.0  0.03727  0.16750  0.17147  1.0000
  C   C2        1.0  0.14389  0.36425  0.14352  1.0000
  S   S9        1.0  0.22016  0.10352  0.25450  1.0000
  H   H2        1.0  0.22734  0.15195  0.48769  1.0000
  Fe  Fe5       1.0  0.21692  0.26978  0.09055  1.0000
  S   S10       1.0  0.20025  0.26704  0.06137  1.0000
  S   S11       1.0  0.20690  0.29776  0.11180  1.0000
  H   H3        1.0  0.13774  0.10628  0.13332  1.0000
  S   S12       1.0  0.23937  0.10532  0.14753  1.0000
  H   H4        1.0  0.19847  0.18209  0.48661  1.0000
  C   C3        1.0  0.18531  0.13985  0.09283  1.0000
  Fe  Fe6       1.0  0.19701  0.23195  0.07786  1.0000
  S   S13       1.0  0.16487  0.21894  0.07803  1.0000
  H   H5        1.0  0.04124  0.10926  0.20467  1.0000
  S   S14       1.0  0.21033  0.23594  0.10850  1.0000
  Fe  Fe7       1.0  0.20012  0.23639  0.35893  1.0000
  S   S15       1.0  0.19262  0.26835  0.37404  1.0000
  S   S16       1.0  0.17389  0.22097  0.34726  1.0000
  H   H6        1.0  0.19739  0.09475  0.17896  1.0000
  S   S17       1.0  0.23296  0.24364  0.33883  1.0000
  C   C4        1.0  0.02123  0.21155  0.22444  1.0000
  Fe  Fe8       1.0  0.21096  0.24951  0.40210  1.0000
  S   S18       1.0  0.19594  0.25073  0.43865  1.0000
  Fe  Fe9       1.0  0.22667  0.27424  0.35606  1.0000
  C   C5        1.0  0.18457  0.28437  0.00515  1.0000
  S   S19       1.0  0.21547  0.21693  0.38853  1.0000
  C   C6        1.0  0.14316  0.26374  0.01231  1.0000
  H   H7        1.0  0.03735  0.21373  0.21475  1.0000
  C   C7        1.0  0.22882  0.32427  0.26380  1.0000
  H   H8        1.0  0.19688  0.27189  0.01366  1.0000
  H   H9        1.0  0.22486  0.16944  0.23659  1.0000
  H   H10       1.0  0.21026  0.15358  0.20473  1.0000
  H   H11       1.0  0.13358  0.14611  0.09510  1.0000
  H   H12       1.0  0.08898  0.25367  0.03596  1.0000
  C   C8        1.0  0.23283  0.25721  0.45637  1.0000
  C   C9        1.0  0.17016  0.09634  0.15972  1.0000
  H   H13       1.0  0.15772  0.16212  0.10686  1.0000
  H   H14       1.0  0.17567  0.13178  0.08352  1.0000
  C   C10       1.0  0.01803  0.21134  0.24764  1.0000
  H   H15       1.0  0.15748  0.10767  0.10873  1.0000
  H   H16       1.0  0.07824  0.08493  0.19931  1.0000
  H   H17       1.0  0.07643  0.11543  0.22181  1.0000
  H   H18       1.0  0.13041  0.11064  0.08211  1.0000
  H   H19       1.0  0.11157  0.25592  0.05041  1.0000
  H   H20       1.0  0.23930  0.34778  0.30680  1.0000
  C   C11       1.0  0.15634  0.23559  0.27573  1.0000
  C   C12       1.0  0.17548  0.24271  0.28035  1.0000
  C   C13       1.0  0.18120  0.23824  0.30217  1.0000
  C   C14       1.0  0.16787  0.22646  0.31947  1.0000
  C   C15       1.0  0.14912  0.21884  0.31470  1.0000
  C   C16       1.0  0.14334  0.22340  0.29292  1.0000
  H   H21       1.0  0.18602  0.25160  0.26705  1.0000
  H   H22       1.0  0.19579  0.24398  0.30567  1.0000
  H   H23       1.0  0.13883  0.20960  0.32800  1.0000
  H   H24       1.0  0.12864  0.21774  0.28957  1.0000
  C   C17       1.0  0.15416  0.13443  0.22901  1.0000
  C   C18       1.0  0.16614  0.11462  0.22197  1.0000
  C   C19       1.0  0.18668  0.10542  0.22930  1.0000
  C   C20       1.0  0.19492  0.11551  0.24442  1.0000
  C   C21       1.0  0.18276  0.13515  0.25179  1.0000
  C   C22       1.0  0.16260  0.14486  0.24375  1.0000
  H   H25       1.0  0.15951  0.10635  0.21086  1.0000
  H   H26       1.0  0.19577  0.09010  0.22384  1.0000
  H   H27       1.0  0.18897  0.14287  0.26366  1.0000
  H   H28       1.0  0.15337  0.16010  0.24938  1.0000
  C   C23       1.0  0.11517  0.23400  0.13990  1.0000
  C   C24       1.0  0.10796  0.23588  0.11908  1.0000
  C   C25       1.0  0.12317  0.23018  0.10039  1.0000
  C   C26       1.0  0.14583  0.22354  0.10221  1.0000
  C   C27       1.0  0.15304  0.22122  0.12312  1.0000
  C   C28       1.0  0.13758  0.22592  0.14209  1.0000
  H   H29       1.0  0.09058  0.24188  0.11739  1.0000
  H   H30       1.0  0.11748  0.23162  0.08436  1.0000
  H   H31       1.0  0.17042  0.21544  0.12476  1.0000
  H   H32       1.0  0.14311  0.22406  0.15821  1.0000
  C   C29       1.0  0.23092  0.31450  0.31006  1.0000
  C   C30       1.0  0.21579  0.18422  0.18005  1.0000
  H   H33       1.0  0.21683  0.23990  0.18227  1.0000
  C   C31       1.0  0.21023  0.25453  0.46027  1.0000
  C   C32       1.0  0.19874  0.25360  0.48227  1.0000
  H   H34       1.0  0.15461  0.21621  0.03036  1.0000
  H   H35       1.0  0.16215  0.36280  0.14392  1.0000
  H   H36       1.0  0.24183  0.25804  0.43951  1.0000
  N   N1        1.0  0.15945  0.13124  0.13072  1.0000
  C   C33       1.0  0.22082  0.20110  0.21276  1.0000
  S   S20       1.0  0.23372  0.30834  0.33864  1.0000
  H   H37       1.0  0.15482  0.14290  0.16316  1.0000
  H   H38       1.0  0.13485  0.36334  0.16093  1.0000
  H   H39       1.0  0.07770  0.14750  0.23722  1.0000
  H   H40       1.0  0.14832  0.26154  0.02929  1.0000
  C   C34       1.0  0.24213  0.21098  0.17571  1.0000
  H   H41       1.0  0.04931  0.18716  0.18307  1.0000
  C   C35       1.0  0.12739  0.13237  0.10762  1.0000
  S   S21       1.0  0.24527  0.26420  0.00898  1.0000
  N   N2        1.0  0.13921  0.30276  0.13759  1.0000
  C   C36       1.0  0.14769  0.32215  0.14408  1.0000
  C   C37       1.0  0.15243  0.28122  0.14731  1.0000
  C   C38       1.0  0.14401  0.30449  0.11229  1.0000
  C   C39       1.0  0.11437  0.30273  0.14484  1.0000
  C   C40       1.0  0.10391  0.31180  0.16712  1.0000
  C   C41       1.0  0.13906  0.34567  0.13202  1.0000
  C   C42       1.0  0.14021  0.28408  0.10218  1.0000
  C   C43       1.0  0.14959  0.27551  0.17319  1.0000
  C   C44       1.0  0.16770  0.25662  0.18053  1.0000
  C   C45       1.0  0.07992  0.30688  0.17440  1.0000
  C   C46       1.0  0.11715  0.17420  0.16414  1.0000
  H   H42       1.0  0.16634  0.32003  0.14041  1.0000
  H   H43       1.0  0.14386  0.32250  0.16238  1.0000
  H   H44       1.0  0.14773  0.26663  0.14172  1.0000
  H   H45       1.0  0.17055  0.28105  0.14081  1.0000
  H   H46       1.0  0.16164  0.30721  0.10613  1.0000
  H   H47       1.0  0.13349  0.31942  0.10439  1.0000
  H   H48       1.0  0.10464  0.31284  0.13181  1.0000
  H   H49       1.0  0.11035  0.28547  0.14614  1.0000
  H   H50       1.0  0.10339  0.33024  0.16501  1.0000
  H   H51       1.0  0.11340  0.30436  0.18105  1.0000
  H   H52       1.0  0.14772  0.34802  0.11446  1.0000
  H   H53       1.0  0.12080  0.34775  0.13157  1.0000
  H   H54       1.0  0.12425  0.27814  0.11018  1.0000
  H   H55       1.0  0.15420  0.27013  0.10464  1.0000
  H   H56       1.0  0.15092  0.28988  0.18143  1.0000
  H   H57       1.0  0.13313  0.26975  0.17952  1.0000
  H   H58       1.0  0.16450  0.25163  0.19897  1.0000
  H   H59       1.0  0.16805  0.24171  0.17232  1.0000
  H   H60       1.0  0.18416  0.26260  0.17603  1.0000
  H   H61       1.0  0.06941  0.31422  0.16109  1.0000
  H   H62       1.0  0.07967  0.28849  0.17807  1.0000
  H   H63       1.0  0.07256  0.31421  0.18989  1.0000
  H   H64       1.0  0.23201  0.21034  0.21908  1.0000
  H   H65       1.0  0.14588  0.17806  0.13947  1.0000
  H   H66       1.0  0.12426  0.23496  0.01756  1.0000
  H   H67       1.0  0.15498  0.29665  0.06831  1.0000
  N   N3        1.0  0.15481  0.31606  0.25899  1.0000
  C   C47       1.0  0.14802  0.30477  0.28255  1.0000
  C   C48       1.0  0.13419  0.32347  0.24773  1.0000
  C   C49       1.0  0.17136  0.29956  0.24665  1.0000
  C   C50       1.0  0.16581  0.33628  0.25903  1.0000
  C   C51       1.0  0.15238  0.35408  0.27334  1.0000
  C   C52       1.0  0.16653  0.29912  0.29794  1.0000
  C   C53       1.0  0.17815  0.30688  0.22116  1.0000
  C   C54       1.0  0.12235  0.30434  0.24360  1.0000
  C   C55       1.0  0.10178  0.31379  0.23208  1.0000
  C   C56       1.0  0.16638  0.37235  0.27381  1.0000
  C   C57       1.0  0.19565  0.28890  0.21121  1.0000
  H   H68       1.0  0.14229  0.28854  0.28215  1.0000
  H   H69       1.0  0.13331  0.31498  0.29116  1.0000
  H   H70       1.0  0.12148  0.33428  0.25800  1.0000
  H   H71       1.0  0.13815  0.33425  0.23139  1.0000
  H   H72       1.0  0.16501  0.28331  0.24875  1.0000
  H   H73       1.0  0.18708  0.29564  0.25413  1.0000
  H   H74       1.0  0.18250  0.33104  0.26460  1.0000
  H   H75       1.0  0.16939  0.34528  0.24172  1.0000
  H   H76       1.0  0.20601  0.21376  0.20926  1.0000
  H   H77       1.0  0.13703  0.36222  0.26616  1.0000
  H   H78       1.0  0.18044  0.28686  0.29121  1.0000
  H   H79       1.0  0.17350  0.31420  0.29964  1.0000
  H   H80       1.0  0.18558  0.32259  0.21791  1.0000
  H   H81       1.0  0.16360  0.30950  0.21198  1.0000
  H   H82       1.0  0.13356  0.29311  0.23269  1.0000
  H   H83       1.0  0.11666  0.29399  0.25962  1.0000
  H   H84       1.0  0.08923  0.32410  0.24294  1.0000
  H   H85       1.0  0.10655  0.32421  0.21578  1.0000
  H   H86       1.0  0.09398  0.29975  0.22889  1.0000
  H   H87       1.0  0.18162  0.36505  0.28163  1.0000
  H   H88       1.0  0.17154  0.38075  0.25655  1.0000
  H   H89       1.0  0.15644  0.38515  0.28383  1.0000
  H   H90       1.0  0.20003  0.29407  0.19288  1.0000
  H   H91       1.0  0.21103  0.28670  0.21916  1.0000
  H   H92       1.0  0.18915  0.27264  0.21410  1.0000
  H   H93       1.0  0.13870  0.27435  0.07010  1.0000
  H   H94       1.0  0.17618  0.16457  0.18640  1.0000
  H   H95       1.0  0.22754  0.18488  0.32778  1.0000
  H   H96       1.0  0.07490  0.15572  0.20101  1.0000
  H   H97       1.0  0.24552  0.15871  0.20647  1.0000
  C   C58       1.0  0.23514  0.33538  0.29815  1.0000
  C   C59       1.0  0.05968  0.15201  0.19582  1.0000
  H   H98       1.0  0.12360  0.16858  0.12982  1.0000
  C   C60       1.0  0.15735  0.28883  0.32155  1.0000
  H   H99       1.0  0.14744  0.34666  0.29095  1.0000
  H   H100      1.0  0.14950  0.27389  0.32108  1.0000
  H   H101      1.0  0.17124  0.28347  0.33169  1.0000
  H   H102      1.0  0.17741  0.17932  0.02903  1.0000
  H   H103      1.0  0.22417  0.26298  0.14563  1.0000
  H   H104      1.0  0.12471  0.30227  0.07352  1.0000
  C   C61       1.0  0.13961  0.28980  0.07695  1.0000
  H   H105      1.0  0.14477  0.30129  0.32990  1.0000
  H   H106      1.0  0.06417  0.13610  0.18864  1.0000
  H   H107      1.0  0.10373  0.12814  0.08657  1.0000
  C   C62       1.0  0.11746  0.11778  0.09507  1.0000
  N   N4        1.0  0.04669  0.13514  0.23695  1.0000
  C   C63       1.0  0.04058  0.15014  0.21593  1.0000
  C   C64       1.0  0.02543  0.13091  0.25239  1.0000
  C   C65       1.0  0.06107  0.14670  0.24773  1.0000
  C   C66       1.0  0.05978  0.11298  0.23172  1.0000
  H   H108      1.0  0.05519  0.06922  0.20338  1.0000
  C   C67       1.0  0.06565  0.13578  0.27169  1.0000
  C   C68       1.0  0.12125  0.25349  0.01482  1.0000
  C   C69       1.0  0.21184  0.18376  0.23225  1.0000
  S   S22       1.0  0.22630  0.33047  0.23517  1.0000
  H   H109      1.0  0.03429  0.16745  0.21963  1.0000
  H   H110      1.0  0.02632  0.14493  0.21001  1.0000
  H   H111      1.0  0.01454  0.12346  0.24376  1.0000
  H   H112      1.0  0.02908  0.11822  0.26715  1.0000
  H   H113      1.0  0.05371  0.16458  0.24851  1.0000
  H   H114      1.0  0.06366  0.10192  0.24739  1.0000
  C   C70       1.0  0.24389  0.25849  0.47444  1.0000
  H   H115      1.0  0.07416  0.11827  0.27184  1.0000
  H   H116      1.0  0.04992  0.13584  0.28370  1.0000
  H   H117      1.0  0.23436  0.21304  0.44439  1.0000
  C   C71       1.0  0.20781  0.19146  0.47181  1.0000
  H   H118      1.0  0.20252  0.20953  0.47335  1.0000
  H   H119      1.0  0.19788  0.19095  0.00750  1.0000
  H   H120      1.0  0.18293  0.24029  0.02162  1.0000
  H   H121      1.0  0.20267  0.31101  0.00792  1.0000
  C   C72       1.0  0.04798  0.09913  0.21952  1.0000
  H   H122      1.0  0.22686  0.14848  0.17862  1.0000
  H   H123      1.0  0.13802  0.28213  0.00776  1.0000
  C   C73       1.0  0.22962  0.19311  0.31005  1.0000
  H   H124      1.0  0.20425  0.16807  0.08489  1.0000
  C   C74       1.0  0.06413  0.07912  0.21162  1.0000
  H   H125      1.0  0.19367  0.19880  0.03531  1.0000
  H   H126      1.0  0.06617  0.17110  0.16258  1.0000
  H   H127      1.0  0.07086  0.06804  0.22608  1.0000
  C   C75       1.0  0.05261  0.17056  0.17713  1.0000
  H   H128      1.0  0.19914  0.19486  0.18261  1.0000
  H   H129      1.0  0.02006  0.16108  0.26932  1.0000
  N   N5        1.0  0.23279  0.18538  0.47184  1.0000
  H   H130      1.0  0.24224  0.16354  0.29491  1.0000
  H   H131      1.0  0.24220  0.30448  0.18890  1.0000
  H   H132      1.0  0.10001  0.27979  0.03188  1.0000
  H   H133      1.0  0.09724  0.14820  0.26967  1.0000
  C   C76       1.0  0.19154  0.15517  0.17793  1.0000
  C   C77       1.0  0.18520  0.19461  0.02220  1.0000
  H   H134      1.0  0.17066  0.28997  0.01802  1.0000
  C   C78       1.0  0.23881  0.33443  0.14203  1.0000
  C   C79       1.0  0.08074  0.14856  0.28055  1.0000
  H   H135      1.0  0.13825  0.38086  0.13408  1.0000
  H   H136      1.0  0.20189  0.16899  0.44936  1.0000
  H   H137      1.0  0.20648  0.32358  0.14687  1.0000
  H   H138      1.0  0.07277  0.16622  0.28125  1.0000
  H   H139      1.0  0.08357  0.14063  0.29776  1.0000
  H   H140      1.0  0.00456  0.16356  0.24633  1.0000
  C   C80       1.0  0.10447  0.26125  0.03448  1.0000
  H   H141      1.0  0.12676  0.17641  0.17722  1.0000
  H   H142      1.0  0.13175  0.13175  0.15813  1.0000
  H   H143      1.0  0.16455  0.18490  0.46763  1.0000
  H   H144      1.0  0.24234  0.01219  0.20322  1.0000
  N   N6        1.0  0.16266  0.25527  0.99560  1.0000
  H   H145      1.0  0.10566  0.16183  0.17132  1.0000
  C   C81       1.0  0.14487  0.14215  0.14973  1.0000
  C   C82       1.0  0.17791  0.11478  0.14052  1.0000
  C   C83       1.0  0.22441  0.30346  0.27574  1.0000
  C   C84       1.0  0.17347  0.19452  0.45275  1.0000
  H   H146      1.0  0.21642  0.20168  0.25877  1.0000
  H   H147      1.0  0.19284  0.16034  0.15951  1.0000
  C   C85       1.0  0.22530  0.29864  0.29886  1.0000
  H   H148      1.0  0.19021  0.13703  0.18181  1.0000
  H   H149      1.0  0.21215  0.22628  0.15983  1.0000
  C   C86       1.0  0.16722  0.21395  0.01529  1.0000
  C   C87       1.0  0.19615  0.30467  0.99470  1.0000
  C   C88       1.0  0.18976  0.08336  0.17115  1.0000
  C   C89       1.0  0.13316  0.16656  0.14400  1.0000
  H   H150      1.0  0.23721  0.35648  0.26604  1.0000
  H   H151      1.0  0.16931  0.21271  0.45401  1.0000
  H   H152      1.0  0.22069  0.29088  0.26709  1.0000
  C   C90       1.0  0.17743  0.23578  0.00676  1.0000
  H   H153      1.0  0.10694  0.19049  0.15899  1.0000
  H   H154      1.0  0.22172  0.28264  0.30795  1.0000
  C   C91       1.0  0.19439  0.15918  0.07656  1.0000
  H   H155      1.0  0.23010  0.18110  0.10554  1.0000
  H   H156      1.0  0.20654  0.19647  0.43537  1.0000
  H   H157      1.0  0.21957  0.14325  0.11957  1.0000
  C   C92       1.0  0.21221  0.15929  0.18646  1.0000
  H   H158      1.0  0.11050  0.10392  0.10689  1.0000
  H   H159      1.0  0.11358  0.13952  0.11976  1.0000
  C   C93       1.0  0.14614  0.11833  0.12025  1.0000
  C   C94       1.0  0.17033  0.14854  0.11363  1.0000
  H   H160      1.0  0.20275  0.07522  0.15887  1.0000
  H   H161      1.0  0.18879  0.10563  0.12751  1.0000
  H   H162      1.0  0.18921  0.12392  0.14686  1.0000
  S   S23       1.0  0.22984  0.21632  0.06068  1.0000
  S   S24       1.0  0.23845  0.06481  0.20552  1.0000
  C   C95       1.0  0.22508  0.23133  0.16782  1.0000
  H   H163      1.0  0.16275  0.08406  0.15292  1.0000
  H   H164      1.0  0.16748  0.19164  0.43747  1.0000
  N   N7        1.0  0.23237  0.19214  0.19156  1.0000
  H   H165      1.0  0.18897  0.20808  0.25021  1.0000
  H   H166      1.0  0.18382  0.07016  0.18458  1.0000
  H   H167      1.0  0.15754  0.10344  0.17286  1.0000
  H   H168      1.0  0.20545  0.15266  0.06202  1.0000
  H   H169      1.0  0.19989  0.12763  0.09757  1.0000
  H   H170      1.0  0.18041  0.17133  0.07029  1.0000
  H   H171      1.0  0.18057  0.15719  0.12189  1.0000
  C   C96       1.0  0.22785  0.31080  0.11864  1.0000
  H   H172      1.0  0.19749  0.17752  0.22777  1.0000
  H   H173      1.0  0.03386  0.09244  0.23111  1.0000
  H   H174      1.0  0.23477  0.34383  0.15600  1.0000
  H   H175      1.0  0.21346  0.19459  0.30364  1.0000
  Fe  Fe10      1.0  0.24367  0.22349  0.09014  1.0000
  C   C97       1.0  0.23420  0.34023  0.27504  1.0000
  H   H176      1.0  0.19684  0.18187  0.26725  1.0000
  C   C98       1.0  0.20308  0.19456  0.25339  1.0000
  H   H177      1.0  0.18123  0.25163  0.48542  1.0000
  H   H178      1.0  0.00654  0.20823  0.19579  1.0000
  C   C99       1.0  0.23438  0.14761  0.12390  1.0000
  S   S25       1.0  0.24449  0.25798  0.38528  1.0000
  H   H179      1.0  0.22106  0.18630  0.16149  1.0000
  C   C100      1.0  0.23672  0.24854  0.15087  1.0000
  H   H180      1.0  0.23359  0.21025  0.30935  1.0000
  C   C101      1.0  0.00366  0.20858  0.21369  1.0000
  H   H181      1.0  0.23774  0.21844  0.00916  1.0000
  Fe  Fe11      1.0  0.23414  0.25181  0.04579  1.0000
  C   C102      1.0  0.19873  0.18706  0.45099  1.0000
  C   C103      1.0  0.24036  0.16898  0.11598  1.0000
  H   H182      1.0  0.11323  0.25908  0.99941  1.0000
  H   H183      1.0  0.15940  0.20881  0.00232  1.0000
  H   H184      1.0  0.23397  0.21260  0.48953  1.0000
  S   S26       1.0  0.24250  0.37862  0.18561  1.0000
  H   H185      1.0  0.23667  0.48191  0.20281  1.0000
  C   C104      1.0  0.01072  0.15197  0.26071  1.0000
  C   C105      1.0  0.23832  0.19403  0.49165  1.0000
  H   H186      1.0  0.19307  0.23176  0.99526  1.0000
  H   H187      1.0  0.24637  0.27422  0.19408  1.0000
  C   C106      1.0  0.23842  0.16024  0.47352  1.0000
  Fe  Fe12      1.0  0.24503  0.08719  0.22850  1.0000
  H   H188      1.0  0.23487  0.15457  0.45833  1.0000
  C   C107      1.0  0.24452  0.19678  0.45013  1.0000
  H   H189      1.0  0.24535  0.24113  0.13576  1.0000
  H   H190      1.0  0.24589  0.18655  0.43639  1.0000
  H   H191      1.0  0.09716  0.19904  0.72619  1.0000
  H   H192      1.0  0.22944  0.19261  0.76207  1.0000
  S   S27       1.0  0.19851  0.23674  0.56649  1.0000
  H   H193      1.0  0.03754  0.22843  0.66363  1.0000
  H   H194      1.0  0.16681  0.22250  0.71099  1.0000
  S   S28       1.0  0.21912  0.28099  0.57518  1.0000
  C   C108      1.0  0.17582  0.22243  0.69377  1.0000
  Fe  Fe13      1.0  0.18916  0.26358  0.58862  1.0000
  S   S29       1.0  0.15510  0.28344  0.59596  1.0000
  C   C109      1.0  0.24332  0.31288  0.61735  1.0000
  H   H195      1.0  0.06480  0.25497  0.59774  1.0000
  C   C110      1.0  0.18604  0.45692  0.76289  1.0000
  Fe  Fe14      1.0  0.09413  0.25532  0.70895  1.0000
  S   S30       1.0  0.07694  0.29050  0.70303  1.0000
  S   S31       1.0  0.10153  0.23349  0.68176  1.0000
  Fe  Fe15      1.0  0.09791  0.25846  0.75682  1.0000
  S   S32       1.0  0.08049  0.29427  0.75496  1.0000
  S   S33       1.0  0.11376  0.23474  0.78425  1.0000
  Fe  Fe16      1.0  0.05645  0.28261  0.73655  1.0000
  Fe  Fe17      1.0  0.10215  0.29913  0.72135  1.0000
  S   S34       1.0  0.11985  0.32790  0.70303  1.0000
  S   S35       1.0  0.07209  0.24651  0.74125  1.0000
  S   S36       1.0  0.12114  0.26434  0.72456  1.0000
  H   H196      1.0  0.01676  0.24812  0.74776  1.0000
  Fe  Fe18      1.0  0.21450  0.37900  0.72670  1.0000
  S   S37       1.0  0.21253  0.40134  0.69387  1.0000
  S   S38       1.0  0.18658  0.36493  0.75096  1.0000
  H   H197      1.0  0.19508  0.30360  0.82168  1.0000
  H   H198      1.0  0.06225  0.21086  0.70303  1.0000
  H   H199      1.0  0.18436  0.25248  0.94973  1.0000
  C   C111      1.0  0.16248  0.23492  0.93808  1.0000
  N   N8        1.0  0.16225  0.35421  0.62230  1.0000
  S   S39       1.0  0.23675  0.39917  0.73782  1.0000
  H   H200      1.0  0.03267  0.32235  0.68940  1.0000
  H   H201      1.0  0.14544  0.16299  0.62750  1.0000
  Fe  Fe19      1.0  0.20027  0.24572  0.85756  1.0000
  S   S40       1.0  0.20473  0.21144  0.87783  1.0000
  S   S41       1.0  0.16844  0.26751  0.84861  1.0000
  Fe  Fe20      1.0  0.22776  0.22523  0.89537  1.0000
  H   H202      1.0  0.18844  0.45595  0.78064  1.0000
  H   H203      1.0  0.23201  0.30570  0.84862  1.0000
  H   H204      1.0  0.07298  0.25454  0.63627  1.0000
  S   S42       1.0  0.22091  0.26017  0.87699  1.0000
  S   S43       1.0  0.22858  0.23743  0.83054  1.0000
  H   H205      1.0  0.15283  0.25028  0.92989  1.0000
  H   H206      1.0  0.18423  0.31831  0.98687  1.0000
  H   H207      1.0  0.99909  0.24472  0.64262  1.0000
  H   H208      1.0  0.99928  0.23093  0.67106  1.0000
  H   H209      1.0  0.17913  0.36397  0.80326  1.0000
  H   H210      1.0  0.22714  0.26127  0.73310  1.0000
  C   C112      1.0  0.19373  0.47811  0.74881  1.0000
  C   C113      1.0  0.00152  0.25649  0.74152  1.0000
  H   H211      1.0  0.22700  0.33152  0.77898  1.0000
  H   H212      1.0  0.20078  0.25377  0.51714  1.0000
  H   H213      1.0  0.19181  0.47743  0.73124  1.0000
  C   C114      1.0  0.06189  0.26910  0.62872  1.0000
  H   H214      1.0  0.16125  0.21665  0.77044  1.0000
  H   H215      1.0  0.18889  0.20977  0.77871  1.0000
  H   H216      1.0  0.16693  0.28789  0.97653  1.0000
  C   C115      1.0  0.19146  0.29249  0.63688  1.0000
  H   H217      1.0  0.22799  0.02089  0.71046  1.0000
  H   H218      1.0  0.06605  0.28453  0.63326  1.0000
  H   H219      1.0  0.17558  0.15814  0.71886  1.0000
  H   H220      1.0  0.17597  0.35685  0.65204  1.0000
  H   H221      1.0  0.03854  0.20856  0.72468  1.0000
  C   C116      1.0  0.12932  0.24438  0.80144  1.0000
  C   C117      1.0  0.12674  0.26704  0.80380  1.0000
  C   C118      1.0  0.13868  0.27396  0.81845  1.0000
  C   C119      1.0  0.15388  0.25843  0.83015  1.0000
  C   C120      1.0  0.15701  0.23591  0.82719  1.0000
  C   C121      1.0  0.14440  0.22886  0.81326  1.0000
  H   H222      1.0  0.11502  0.27909  0.79491  1.0000
  H   H223      1.0  0.13596  0.29136  0.82088  1.0000
  H   H224      1.0  0.16858  0.22380  0.83623  1.0000
  H   H225      1.0  0.14631  0.21126  0.81170  1.0000
  C   C122      1.0  0.13732  0.33880  0.71711  1.0000
  C   C123      1.0  0.13780  0.33266  0.74016  1.0000
  C   C124      1.0  0.15228  0.34154  0.75069  1.0000
  C   C125      1.0  0.16682  0.35593  0.73808  1.0000
  C   C126      1.0  0.16629  0.36200  0.71507  1.0000
  C   C127      1.0  0.15133  0.35375  0.70471  1.0000
  H   H226      1.0  0.12688  0.32126  0.74987  1.0000
  H   H227      1.0  0.15248  0.33697  0.76855  1.0000
  H   H228      1.0  0.17741  0.37305  0.70525  1.0000
  H   H229      1.0  0.15083  0.35869  0.68697  1.0000
  H   H230      1.0  0.10561  0.20444  0.75136  1.0000
  H   H231      1.0  0.05857  0.24166  0.66993  1.0000
  C   C128      1.0  0.04018  0.24219  0.67221  1.0000
  H   H232      1.0  0.19382  0.21674  0.69489  1.0000
  H   H233      1.0  0.17573  0.31063  0.69467  1.0000
  H   H234      1.0  0.16987  0.30771  0.80923  1.0000
  C   C129      1.0  0.13999  0.26940  0.61955  1.0000
  C   C130      1.0  0.13254  0.27988  0.63863  1.0000
  C   C131      1.0  0.12057  0.26892  0.65762  1.0000
  C   C132      1.0  0.11586  0.24741  0.65763  1.0000
  C   C133      1.0  0.12322  0.23681  0.63858  1.0000
  C   C134      1.0  0.13553  0.24772  0.61960  1.0000
  H   H235      1.0  0.13678  0.29610  0.63919  1.0000
  H   H236      1.0  0.11555  0.27699  0.67242  1.0000
  H   H237      1.0  0.11955  0.22017  0.63853  1.0000
  H   H238      1.0  0.14140  0.23949  0.60493  1.0000
  H   H239      1.0  0.18214  0.39232  0.79089  1.0000
  C   C135      1.0  0.02772  0.30725  0.66110  1.0000
  S   S44       1.0  0.01939  0.29609  0.73655  1.0000
  Fe  Fe21      1.0  0.24215  0.37779  0.68064  1.0000
  H   H240      1.0  0.20269  0.29561  0.68470  1.0000
  H   H241      1.0  0.19227  0.32310  0.79617  1.0000
  H   H242      1.0  0.08580  0.27208  0.59827  1.0000
  C   C136      1.0  0.16688  0.20697  0.68082  1.0000
  H   H243      1.0  0.22806  0.25127  0.78405  1.0000
  H   H244      1.0  0.18350  0.20107  0.75379  1.0000
  H   H245      1.0  0.21675  0.28618  0.79051  1.0000
  H   H246      1.0  0.19961  0.32525  0.68602  1.0000
  C   C137      1.0  0.17354  0.24658  0.68183  1.0000
  H   H247      1.0  0.01469  0.23648  0.70183  1.0000
  H   H248      1.0  0.22562  0.23177  0.76643  1.0000
  C   C138      1.0  0.23213  0.24747  0.76674  1.0000
  H   H249      1.0  0.19359  0.36373  0.62631  1.0000
  C   C139      1.0  0.15451  0.24948  0.97561  1.0000
  H   H250      1.0  0.18161  0.24725  0.66412  1.0000
  H   H251      1.0  0.23109  0.28139  0.74913  1.0000
  H   H252      1.0  0.20828  0.19053  0.51680  1.0000
  H   H253      1.0  0.16814  0.45661  0.76207  1.0000
  C   C140      1.0  0.18719  0.37863  0.80430  1.0000
  H   H254      1.0  0.18164  0.25698  0.69028  1.0000
  C   C141      1.0  0.23538  0.18328  0.79651  1.0000
  H   H255      1.0  0.24474  0.27801  0.96161  1.0000
  H   H256      1.0  0.21559  0.36173  0.83530  1.0000
  C   C142      1.0  0.20980  0.25476  0.50030  1.0000
  Fe  Fe22      1.0  0.23511  0.25817  0.60278  1.0000
  H   H257      1.0  0.21324  0.13768  0.71685  1.0000
  C   C143      1.0  0.17646  0.27404  0.98702  1.0000
  N   N9        1.0  0.02925  0.26458  0.66159  1.0000
  H   H258      1.0  0.16627  0.38258  0.55339  1.0000
  C   C144      1.0  0.03611  0.28288  0.67142  1.0000
  C   C145      1.0  0.03302  0.23596  0.69773  1.0000
  H   H259      1.0  0.23885  0.34878  0.60807  1.0000
  H   H260      1.0  0.21152  0.08523  0.66177  1.0000
  C   C146      1.0  0.04372  0.21230  0.70629  1.0000
  H   H261      1.0  0.18107  0.38442  0.82081  1.0000
  C   C147      1.0  0.23435  0.32005  0.85639  1.0000
  H   H262      1.0  0.20814  0.18031  0.68159  1.0000
  H   H263      1.0  0.05461  0.28067  0.67032  1.0000
  S   S45       1.0  0.24232  0.35415  0.71283  1.0000
  H   H264      1.0  0.03839  0.24761  0.70709  1.0000
  H   H265      1.0  0.02652  0.28117  0.62761  1.0000
  C   C148      1.0  0.23589  0.15187  0.63926  1.0000
  Fe  Fe23      1.0  0.23751  0.41963  0.70353  1.0000
  H   H266      1.0  0.21960  0.15049  0.64890  1.0000
  H   H267      1.0  0.14432  0.26455  0.96741  1.0000
  H   H268      1.0  0.03826  0.19974  0.69807  1.0000
  H   H269      1.0  0.15563  0.25380  0.68228  1.0000
  C   C149      1.0  0.24106  0.33506  0.62161  1.0000
  H   H270      1.0  0.22628  0.18685  0.55034  1.0000
  H   H271      1.0  0.09377  0.35471  0.65052  1.0000
  H   H272      1.0  0.22858  0.19959  0.80124  1.0000
  C   C150      1.0  0.24495  0.15827  0.76806  1.0000
  H   H273      1.0  0.16497  0.32138  0.61224  1.0000
  H   H274      1.0  0.15172  0.36255  0.54557  1.0000
  H   H275      1.0  0.20055  0.39937  0.63699  1.0000
  H   H276      1.0  0.14104  0.34299  0.65294  1.0000
  C   C151      1.0  0.16771  0.39066  0.63613  1.0000
  C   C152      1.0  0.15715  0.15833  0.64010  1.0000
  C   C153      1.0  0.23767  0.22733  0.99230  1.0000
  H   H277      1.0  0.20411  0.29257  0.62161  1.0000
  H   H278      1.0  0.14454  0.34487  0.58472  1.0000
  H   H279      1.0  0.17600  0.22834  0.92527  1.0000
  H   H280      1.0  0.18275  0.22445  0.96428  1.0000
  C   C154      1.0  0.23778  0.16643  0.61898  1.0000
  C   C155      1.0  0.12203  0.34443  0.62559  1.0000
  H   H281      1.0  0.15136  0.22196  0.94430  1.0000
  C   C156      1.0  0.17576  0.36540  0.63446  1.0000
  H   H282      1.0  0.23061  0.30164  0.89018  1.0000
  C   C157      1.0  0.16667  0.16795  0.67584  1.0000
  H   H283      1.0  0.17380  0.34445  0.57528  1.0000
  H   H284      1.0  0.17432  0.15985  0.63124  1.0000
  H   H285      1.0  0.23339  0.14563  0.69322  1.0000
  H   H286      1.0  0.18537  0.39023  0.66414  1.0000
  H   H287      1.0  0.21287  0.08347  0.69126  1.0000
  H   H288      1.0  0.12889  0.32893  0.61834  1.0000
  H   H289      1.0  0.14621  0.38206  0.60085  1.0000
  H   H290      1.0  0.13142  0.36990  0.63996  1.0000
  C   C158      1.0  0.10171  0.33949  0.64294  1.0000
  C   C159      1.0  0.21266  0.37249  0.80093  1.0000
  C   C160      1.0  0.17991  0.17438  0.70919  1.0000
  C   C161      1.0  0.18376  0.40005  0.64733  1.0000
  H   H291      1.0  0.23963  0.31116  0.81217  1.0000
  C   C162      1.0  0.15793  0.35549  0.58012  1.0000
  Fe  Fe24      1.0  0.21671  0.21743  0.59432  1.0000
  Fe  Fe25      1.0  0.22993  0.25235  0.55502  1.0000
  H   H292      1.0  0.11603  0.35743  0.61203  1.0000
  H   H293      1.0  0.16675  0.40086  0.61941  1.0000
  C   C163      1.0  0.13951  0.35305  0.63619  1.0000
  H   H294      1.0  0.08923  0.33389  0.63476  1.0000
  N   N10       1.0  0.19708  0.27433  0.75400  1.0000
  C   C164      1.0  0.18415  0.25541  0.76475  1.0000
  C   C165      1.0  0.19111  0.29283  0.76840  1.0000
  C   C166      1.0  0.18911  0.28374  0.73175  1.0000
  C   C167      1.0  0.22209  0.26691  0.74987  1.0000
  H   H295      1.0  0.19195  0.26818  0.97593  1.0000
  C   C168      1.0  0.18556  0.23659  0.75020  1.0000
  C   C169      1.0  0.19991  0.30404  0.71817  1.0000
  C   C170      1.0  0.19834  0.28766  0.79195  1.0000
  C   C171      1.0  0.18833  0.30673  0.80551  1.0000
  C   C172      1.0  0.17284  0.24022  0.95725  1.0000
  C   C173      1.0  0.17944  0.21476  0.76423  1.0000
  C   C174      1.0  0.19407  0.30914  0.69442  1.0000
  H   H296      1.0  0.16604  0.26198  0.76889  1.0000
  H   H297      1.0  0.18933  0.24766  0.78119  1.0000
  H   H298      1.0  0.19881  0.30788  0.76021  1.0000
  H   H299      1.0  0.17265  0.29828  0.77053  1.0000
  H   H300      1.0  0.17057  0.28882  0.73413  1.0000
  H   H301      1.0  0.19259  0.27069  0.72053  1.0000
  C   C175      1.0  0.23347  0.22770  0.95316  1.0000
  H   H302      1.0  0.21176  0.47719  0.74982  1.0000
  C   C176      1.0  0.03728  0.32431  0.67086  1.0000
  C   C177      1.0  0.24130  0.24968  0.98760  1.0000
  H   H303      1.0  0.17357  0.24212  0.73794  1.0000
  H   H304      1.0  0.20250  0.23296  0.74064  1.0000
  H   H305      1.0  0.21840  0.30106  0.71689  1.0000
  H   H306      1.0  0.19363  0.31928  0.72605  1.0000
  H   H307      1.0  0.19291  0.27204  0.80159  1.0000
  C   C178      1.0  0.03678  0.26673  0.63658  1.0000
  C   C179      1.0  0.11010  0.19412  0.73752  1.0000
  H   H308      1.0  0.05772  0.28525  0.59470  1.0000
  H   H309      1.0  0.03383  0.25179  0.63001  1.0000
  H   H310      1.0  0.21053  0.29994  0.98185  1.0000
  H   H311      1.0  0.10673  0.32590  0.65648  1.0000
  C   C180      1.0  0.18204  0.31634  0.64116  1.0000
  C   C181      1.0  0.16037  0.36804  0.59949  1.0000
  H   H312      1.0  0.13314  0.17206  0.66560  1.0000
  H   H313      1.0  0.15641  0.14063  0.64782  1.0000
  H   H314      1.0  0.17885  0.20597  0.66497  1.0000
  C   C182      1.0  0.17477  0.33109  0.61962  1.0000
  H   H315      1.0  0.15094  0.21599  0.67528  1.0000
  S   S46       1.0  0.24543  0.17046  0.83987  1.0000
  H   H316      1.0  0.21768  0.32998  0.86055  1.0000
  S   S47       1.0  0.22653  0.21359  0.93291  1.0000
  S   S48       1.0  0.24618  0.15406  0.74003  1.0000
  H   H317      1.0  0.17731  0.41779  0.64941  1.0000
  C   C183      1.0  0.06778  0.27043  0.60328  1.0000
  C   C184      1.0  0.23748  0.24996  0.94832  1.0000
  H   H318      1.0  0.16509  0.15056  0.68437  1.0000
  H   H319      1.0  0.21449  0.17884  0.70903  1.0000
  H   H320      1.0  0.13191  0.21609  0.71789  1.0000
  H   H321      1.0  0.14310  0.23672  0.98075  1.0000
  H   H322      1.0  0.12753  0.19023  0.69386  1.0000
  H   H323      1.0  0.22780  0.10281  0.67126  1.0000
  H   H324      1.0  0.19955  0.28306  0.65124  1.0000
  C   C185      1.0  0.15059  0.17392  0.65793  1.0000
  H   H325      1.0  0.17570  0.37609  0.59319  1.0000
  H   H326      1.0  0.11021  0.17625  0.74499  1.0000
  C   C186      1.0  0.21523  0.14669  0.69941  1.0000
  C   C187      1.0  0.23585  0.17932  0.77440  1.0000
  H   H327      1.0  0.02969  0.28169  0.68967  1.0000
  H   H328      1.0  0.99775  0.26849  0.68394  1.0000
  H   H329      1.0  0.20987  0.34022  0.82179  1.0000
  C   C188      1.0  0.23393  0.21638  0.97512  1.0000
  S   S49       1.0  0.21343  0.18183  0.60954  1.0000
  H   H330      1.0  0.18381  0.16712  0.66624  1.0000
  H   H331      1.0  0.23110  0.19909  0.97891  1.0000
  H   H332      1.0  0.19607  0.44191  0.75623  1.0000
  H   H333      1.0  0.17845  0.18512  0.72233  1.0000
  H   H334      1.0  0.15098  0.19135  0.64929  1.0000
  C   C189      1.0  0.22040  0.35376  0.81975  1.0000
  H   H335      1.0  0.13654  0.38289  0.56284  1.0000
  C   C190      1.0  0.24321  0.31067  0.87857  1.0000
  H   H336      1.0  0.19556  0.32318  0.64655  1.0000
  C   C191      1.0  0.15280  0.37199  0.55925  1.0000
  H   H337      1.0  0.16794  0.31532  0.65507  1.0000
  C   C192      1.0  0.13312  0.19804  0.72478  1.0000
  H   H338      1.0  0.14485  0.19402  0.73728  1.0000
  H   H339      1.0  0.13730  0.16622  0.71237  1.0000
  H   H340      1.0  0.15105  0.39319  0.64651  1.0000
  H   H341      1.0  0.19044  0.33251  0.60751  1.0000
  H   H342      1.0  0.17789  0.28363  0.63471  1.0000
  S   S50       1.0  0.20434  0.24277  0.61749  1.0000
  N   N11       1.0  0.16354  0.18382  0.69292  1.0000
  C   C193      1.0  0.20505  0.17134  0.69892  1.0000
  C   C194      1.0  0.14006  0.18376  0.70543  1.0000
  H   H343      1.0  0.20732  0.13833  0.68876  1.0000
  C   C195      1.0  0.24481  0.47799  0.70074  1.0000
  H   H344      1.0  0.05578  0.32222  0.66657  1.0000
  H   H345      1.0  0.21975  0.38795  0.80124  1.0000
  H   H346      1.0  0.21788  0.36762  0.78404  1.0000
  S   S51       1.0  0.22985  0.45772  0.69523  1.0000
  C   C196      1.0  0.22256  0.08597  0.67417  1.0000
  H   H347      1.0  0.03266  0.31012  0.64267  1.0000
  C   C197      1.0  0.24528  0.32170  0.66042  1.0000
  H   H348      1.0  0.03040  0.34157  0.66381  1.0000
  Fe  Fe26      1.0  0.23498  0.20422  0.85218  1.0000
  C   C198      1.0  0.00407  0.26650  0.66607  1.0000
  H   H349      1.0  0.22970  0.16623  0.51820  1.0000
  N   N12       1.0  0.24491  0.34385  0.81745  1.0000
  C   C199      1.0  0.24520  0.32989  0.77949  1.0000
  H   H350      1.0  0.23214  0.21187  0.53156  1.0000
  C   C200      1.0  0.24379  0.16606  0.81244  1.0000
  C   C201      1.0  0.22659  0.18480  0.51512  1.0000
  H   H351      1.0  0.23728  0.25880  0.93144  1.0000
  C   C202      1.0  0.24159  0.26082  0.96546  1.0000
  H   H352      1.0  0.00922  0.31093  0.66487  1.0000
  C   C203      1.0  0.99862  0.27972  0.73504  1.0000
  C   C204      1.0  0.24293  0.06771  0.67241  1.0000
  H   H353      1.0  0.24317  0.21686  0.66766  1.0000
  H   H354      1.0  0.23652  0.05143  0.67596  1.0000
  C   C205      1.0  0.24245  0.33956  0.64302  1.0000
  H   H355      1.0  0.24284  0.30962  0.60061  1.0000
  S   S52       1.0  0.24249  0.36751  0.64670  1.0000
  C   C206      1.0  0.23250  0.25700  0.49651  1.0000
  C   C207      1.0  0.23520  0.19327  0.53371  1.0000
  C   C208      1.0  0.24532  0.01531  0.71259  1.0000
  H   H356      1.0  0.24598  0.32501  0.67704  1.0000
  H   H357      1.0  0.24614  0.07325  0.63616  1.0000
  H   H358      1.0  0.24653  0.32437  0.88677  1.0000
  H   H359      1.0  0.21156  0.89966  0.10559  1.0000
  H   H360      1.0  0.14628  0.74027  0.14588  1.0000
  H   H361      1.0  0.14657  0.69392  0.17454  1.0000
  C   C209      1.0  0.21436  0.60474  0.26839  1.0000
  S   S53       1.0  0.22752  0.87840  0.18240  1.0000
  H   H362      1.0  0.17342  0.65149  0.11891  1.0000
  H   H363      1.0  0.21463  0.68724  0.33698  1.0000
  H   H364      1.0  0.15037  0.80814  0.15290  1.0000
  H   H365      1.0  0.19204  0.64819  0.15145  1.0000
  S   S54       1.0  0.19074  0.84240  0.22949  1.0000
  C   C210      1.0  0.21151  0.64112  0.19279  1.0000
  C   C211      1.0  0.21259  0.67129  0.30079  1.0000
  Fe  Fe27      1.0  0.14516  0.68181  0.26345  1.0000
  S   S55       1.0  0.11789  0.69407  0.28989  1.0000
  S   S56       1.0  0.15505  0.64461  0.26406  1.0000
  Fe  Fe28      1.0  0.15245  0.72882  0.24164  1.0000
  S   S57       1.0  0.12563  0.74482  0.26626  1.0000
  S   S58       1.0  0.17561  0.74655  0.21418  1.0000
  Fe  Fe29      1.0  0.14059  0.71860  0.29213  1.0000
  S   S59       1.0  0.14678  0.72518  0.32576  1.0000
  Fe  Fe30      1.0  0.10544  0.71884  0.26154  1.0000
  S   S60       1.0  0.06865  0.72959  0.25784  1.0000
  S   S61       1.0  0.16873  0.70430  0.26782  1.0000
  S   S62       1.0  0.13129  0.70480  0.23478  1.0000
  H   H366      1.0  0.22050  0.70925  0.14013  1.0000
  H   H367      1.0  0.18149  0.64797  0.21618  1.0000
  C   C212      1.0  0.05260  0.71238  0.24869  1.0000
  C   C213      1.0  0.03156  0.72180  0.24250  1.0000
  C   C214      1.0  0.01795  0.70850  0.23590  1.0000
  C   C215      1.0  0.02500  0.68554  0.23595  1.0000
  C   C216      1.0  0.04622  0.67618  0.24171  1.0000
  C   C217      1.0  0.06000  0.68953  0.24804  1.0000
  H   H368      1.0  0.02586  0.73952  0.24264  1.0000
  H   H369      1.0  0.13347  0.65236  0.18430  1.0000
  H   H370      1.0  0.05190  0.65845  0.24158  1.0000
  H   H371      1.0  0.07617  0.68208  0.25275  1.0000
  C   C218      1.0  0.17411  0.72906  0.32798  1.0000
  C   C219      1.0  0.19038  0.73084  0.30903  1.0000
  C   C220      1.0  0.21260  0.73159  0.31134  1.0000
  C   C221      1.0  0.21873  0.73070  0.33254  1.0000
  C   C222      1.0  0.20225  0.73038  0.35141  1.0000
  C   C223      1.0  0.17996  0.72953  0.34910  1.0000
  H   H372      1.0  0.18594  0.73133  0.29260  1.0000
  H   H373      1.0  0.19023  0.79726  0.37459  1.0000
  H   H374      1.0  0.20690  0.72936  0.36789  1.0000
  H   H375      1.0  0.16739  0.72835  0.36383  1.0000
  C   C224      1.0  0.17564  0.64197  0.15440  1.0000
  H   H376      1.0  0.20460  0.59987  0.20077  1.0000
  C   C225      1.0  0.21740  0.72654  0.14454  1.0000
  N   N13       1.0  0.20967  0.65815  0.32406  1.0000
  H   H377      1.0  0.18346  0.62223  0.12678  1.0000
  H   H378      1.0  0.20796  0.93540  0.27071  1.0000
  H   H379      1.0  0.21175  0.92446  0.16005  1.0000
  C   C226      1.0  0.18646  0.81614  0.22435  1.0000
  C   C227      1.0  0.20140  0.80432  0.20902  1.0000
  C   C228      1.0  0.19779  0.78309  0.20579  1.0000
  C   C229      1.0  0.17954  0.77338  0.21821  1.0000
  C   C230      1.0  0.16453  0.78536  0.23334  1.0000
  C   C231      1.0  0.16781  0.80678  0.23616  1.0000
  H   H380      1.0  0.21551  0.81169  0.19944  1.0000
  H   H381      1.0  0.20909  0.77419  0.19363  1.0000
  H   H382      1.0  0.15011  0.77839  0.24257  1.0000
  H   H383      1.0  0.15584  0.81612  0.24754  1.0000
  C   C232      1.0  0.17795  0.72228  0.15757  1.0000
  C   C233      1.0  0.16717  0.79808  0.15377  1.0000
  H   H384      1.0  0.21717  0.80414  0.36094  1.0000
  H   H385      1.0  0.15629  0.71415  0.13581  1.0000
  H   H386      1.0  0.20305  0.76987  0.14009  1.0000
  C   C234      1.0  0.22044  0.66344  0.18916  1.0000
  C   C235      1.0  0.19137  0.61272  0.27006  1.0000
  C   C236      1.0  0.18388  0.63514  0.26216  1.0000
  C   C237      1.0  0.19942  0.64946  0.25218  1.0000
  H   H387      1.0  0.23753  0.90819  0.28683  1.0000
  H   H388      1.0  0.17939  0.60154  0.27765  1.0000
  H   H389      1.0  0.16003  0.58322  0.22210  1.0000
  H   H390      1.0  0.22493  0.79757  0.14355  1.0000
  C   C238      1.0  0.18481  0.66036  0.33237  1.0000
  C   C239      1.0  0.17029  0.65236  0.31769  1.0000
  C   C240      1.0  0.14643  0.65144  0.32973  1.0000
  H   H391      1.0  0.17873  0.65968  0.18852  1.0000
  H   H392      1.0  0.20364  0.68866  0.30110  1.0000
  H   H393      1.0  0.17786  0.67816  0.33423  1.0000
  H   H394      1.0  0.18157  0.65053  0.34935  1.0000
  H   H395      1.0  0.17740  0.63546  0.31336  1.0000
  H   H396      1.0  0.16901  0.66424  0.30197  1.0000
  H   H397      1.0  0.14635  0.63898  0.34523  1.0000
  H   H398      1.0  0.13855  0.66820  0.33409  1.0000
  H   H399      1.0  0.13633  0.64638  0.31850  1.0000
  C   C241      1.0  0.19069  0.74012  0.11821  1.0000
  H   H400      1.0  0.19747  0.66820  0.37110  1.0000
  H   H401      1.0  0.21440  0.67244  0.20385  1.0000
  H   H402      1.0  0.20462  0.66405  0.28932  1.0000
  C   C242      1.0  0.15462  0.72301  0.15054  1.0000
  H   H403      1.0  0.10421  0.63762  0.21385  1.0000
  H   H404      1.0  0.22526  0.73219  0.29673  1.0000
  C   C243      1.0  0.17607  0.62083  0.17254  1.0000
  H   H405      1.0  0.22626  0.86015  0.11935  1.0000
  C   C244      1.0  0.22240  0.64137  0.25018  1.0000
  H   H406      1.0  0.17985  0.95332  0.15032  1.0000
  H   H407      1.0  0.14052  0.79986  0.28598  1.0000
  C   C245      1.0  0.22986  0.61912  0.25854  1.0000
  H   H408      1.0  0.24452  0.65617  0.28383  1.0000
  C   C246      1.0  0.18793  0.72150  0.08485  1.0000
  C   C247      1.0  0.11309  0.65116  0.21637  1.0000
  H   H409      1.0  0.19394  0.73586  0.07302  1.0000
  C   C248      1.0  0.22022  0.66887  0.33930  1.0000
  N   N14       1.0  0.17485  0.62438  0.19664  1.0000
  H   H410      1.0  0.19178  0.60969  0.16717  1.0000
  H   H411      1.0  0.22543  0.74141  0.17208  1.0000
  N   N15       1.0  0.19348  0.73713  0.14264  1.0000
  H   H412      1.0  0.19395  0.88699  0.30324  1.0000
  C   C249      1.0  0.21173  0.79984  0.31750  1.0000
  H   H413      1.0  0.14119  0.79346  0.31595  1.0000
  H   H414      1.0  0.21696  0.78136  0.31855  1.0000
  H   H415      1.0  0.18572  0.70435  0.15884  1.0000
  H   H416      1.0  0.17984  0.79347  0.33851  1.0000
  C   C250      1.0  0.19014  0.75996  0.14999  1.0000
  C   C251      1.0  0.19759  0.71871  0.10679  1.0000
  C   C252      1.0  0.17139  0.63674  0.13207  1.0000
  H   H417      1.0  0.11468  0.64959  0.23444  1.0000
  H   H418      1.0  0.10282  0.66757  0.21161  1.0000
  C   C253      1.0  0.20342  0.79478  0.35999  1.0000
  H   H419      1.0  0.14181  0.61424  0.20482  1.0000
  H   H420      1.0  0.18379  0.54645  0.22483  1.0000
  H   H421      1.0  0.20916  0.62293  0.33719  1.0000
  C   C254      1.0  0.13616  0.65007  0.20203  1.0000
  C   C255      1.0  0.21884  0.63362  0.32373  1.0000
  H   H422      1.0  0.21696  0.63327  0.17740  1.0000
  H   H423      1.0  0.01171  0.68442  0.28776  1.0000
  H   H424      1.0  0.20087  0.75289  0.10829  1.0000
  H   H425      1.0  0.15427  0.76697  0.16180  1.0000
  H   H426      1.0  0.17328  0.74709  0.11564  1.0000
  C   C256      1.0  0.22921  0.63551  0.09998  1.0000
  C   C257      1.0  0.23934  0.97829  0.19974  1.0000
  H   H427      1.0  0.16172  0.77631  0.13208  1.0000
  H   H428      1.0  0.21664  0.77804  0.28232  1.0000
  H   H429      1.0  0.19204  0.70374  0.11786  1.0000
  C   C258      1.0  0.18568  0.64413  0.19875  1.0000
  H   H430      1.0  0.15054  0.62480  0.22668  1.0000
  C   C259      1.0  0.18706  0.60368  0.20918  1.0000
  C   C260      1.0  0.15087  0.62732  0.20815  1.0000
  H   H431      1.0  0.17130  0.79742  0.17087  1.0000
  C   C261      1.0  0.13902  0.71146  0.16946  1.0000
  H   H432      1.0  0.16244  0.61156  0.17094  1.0000
  H   H433      1.0  0.12280  0.71134  0.16375  1.0000
  H   H434      1.0  0.22012  0.58751  0.27487  1.0000
  H   H435      1.0  0.13573  0.72063  0.18416  1.0000
  H   H436      1.0  0.14370  0.66422  0.20518  1.0000
  H   H437      1.0  0.23447  0.65228  0.24217  1.0000
  H   H438      1.0  0.20882  0.93622  0.10922  1.0000
  H   H439      1.0  0.14361  0.77122  0.29947  1.0000
  H   H440      1.0  0.19517  0.87924  0.27585  1.0000
  C   C262      1.0  0.20443  0.92373  0.14488  1.0000
  H   H441      1.0  0.16258  0.65581  0.15928  1.0000
  H   H442      1.0  0.20383  0.90596  0.14377  1.0000
  H   H443      1.0  0.18835  0.60666  0.22635  1.0000
  H   H444      1.0  0.20448  0.84781  0.31923  1.0000
  C   C263      1.0  0.16695  0.77445  0.14883  1.0000
  H   H445      1.0  0.16936  0.72427  0.08804  1.0000
  H   H446      1.0  0.17507  0.57798  0.19497  1.0000
  H   H447      1.0  0.18045  0.77510  0.30930  1.0000
  H   H448      1.0  0.17972  0.85116  0.30579  1.0000
  H   H449      1.0  0.19345  0.70611  0.07687  1.0000
  H   H450      1.0  0.22037  0.87559  0.28853  1.0000
  H   H451      1.0  0.22409  0.55007  0.17708  1.0000
  H   H452      1.0  0.03970  0.71519  0.33650  1.0000
  H   H453      1.0  0.22917  0.73596  0.13218  1.0000
  H   H454      1.0  0.21611  0.71545  0.10272  1.0000
  H   H455      1.0  0.17538  0.72611  0.17506  1.0000
  H   H456      1.0  0.21508  0.67404  0.17384  1.0000
  H   H457      1.0  0.00554  0.64904  0.31267  1.0000
  H   H458      1.0  0.19286  0.56488  0.24041  1.0000
  H   H459      1.0  0.20837  0.55936  0.21356  1.0000
  H   H460      1.0  0.15412  0.63285  0.13355  1.0000
  C   C264      1.0  0.17674  0.58181  0.21165  1.0000
  H   H461      1.0  0.24030  0.93611  0.08293  1.0000
  C   C265      1.0  0.24456  0.79654  0.27361  1.0000
  C   C266      1.0  0.21895  0.79598  0.27749  1.0000
  Fe  Fe31      1.0  0.22348  0.85430  0.21424  1.0000
  C   C267      1.0  0.21469  0.66058  0.36475  1.0000
  H   H462      1.0  0.20996  0.77660  0.36101  1.0000
  C   C268      1.0  0.23047  0.61708  0.11698  1.0000
  H   H463      1.0  0.19250  0.75842  0.16776  1.0000
  C   C269      1.0  0.20218  0.87466  0.29191  1.0000
  H   H464      1.0  0.22289  0.91873  0.24982  1.0000
  H   H465      1.0  0.17959  0.80658  0.14132  1.0000
  H   H466      1.0  0.21648  0.62845  0.30776  1.0000
  H   H467      1.0  0.22525  0.68673  0.25666  1.0000
  H   H468      1.0  0.21298  0.80140  0.26089  1.0000
  C   C270      1.0  0.23679  0.67268  0.28885  1.0000
  H   H469      1.0  0.18618  0.82090  0.33841  1.0000
  C   C271      1.0  0.22499  0.72462  0.16782  1.0000
  H   H470      1.0  0.21737  0.95285  0.12621  1.0000
  H   H471      1.0  0.20747  0.83967  0.27041  1.0000
  C   C272      1.0  0.14815  0.78802  0.29943  1.0000
  H   H472      1.0  0.19374  0.66665  0.24562  1.0000
  C   C273      1.0  0.22434  0.93152  0.26013  1.0000
  H   H473      1.0  0.21935  0.63008  0.20663  1.0000
  S   S63       1.0  0.00770  0.66799  0.22921  1.0000
  H   H474      1.0  0.17655  0.81970  0.27714  1.0000
  C   C274      1.0  0.24257  0.92297  0.27502  1.0000
  C   C275      1.0  0.19805  0.85107  0.30289  1.0000
  H   H475      1.0  0.17983  0.77938  0.27958  1.0000
  C   C276      1.0  0.23694  0.68979  0.26742  1.0000
  H   H476      1.0  0.23908  0.82708  0.15785  1.0000
  H   H477      1.0  0.21356  0.71581  0.18115  1.0000
  H   H478      1.0  0.17179  0.93484  0.13382  1.0000
  C   C277      1.0  0.18031  0.93555  0.14827  1.0000
  C   C278      1.0  0.00862  0.71449  0.32418  1.0000
  H   H479      1.0  0.22209  0.98255  0.19687  1.0000
  C   C279      1.0  0.17359  0.78666  0.29532  1.0000
  H   H480      1.0  0.22812  0.94707  0.24880  1.0000
  C   C280      1.0  0.23012  0.53474  0.16910  1.0000
  H   H481      1.0  0.01135  0.69592  0.32689  1.0000
  S   S64       1.0  0.23449  0.93540  0.19614  1.0000
  C   C281      1.0  0.19138  0.56195  0.22331  1.0000
  C   C282      1.0  0.19362  0.80315  0.33823  1.0000
  H   H482      1.0  0.22684  0.80642  0.32008  1.0000
  H   H483      1.0  0.20717  0.76398  0.00147  1.0000
  H   H484      1.0  0.23502  0.90070  0.08347  1.0000
  H   H485      1.0  0.16985  0.81895  0.30635  1.0000
  H   H486      1.0  0.22845  0.83383  0.28805  1.0000
  H   H487      1.0  0.00912  0.72104  0.28821  1.0000
  C   C283      1.0  0.24385  0.89985  0.11709  1.0000
  N   N16       1.0  0.20526  0.80982  0.29469  1.0000
  C   C284      1.0  0.18087  0.81001  0.29336  1.0000
  C   C285      1.0  0.21050  0.83345  0.28799  1.0000
  H   H488      1.0  0.22513  0.66300  0.39633  1.0000
  C   C286      1.0  0.22959  0.89354  0.10109  1.0000
  H   H489      1.0  0.04269  0.71541  0.30667  1.0000
  H   H490      1.0  0.23951  0.97125  0.09973  1.0000
  C   C287      1.0  0.03166  0.72190  0.32129  1.0000
  H   H491      1.0  0.21560  0.64208  0.36820  1.0000
  H   H492      1.0  0.23066  0.68600  0.37447  1.0000
  H   H493      1.0  0.22020  0.53527  0.15538  1.0000
  H   H494      1.0  0.03021  0.74048  0.31869  1.0000
  C   C288      1.0  0.23060  0.66757  0.37810  1.0000
  H   H495      1.0  0.00206  0.71599  0.23059  1.0000
  C   C289      1.0  0.24056  0.80302  0.13545  1.0000
  C   C290      1.0  0.23779  0.65481  0.10159  1.0000
  H   H496      1.0  0.17103  0.92707  0.16369  1.0000
  C   C291      1.0  0.23208  0.86813  0.10211  1.0000
  C   C292      1.0  0.21809  0.93518  0.12360  1.0000
  Fe  Fe32      1.0  0.24463  0.89752  0.20112  1.0000
  H   H497      1.0  0.22185  0.86395  0.09050  1.0000
  H   H498      1.0  0.99866  0.72076  0.33932  1.0000
  H   H499      1.0  0.23960  0.89042  0.13408  1.0000
  H   H500      1.0  0.24281  0.93616  0.28520  1.0000
  H   H501      1.0  0.23866  0.66706  0.33481  1.0000
  H   H502      1.0  0.23179  0.70704  0.27154  1.0000
  H   H503      1.0  0.22185  0.63468  0.08532  1.0000
  H   H504      1.0  0.24510  0.76383  0.20759  1.0000
  H   H505      1.0  0.01060  0.64519  0.28356  1.0000
  H   H506      1.0  0.22392  0.60218  0.11542  1.0000
  H   H507      1.0  0.22731  0.51991  0.18188  1.0000
  S   S65       1.0  0.23765  0.87497  0.23384  1.0000
  S   S66       1.0  0.23671  0.67691  0.07913  1.0000
  S   S67       1.0  0.24070  0.77441  0.10569  1.0000
  H   H508      1.0  0.23901  0.66027  0.18692  1.0000
  H   H509      1.0  0.24117  0.59056  0.33666  1.0000
  C   C293      1.0  0.24020  0.61778  0.13585  1.0000
  C   C294      1.0  0.24378  0.62612  0.32680  1.0000
  S   S68       1.0  0.24054  0.59427  0.15687  1.0000
  C   C295      1.0  0.99860  0.65334  0.29660  1.0000
  N   N17       1.0  0.24210  0.92456  0.11811  1.0000
  H   H510      1.0  0.24642  0.62781  0.34389  1.0000
  C   C296      1.0  0.99687  0.72420  0.30343  1.0000
  H   H511      1.0  0.23715  0.76205  0.99490  1.0000
  C   C297      1.0  0.21898  0.77583  0.96661  1.0000
  C   C298      1.0  0.20228  0.74764  0.90300  1.0000
  H   H512      1.0  0.00429  0.70072  0.77582  1.0000
  S   S69       1.0  0.21283  0.87032  0.74598  1.0000
  H   H513      1.0  0.20747  0.65695  0.77944  1.0000
  H   H514      1.0  0.19450  0.64816  0.84297  1.0000
  C   C299      1.0  0.23943  0.50043  0.69110  1.0000
  Fe  Fe33      1.0  0.22037  0.60168  0.72849  1.0000
  S   S70       1.0  0.18419  0.60435  0.74369  1.0000
  C   C300      1.0  0.21296  0.75833  0.82243  1.0000
  H   H515      1.0  0.16465  0.54633  0.68377  1.0000
  Fe  Fe34      1.0  0.10406  0.77315  0.74634  1.0000
  S   S71       1.0  0.12548  0.76600  0.71411  1.0000
  S   S72       1.0  0.06961  0.79419  0.74843  1.0000
  Fe  Fe35      1.0  0.14083  0.74964  0.77378  1.0000
  S   S73       1.0  0.16520  0.74044  0.74374  1.0000
  S   S74       1.0  0.14844  0.73885  0.80900  1.0000
  Fe  Fe36      1.0  0.15347  0.77559  0.72813  1.0000
  S   S75       1.0  0.17637  0.79772  0.70515  1.0000
  Fe  Fe37      1.0  0.13517  0.73168  0.73266  1.0000
  S   S76       1.0  0.13395  0.70190  0.71609  1.0000
  S   S77       1.0  0.13146  0.78545  0.75908  1.0000
  S   S78       1.0  0.11156  0.73806  0.76393  1.0000
  H   H516      1.0  0.23552  0.80311  0.65351  1.0000
  H   H517      1.0  0.22728  0.64757  0.79795  1.0000
  C   C301      1.0  0.21738  0.69595  0.77647  1.0000
  H   H518      1.0  0.16274  0.57134  0.78643  1.0000
  C   C302      1.0  0.20408  0.66196  0.83486  1.0000
  C   C303      1.0  0.21029  0.69082  0.80224  1.0000
  N   N18       1.0  0.19910  0.67020  0.81120  1.0000
  H   H519      1.0  0.22494  0.87985  0.64086  1.0000
  H   H520      1.0  0.19700  0.84203  0.61677  1.0000
  H   H521      1.0  0.16585  0.66136  0.82170  1.0000
  H   H522      1.0  0.20369  0.69574  0.76690  1.0000
  C   C304      1.0  0.16996  0.63176  0.73780  1.0000
  C   C305      1.0  0.17957  0.65058  0.73923  1.0000
  C   C306      1.0  0.16799  0.67233  0.73397  1.0000
  C   C307      1.0  0.14721  0.67524  0.72648  1.0000
  C   C308      1.0  0.13770  0.65640  0.72509  1.0000
  C   C309      1.0  0.14879  0.63476  0.73120  1.0000
  H   H523      1.0  0.19584  0.64839  0.74448  1.0000
  H   H524      1.0  0.17538  0.68684  0.73512  1.0000
  H   H525      1.0  0.12173  0.65856  0.71911  1.0000
  H   H526      1.0  0.14127  0.62033  0.73004  1.0000
  C   C310      1.0  0.17404  0.67573  0.81226  1.0000
  C   C311      1.0  0.20139  0.74342  0.83817  1.0000
  C   C312      1.0  0.18099  0.73846  0.83438  1.0000
  C   C313      1.0  0.17251  0.74764  0.81442  1.0000
  C   C314      1.0  0.18380  0.76289  0.79880  1.0000
  C   C315      1.0  0.20383  0.76851  0.80300  1.0000
  H   H527      1.0  0.19944  0.70596  0.80778  1.0000
  H   H528      1.0  0.17199  0.72711  0.84672  1.0000
  H   H529      1.0  0.17719  0.77023  0.78346  1.0000
  H   H530      1.0  0.16739  0.68989  0.82190  1.0000
  C   C316      1.0  0.18843  0.81623  0.71711  1.0000
  C   C317      1.0  0.20096  0.83165  0.70302  1.0000
  C   C318      1.0  0.20958  0.84753  0.71188  1.0000
  C   C319      1.0  0.20534  0.84838  0.73491  1.0000
  C   C320      1.0  0.19342  0.83253  0.74914  1.0000
  C   C321      1.0  0.18508  0.81641  0.74027  1.0000
  H   H531      1.0  0.20344  0.83191  0.68514  1.0000
  H   H532      1.0  0.21872  0.85971  0.70078  1.0000
  H   H533      1.0  0.19020  0.83305  0.76701  1.0000
  H   H534      1.0  0.17568  0.80446  0.75133  1.0000
  C   C322      1.0  0.16509  0.68271  0.78959  1.0000
  H   H535      1.0  0.17510  0.62940  0.68586  1.0000
  C   C323      1.0  0.03353  0.75902  0.72047  1.0000
  C   C324      1.0  0.05122  0.76560  0.72855  1.0000
  C   C325      1.0  0.04772  0.78524  0.73827  1.0000
  C   C326      1.0  0.02633  0.79810  0.73999  1.0000
  H   H536      1.0  0.20091  0.68208  0.88577  1.0000
  H   H537      1.0  0.03643  0.74383  0.71292  1.0000
  H   H538      1.0  0.06759  0.75554  0.72714  1.0000
  H   H539      1.0  0.14833  0.52645  0.78264  1.0000
  H   H540      1.0  0.22606  0.68952  0.80947  1.0000
  N   N19       1.0  0.19569  0.70174  0.65963  1.0000
  C   C327      1.0  0.17198  0.71341  0.65906  1.0000
  C   C328      1.0  0.19646  0.67758  0.65675  1.0000
  C   C329      1.0  0.20246  0.70353  0.68176  1.0000
  C   C330      1.0  0.21176  0.71232  0.64101  1.0000
  C   C331      1.0  0.20565  0.71494  0.61702  1.0000
  C   C332      1.0  0.16806  0.73909  0.65940  1.0000
  H   H541      1.0  0.16733  0.52063  0.71952  1.0000
  C   C333      1.0  0.14354  0.74876  0.65818  1.0000
  H   H542      1.0  0.16076  0.70630  0.67376  1.0000
  H   H543      1.0  0.16530  0.71010  0.64431  1.0000
  H   H544      1.0  0.18883  0.67665  0.64174  1.0000
  H   H545      1.0  0.21401  0.66931  0.65315  1.0000
  H   H546      1.0  0.18987  0.69758  0.69588  1.0000
  H   H547      1.0  0.20243  0.72135  0.68338  1.0000
  H   H548      1.0  0.21403  0.72901  0.64428  1.0000
  S   S79       1.0  0.24568  0.70641  0.86899  1.0000
  H   H549      1.0  0.18903  0.72516  0.61569  1.0000
  H   H550      1.0  0.20550  0.69828  0.61222  1.0000
  H   H551      1.0  0.17208  0.74303  0.67518  1.0000
  H   H552      1.0  0.17832  0.74790  0.64501  1.0000
  H   H553      1.0  0.13520  0.66642  0.79929  1.0000
  H   H554      1.0  0.02350  0.81334  0.74743  1.0000
  C   C334      1.0  0.22608  0.69138  0.68591  1.0000
  H   H555      1.0  0.13113  0.69548  0.80378  1.0000
  H   H556      1.0  0.13247  0.74016  0.67211  1.0000
  H   H557      1.0  0.14076  0.76686  0.65981  1.0000
  H   H558      1.0  0.13883  0.74682  0.64194  1.0000
  H   H559      1.0  0.24425  0.77640  0.72528  1.0000
  H   H560      1.0  0.13694  0.56816  0.77756  1.0000
  H   H561      1.0  0.20798  0.73595  0.85343  1.0000
  H   H562      1.0  0.21816  0.72821  0.58278  1.0000
  H   H563      1.0  0.19128  0.85394  0.93389  1.0000
  H   H564      1.0  0.18023  0.49747  0.77549  1.0000
  H   H565      1.0  0.23152  0.68324  0.77094  1.0000
  H   H566      1.0  0.20864  0.69359  0.84520  1.0000
  H   H567      1.0  0.22151  0.74171  0.93010  1.0000
  C   C335      1.0  0.21690  0.52036  0.77106  1.0000
  H   H568      1.0  0.22266  0.66220  0.87344  1.0000
  H   H569      1.0  0.19319  0.66046  0.69162  1.0000
  H   H570      1.0  0.17399  0.52989  0.79105  1.0000
  C   C336      1.0  0.00859  0.79141  0.73205  1.0000
  H   H571      1.0  0.21687  0.79319  0.97050  1.0000
  H   H572      1.0  0.20200  0.82160  0.91341  1.0000
  S   S80       1.0  0.23191  0.91489  0.69133  1.0000
  C   C337      1.0  0.22527  0.71886  0.76985  1.0000
  H   H573      1.0  0.23560  0.84686  0.62127  1.0000
  H   H574      1.0  0.20131  0.63037  0.66777  1.0000
  H   H575      1.0  0.20492  0.87927  0.62263  1.0000
  H   H576      1.0  0.21188  0.50496  0.78165  1.0000
  H   H577      1.0  0.16688  0.67016  0.68136  1.0000
  H   H578      1.0  0.17263  0.67084  0.77779  1.0000
  S   S81       1.0  0.23180  0.58366  0.69865  1.0000
  H   H579      1.0  0.22107  0.76765  0.69197  1.0000
  N   N20       1.0  0.21177  0.80839  0.62989  1.0000
  C   C338      1.0  0.20395  0.83287  0.63190  1.0000
  C   C339      1.0  0.19248  0.79726  0.62688  1.0000
  C   C340      1.0  0.21987  0.79726  0.65170  1.0000
  H   H580      1.0  0.19951  0.81289  0.94308  1.0000
  H   H581      1.0  0.00570  0.71324  0.73477  1.0000
  C   C341      1.0  0.22464  0.77123  0.65545  1.0000
  C   C342      1.0  0.17474  0.81147  0.61284  1.0000
  C   C343      1.0  0.15942  0.79682  0.60691  1.0000
  H   H582      1.0  0.24347  0.81356  0.93780  1.0000
  H   H583      1.0  0.20306  0.59658  0.79394  1.0000
  H   H584      1.0  0.19900  0.78149  0.61961  1.0000
  H   H585      1.0  0.18260  0.79215  0.64352  1.0000
  H   H586      1.0  0.20741  0.80212  0.66608  1.0000
  H   H587      1.0  0.19827  0.87125  0.65271  1.0000
  H   H588      1.0  0.18643  0.56321  0.67246  1.0000
  C   C344      1.0  0.22972  0.69162  0.70999  1.0000
  H   H589      1.0  0.23722  0.76473  0.64192  1.0000
  H   H590      1.0  0.21539  0.80657  0.58141  1.0000
  H   H591      1.0  0.21858  0.85496  0.91755  1.0000
  H   H592      1.0  0.20909  0.76407  0.65626  1.0000
  H   H593      1.0  0.16409  0.82404  0.62274  1.0000
  H   H594      1.0  0.18227  0.82070  0.59702  1.0000
  H   H595      1.0  0.15046  0.78811  0.62235  1.0000
  H   H596      1.0  0.14679  0.80747  0.59711  1.0000
  H   H597      1.0  0.16922  0.78422  0.59656  1.0000
  H   H598      1.0  0.19623  0.51027  0.71309  1.0000
  H   H599      1.0  0.17532  0.64045  0.65657  1.0000
  H   H600      1.0  0.00254  0.77167  0.77865  1.0000
  H   H601      1.0  0.22315  0.74368  0.60356  1.0000
  H   H602      1.0  0.18988  0.83438  0.64602  1.0000
  H   H603      1.0  0.23854  0.72023  0.77966  1.0000
  N   N21       1.0  0.11650  0.86157  0.73882  1.0000
  C   C345      1.0  0.12764  0.87968  0.72334  1.0000
  C   C346      1.0  0.09234  0.87074  0.74582  1.0000
  C   C347      1.0  0.12879  0.85420  0.75885  1.0000
  C   C348      1.0  0.11725  0.84140  0.72734  1.0000
  C   C349      1.0  0.10921  0.84624  0.70401  1.0000
  C   C350      1.0  0.15230  0.87253  0.71330  1.0000
  C   C351      1.0  0.11664  0.83992  0.77923  1.0000
  C   C352      1.0  0.08828  0.89115  0.75874  1.0000
  C   C353      1.0  0.06364  0.89636  0.76852  1.0000
  C   C354      1.0  0.11042  0.82455  0.69439  1.0000
  C   C355      1.0  0.16161  0.89168  0.69696  1.0000
  C   C356      1.0  0.13255  0.82903  0.79606  1.0000
  H   H604      1.0  0.12793  0.89388  0.73243  1.0000
  H   H605      1.0  0.11783  0.88706  0.70944  1.0000
  H   H606      1.0  0.08360  0.87640  0.73090  1.0000
  H   H607      1.0  0.08323  0.85727  0.75598  1.0000
  H   H608      1.0  0.13304  0.86885  0.76499  1.0000
  H   H609      1.0  0.14528  0.84422  0.75383  1.0000
  H   H610      1.0  0.13446  0.83178  0.72531  1.0000
  H   H611      1.0  0.10673  0.82937  0.73801  1.0000
  H   H612      1.0  0.11979  0.85702  0.69178  1.0000
  H   H613      1.0  0.09161  0.85458  0.70513  1.0000
  H   H614      1.0  0.16281  0.86797  0.72689  1.0000
  H   H615      1.0  0.15415  0.85800  0.70417  1.0000
  H   H616      1.0  0.10960  0.82648  0.77402  1.0000
  H   H617      1.0  0.10257  0.85054  0.78812  1.0000
  H   H618      1.0  0.09825  0.88830  0.77274  1.0000
  H   H619      1.0  0.09285  0.90630  0.74722  1.0000
  H   H620      1.0  0.05294  0.89994  0.75500  1.0000
  H   H621      1.0  0.05839  0.88200  0.78089  1.0000
  H   H622      1.0  0.06107  0.91132  0.77722  1.0000
  H   H623      1.0  0.09932  0.81342  0.70553  1.0000
  H   H624      1.0  0.10478  0.82841  0.67766  1.0000
  H   H625      1.0  0.12787  0.81565  0.69246  1.0000
  H   H626      1.0  0.16090  0.90643  0.70557  1.0000
  H   H627      1.0  0.17940  0.88618  0.69045  1.0000
  H   H628      1.0  0.15208  0.89661  0.68255  1.0000
  H   H629      1.0  0.12338  0.81914  0.81057  1.0000
  H   H630      1.0  0.14655  0.81745  0.78822  1.0000
  H   H631      1.0  0.13951  0.84201  0.80228  1.0000
  H   H632      1.0  0.23002  0.55824  0.65240  1.0000
  C   C357      1.0  0.18276  0.54712  0.68278  1.0000
  C   C358      1.0  0.20895  0.65164  0.79743  1.0000
  H   H633      1.0  0.22890  0.60676  0.79433  1.0000
  H   H634      1.0  0.22227  0.51016  0.73801  1.0000
  C   C359      1.0  0.17147  0.54122  0.75488  1.0000
  H   H635      1.0  0.17919  0.56079  0.71339  1.0000
  C   C360      1.0  0.00957  0.72919  0.80336  1.0000
  H   H636      1.0  0.20685  0.54740  0.70411  1.0000
  H   H637      1.0  0.18612  0.75215  0.91369  1.0000
  H   H638      1.0  0.00846  0.71100  0.80816  1.0000
  C   C361      1.0  0.21159  0.61168  0.79025  1.0000
  C   C362      1.0  0.03203  0.73167  0.78760  1.0000
  C   C363      1.0  0.05192  0.71929  0.79893  1.0000
  C   C364      1.0  0.20459  0.66910  0.87446  1.0000
  H   H639      1.0  0.19939  0.62249  0.82196  1.0000
  C   C365      1.0  0.22178  0.75213  0.91336  1.0000
  H   H640      1.0  0.18104  0.63244  0.80109  1.0000
  H   H641      1.0  0.21241  0.78040  0.79099  1.0000
  H   H642      1.0  0.24659  0.68258  0.71271  1.0000
  H   H643      1.0  0.22900  0.83926  0.65118  1.0000
  H   H644      1.0  0.22865  0.67373  0.68296  1.0000
  C   C366      1.0  0.23107  0.80525  0.61124  1.0000
  C   C367      1.0  0.18408  0.63934  0.67126  1.0000
  C   C368      1.0  0.20988  0.82129  0.92856  1.0000
  H   H645      1.0  0.23212  0.72125  0.75174  1.0000
  H   H646      1.0  0.20310  0.78188  0.92495  1.0000
  C   C369      1.0  0.18448  0.66269  0.67676  1.0000
  C   C370      1.0  0.22675  0.81588  0.58728  1.0000
  H   H647      1.0  0.19454  0.65547  0.88182  1.0000
  C   C371      1.0  0.17979  0.49960  0.75722  1.0000
  N   N22       1.0  0.18680  0.52169  0.74557  1.0000
  H   H648      1.0  0.03443  0.74952  0.78297  1.0000
  H   H649      1.0  0.05283  0.72647  0.81419  1.0000
  H   H650      1.0  0.05064  0.70115  0.80353  1.0000
  H   H651      1.0  0.06766  0.72106  0.78717  1.0000
  C   C372      1.0  0.22185  0.84643  0.63563  1.0000
  C   C373      1.0  0.19880  0.67959  0.85124  1.0000
  H   H652      1.0  0.22205  0.65473  0.83459  1.0000
  H   H653      1.0  0.14240  0.55684  0.80565  1.0000
  H   H654      1.0  0.21102  0.73237  0.77285  1.0000
  H   H655      1.0  0.18078  0.68651  0.85336  1.0000
  C   C374      1.0  0.01214  0.77186  0.72217  1.0000
  C   C375      1.0  0.21174  0.87067  0.63808  1.0000
  C   C376      1.0  0.22969  0.57406  0.64037  1.0000
  H   H656      1.0  0.23742  0.87323  0.78735  1.0000
  H   H657      1.0  0.23969  0.71672  0.59992  1.0000
  H   H658      1.0  0.21240  0.61803  0.77207  1.0000
  H   H659      1.0  0.16863  0.69980  0.78222  1.0000
  H   H660      1.0  0.21562  0.53923  0.73845  1.0000
  H   H661      1.0  0.22711  0.50465  0.67976  1.0000
  H   H662      1.0  0.13392  0.68856  0.77584  1.0000
  C   C377      1.0  0.18887  0.54598  0.70619  1.0000
  C   C378      1.0  0.19872  0.62955  0.80414  1.0000
  C   C379      1.0  0.13977  0.68330  0.79243  1.0000
  C   C380      1.0  0.18443  0.52351  0.72110  1.0000
  C   C381      1.0  0.23976  0.77186  0.94873  1.0000
  H   H663      1.0  0.20427  0.72952  0.90158  1.0000
  C   C382      1.0  0.23443  0.80927  0.92511  1.0000
  H   H664      1.0  0.19268  0.53311  0.67439  1.0000
  H   H665      1.0  0.20200  0.75739  0.88595  1.0000
  C   C383      1.0  0.16133  0.53763  0.78005  1.0000
  H   H666      1.0  0.18022  0.55623  0.75183  1.0000
  H   H667      1.0  0.03271  0.72455  0.77194  1.0000
  H   H668      1.0  0.15667  0.54644  0.74581  1.0000
  H   H669      1.0  0.23919  0.69988  0.67450  1.0000
  H   H670      1.0  0.21955  0.83384  0.58648  1.0000
  C   C384      1.0  0.21086  0.52285  0.74712  1.0000
  N   N23       1.0  0.23807  0.78413  0.92534  1.0000
  C   C385      1.0  0.15017  0.55987  0.78784  1.0000
  H   H671      1.0  0.20360  0.77291  0.96104  1.0000
  H   H672      1.0  0.21718  0.68300  0.72214  1.0000
  C   C386      1.0  0.22273  0.72662  0.59985  1.0000
  H   H673      1.0  0.24498  0.82174  0.55360  1.0000
  H   H674      1.0  0.22873  0.70220  0.64052  1.0000
  H   H675      1.0  0.22535  0.58859  0.64977  1.0000
  H   H676      1.0  0.22272  0.74237  0.98601  1.0000
  H   H677      1.0  0.22845  0.70911  0.71333  1.0000
  H   H678      1.0  0.21645  0.57482  0.62982  1.0000
  H   H679      1.0  0.01101  0.73509  0.81922  1.0000
  H   H680      1.0  0.23691  0.78716  0.61042  1.0000
  S   S82       1.0  0.23567  0.63209  0.71267  1.0000
  C   C387      1.0  0.20893  0.84558  0.93211  1.0000
  Fe  Fe38      1.0  0.23695  0.89134  0.72314  1.0000
  C   C388      1.0  0.21980  0.77736  0.91529  1.0000
  S   S83       1.0  0.23878  0.76432  0.82684  1.0000
  H   H681      1.0  0.21908  0.78689  0.89810  1.0000
  H   H682      1.0  0.21584  0.84620  0.94762  1.0000
  H   H683      1.0  0.20875  0.53527  0.77901  1.0000
  H   H684      1.0  0.23732  0.74640  0.90241  1.0000
  H   H685      1.0  0.23702  0.74384  0.67992  1.0000
  H   H686      1.0  0.16199  0.49942  0.75559  1.0000
  C   C389      1.0  0.23355  0.76242  0.67769  1.0000
  S   S84       1.0  0.23906  0.97519  0.70165  1.0000
  H   H687      1.0  0.22768  0.78278  0.75121  1.0000
  C   C390      1.0  0.24206  0.51909  0.77058  1.0000
  H   H688      1.0  0.00151  0.74283  0.75893  1.0000
  C   C391      1.0  0.22175  0.76008  0.98854  1.0000
  H   H689      1.0  0.24313  0.83553  0.77566  1.0000
  H   H690      1.0  0.24575  0.81168  0.61478  1.0000
  H   H691      1.0  0.24589  0.51746  0.78794  1.0000
  C   C392      1.0  0.24497  0.77753  0.74307  1.0000
  H   H692      1.0  0.24182  0.81778  0.90856  1.0000
  H   H693      1.0  0.24634  0.79613  0.77910  1.0000
  H   H694      1.0  0.24414  0.75355  0.94844  1.0000
  H   H695      1.0  0.24543  0.53462  0.68865  1.0000
  H   H696      1.0  0.29700  0.43490  0.20603  1.0000
  H   H697      1.0  0.27735  0.29327  0.37667  1.0000
  H   H698      1.0  0.26231  0.18445  0.22424  1.0000
  H   H699      1.0  0.43148  0.31341  0.26537  1.0000
  H   H700      1.0  0.29550  0.22729  0.23242  1.0000
  Fe  Fe39      1.0  0.29213  0.09164  0.20442  1.0000
  S   S85       1.0  0.32224  0.10965  0.19826  1.0000
  S   S86       1.0  0.28927  0.07008  0.17912  1.0000
  C   C393      1.0  0.48662  0.21592  0.28740  1.0000
  S   S87       1.0  0.26966  0.37509  0.22886  1.0000
  H   H701      1.0  0.37097  0.29663  0.28160  1.0000
  Fe  Fe40      1.0  0.27426  0.36172  0.16779  1.0000
  S   S88       1.0  0.29608  0.38399  0.17672  1.0000
  S   S89       1.0  0.28767  0.01029  0.21299  1.0000
  Fe  Fe41      1.0  0.29932  0.35838  0.20760  1.0000
  S   S90       1.0  0.33244  0.34348  0.21937  1.0000
  H   H702      1.0  0.32178  0.03669  0.22906  1.0000
  H   H703      1.0  0.45600  0.30753  0.21791  1.0000
  S   S91       1.0  0.28008  0.33533  0.19692  1.0000
  H   H704      1.0  0.28081  0.14509  0.22230  1.0000
  Fe  Fe42      1.0  0.38073  0.17127  0.26578  1.0000
  S   S92       1.0  0.40505  0.17954  0.28588  1.0000
  S   S93       1.0  0.36672  0.13843  0.27316  1.0000
  Fe  Fe43      1.0  0.37416  0.21838  0.24017  1.0000
  S   S94       1.0  0.39755  0.23094  0.25781  1.0000
  S   S95       1.0  0.35269  0.23937  0.21578  1.0000
  Fe  Fe44      1.0  0.41986  0.19831  0.25340  1.0000
  S   S96       1.0  0.45690  0.19746  0.23996  1.0000
  Fe  Fe45      1.0  0.38114  0.21147  0.28875  1.0000
  S   S97       1.0  0.37131  0.22608  0.32086  1.0000
  S   S98       1.0  0.39753  0.18721  0.23284  1.0000
  S   S99       1.0  0.35582  0.20172  0.27155  1.0000
  H   H705      1.0  0.31614  0.46466  0.21419  1.0000
  C   C394      1.0  0.47641  0.20486  0.25459  1.0000
  C   C395      1.0  0.47078  0.20911  0.27676  1.0000
  Fe  Fe46      1.0  0.25008  0.35359  0.21571  1.0000
  C   C396      1.0  0.33640  0.04492  0.22970  1.0000
  H   H706      1.0  0.34357  0.06707  0.18374  1.0000
  H   H707      1.0  0.26029  0.11769  0.46677  1.0000
  H   H708      1.0  0.45417  0.20741  0.28561  1.0000
  H   H709      1.0  0.48203  0.21962  0.30440  1.0000
  C   C397      1.0  0.35802  0.03165  0.21846  1.0000
  H   H710      1.0  0.29310  0.11593  0.29211  1.0000
  C   C398      1.0  0.34478  0.22048  0.33426  1.0000
  C   C399      1.0  0.34162  0.21311  0.35734  1.0000
  C   C400      1.0  0.32086  0.20751  0.36816  1.0000
  C   C401      1.0  0.30288  0.21021  0.35614  1.0000
  C   C402      1.0  0.28644  0.15062  0.27554  1.0000
  C   C403      1.0  0.32679  0.22324  0.32217  1.0000
  H   H711      1.0  0.35548  0.21096  0.36672  1.0000
  H   H712      1.0  0.31881  0.20086  0.38582  1.0000
  C   C404      1.0  0.30570  0.21851  0.33320  1.0000
  C   C405      1.0  0.33810  0.31420  0.22029  1.0000
  C   C406      1.0  0.32068  0.30130  0.22459  1.0000
  C   C407      1.0  0.32527  0.27819  0.22366  1.0000
  C   C408      1.0  0.34737  0.26777  0.21913  1.0000
  C   C409      1.0  0.36490  0.28042  0.21579  1.0000
  C   C410      1.0  0.36027  0.30362  0.21640  1.0000
  H   H713      1.0  0.30366  0.30908  0.22888  1.0000
  H   H714      1.0  0.31168  0.26843  0.22647  1.0000
  H   H715      1.0  0.38196  0.27241  0.21208  1.0000
  H   H716      1.0  0.37381  0.31350  0.21324  1.0000
  H   H717      1.0  0.32910  0.22923  0.30438  1.0000
  H   H718      1.0  0.29574  0.21551  0.42758  1.0000
  H   H719      1.0  0.35095  0.05490  0.25594  1.0000
  H   H720      1.0  0.48323  0.25462  0.25153  1.0000
  C   C411      1.0  0.37611  0.07076  0.19068  1.0000
  H   H721      1.0  0.27835  0.19317  0.19751  1.0000
  H   H722      1.0  0.31263  0.22535  0.25402  1.0000
  H   H723      1.0  0.30088  0.16403  0.21990  1.0000
  H   H724      1.0  0.41914  0.25073  0.18862  1.0000
  H   H725      1.0  0.24986  0.18889  0.27849  1.0000
  C   C412      1.0  0.33314  0.11828  0.21971  1.0000
  C   C413      1.0  0.32972  0.10777  0.24192  1.0000
  C   C414      1.0  0.34020  0.11399  0.25820  1.0000
  C   C415      1.0  0.35347  0.13126  0.25251  1.0000
  C   C416      1.0  0.35620  0.14227  0.23047  1.0000
  C   C417      1.0  0.34638  0.13552  0.21405  1.0000
  H   H726      1.0  0.31948  0.09454  0.24641  1.0000
  H   H727      1.0  0.33803  0.10541  0.27525  1.0000
  H   H728      1.0  0.36639  0.15557  0.22591  1.0000
  H   H729      1.0  0.34912  0.14368  0.19688  1.0000
  C   C418      1.0  0.32200  0.01328  0.15812  1.0000
  C   C419      1.0  0.27296  0.15881  0.13499  1.0000
  C   C420      1.0  0.26680  0.13751  0.14312  1.0000
  H   H730      1.0  0.28806  0.16301  0.13911  1.0000
  H   H731      1.0  0.27725  0.12535  0.15335  1.0000
  H   H732      1.0  0.31272  0.44992  0.11208  1.0000
  H   H733      1.0  0.29186  0.22043  0.32386  1.0000
  C   C421      1.0  0.43965  0.34126  0.24099  1.0000
  H   H734      1.0  0.25382  0.21808  0.18358  1.0000
  C   C422      1.0  0.28797  0.45160  0.20710  1.0000
  C   C423      1.0  0.29877  0.46850  0.21170  1.0000
  C   C424      1.0  0.29267  0.49196  0.12371  1.0000
  H   H735      1.0  0.29616  0.15424  0.19522  1.0000
  H   H736      1.0  0.42339  0.34427  0.23443  1.0000
  C   C425      1.0  0.29956  0.27777  0.34994  1.0000
  H   H737      1.0  0.49160  0.30085  0.22459  1.0000
  C   C426      1.0  0.31633  0.16386  0.32168  1.0000
  H   H738      1.0  0.28089  0.30869  0.33560  1.0000
  H   H739      1.0  0.30172  0.14634  0.26341  1.0000
  H   H740      1.0  0.32133  0.05389  0.26231  1.0000
  S   S100      1.0  0.27797  0.20047  0.36938  1.0000
  H   H741      1.0  0.25306  0.30084  0.09168  1.0000
  H   H742      1.0  0.29887  0.49291  0.16786  1.0000
  S   S101      1.0  0.27892  0.06822  0.23410  1.0000
  C   C427      1.0  0.28794  0.15944  0.21154  1.0000
  H   H743      1.0  0.26894  0.15580  0.48959  1.0000
  C   C428      1.0  0.25978  0.33423  0.12875  1.0000
  H   H744      1.0  0.25652  0.19082  0.49244  1.0000
  H   H745      1.0  0.27982  0.11473  0.25597  1.0000
  C   C429      1.0  0.24753  0.13183  0.13748  1.0000
  H   H746      1.0  0.27141  0.26081  0.26060  1.0000
  H   H747      1.0  0.25269  0.12911  0.26636  1.0000
  H   H748      1.0  0.30672  0.34184  0.31374  1.0000
  H   H749      1.0  0.37235  0.27994  0.25975  1.0000
  H   H750      1.0  0.27303  0.19061  0.31103  1.0000
  H   H751      1.0  0.31212  0.37266  0.28284  1.0000
  H   H752      1.0  0.31905  0.20534  0.23442  1.0000
  H   H753      1.0  0.35780  0.01396  0.22644  1.0000
  H   H754      1.0  0.45304  0.34591  0.22713  1.0000
  C   C430      1.0  0.44505  0.31673  0.25129  1.0000
  H   H755      1.0  0.38668  0.02341  0.16666  1.0000
  H   H756      1.0  0.43843  0.35225  0.25397  1.0000
  H   H757      1.0  0.27389  0.15452  0.45972  1.0000
  Fe  Fe47      1.0  0.24765  0.22683  0.36959  1.0000
  H   H758      1.0  0.28294  0.45317  0.11097  1.0000
  H   H759      1.0  0.25982  0.16780  0.17979  1.0000
  H   H760      1.0  0.29910  0.13772  0.31711  1.0000
  S   S102      1.0  0.25120  0.25767  0.07380  1.0000
  Fe  Fe48      1.0  0.27364  0.04759  0.20860  1.0000
  H   H761      1.0  0.34115  0.04046  0.15205  1.0000
  H   H762      1.0  0.45782  0.25540  0.28765  1.0000
  H   H763      1.0  0.28730  0.26700  0.34819  1.0000
  C   C431      1.0  0.34187  0.02345  0.16199  1.0000
  H   H764      1.0  0.39260  0.06072  0.19300  1.0000
  H   H765      1.0  0.39642  0.02473  0.19184  1.0000
  H   H766      1.0  0.31902  0.13604  0.34910  1.0000
  N   N24       1.0  0.30920  0.26635  0.15313  1.0000
  C   C432      1.0  0.32697  0.24719  0.15977  1.0000
  C   C433      1.0  0.31970  0.28755  0.14635  1.0000
  C   C434      1.0  0.29088  0.26839  0.17284  1.0000
  C   C435      1.0  0.29920  0.26232  0.13352  1.0000
  C   C436      1.0  0.31612  0.25615  0.11279  1.0000
  C   C437      1.0  0.31951  0.22359  0.16550  1.0000
  C   C438      1.0  0.27236  0.28892  0.17008  1.0000
  C   C439      1.0  0.32833  0.29616  0.16526  1.0000
  C   C440      1.0  0.33726  0.31836  0.15673  1.0000
  C   C441      1.0  0.30395  0.25369  0.09375  1.0000
  C   C442      1.0  0.33916  0.20536  0.17044  1.0000
  C   C443      1.0  0.47760  0.27289  0.24722  1.0000
  H   H767      1.0  0.33326  0.24996  0.17492  1.0000
  H   H768      1.0  0.34190  0.24658  0.14657  1.0000
  H   H769      1.0  0.33435  0.28515  0.13310  1.0000
  H   H770      1.0  0.30786  0.30143  0.13855  1.0000
  H   H771      1.0  0.29801  0.26854  0.18838  1.0000
  H   H772      1.0  0.28220  0.25339  0.17647  1.0000
  H   H773      1.0  0.28836  0.24895  0.13869  1.0000
  H   H774      1.0  0.28785  0.27755  0.12744  1.0000
  H   H775      1.0  0.32697  0.23999  0.11693  1.0000
  H   H776      1.0  0.32689  0.26932  0.10630  1.0000
  H   H777      1.0  0.30673  0.22274  0.18069  1.0000
  H   H778      1.0  0.31244  0.21933  0.15151  1.0000
  H   H779      1.0  0.26354  0.28858  0.15580  1.0000
  H   H780      1.0  0.27940  0.30480  0.16700  1.0000
  H   H781      1.0  0.31485  0.29912  0.17938  1.0000
  H   H782      1.0  0.34217  0.28395  0.17171  1.0000
  H   H783      1.0  0.35126  0.31642  0.14275  1.0000
  H   H784      1.0  0.32375  0.33151  0.15091  1.0000
  H   H785      1.0  0.34347  0.32402  0.17054  1.0000
  H   H786      1.0  0.31629  0.24903  0.07917  1.0000
  H   H787      1.0  0.29317  0.24033  0.09919  1.0000
  H   H788      1.0  0.29346  0.26976  0.08830  1.0000
  H   H789      1.0  0.34640  0.20834  0.18495  1.0000
  H   H790      1.0  0.33332  0.18873  0.17465  1.0000
  H   H791      1.0  0.35238  0.20495  0.15559  1.0000
  H   H792      1.0  0.26280  0.28985  0.20602  1.0000
  C   C444      1.0  0.26561  0.12447  0.48044  1.0000
  Fe  Fe49      1.0  0.25471  0.08904  0.17832  1.0000
  N   N25       1.0  0.45442  0.27650  0.24072  1.0000
  C   C445      1.0  0.29433  0.28343  0.37384  1.0000
  C   C446      1.0  0.43833  0.26603  0.25966  1.0000
  C   C447      1.0  0.45570  0.26446  0.22079  1.0000
  C   C448      1.0  0.44598  0.30093  0.23385  1.0000
  H   H793      1.0  0.25212  0.20451  0.16048  1.0000
  H   H794      1.0  0.34420  0.13769  0.32876  1.0000
  C   C449      1.0  0.43331  0.26575  0.21161  1.0000
  C   C450      1.0  0.44207  0.26634  0.28411  1.0000
  C   C451      1.0  0.42317  0.25740  0.30111  1.0000
  C   C452      1.0  0.43522  0.24900  0.19526  1.0000
  H   H795      1.0  0.34063  0.02813  0.26353  1.0000
  H   H796      1.0  0.32191  0.99613  0.16767  1.0000
  H   H797      1.0  0.42075  0.27385  0.25813  1.0000
  H   H798      1.0  0.43900  0.24791  0.25856  1.0000
  C   C453      1.0  0.25491  0.28927  0.19110  1.0000
  H   H799      1.0  0.31648  0.26779  0.34814  1.0000
  H   H800      1.0  0.32307  0.01226  0.14000  1.0000
  H   H801      1.0  0.42859  0.30299  0.22997  1.0000
  C   C454      1.0  0.34103  0.02480  0.18724  1.0000
  H   H802      1.0  0.26634  0.21723  0.45995  1.0000
  H   H803      1.0  0.42860  0.28276  0.20243  1.0000
  H   H804      1.0  0.41943  0.26223  0.22516  1.0000
  H   H805      1.0  0.28112  0.32164  0.10044  1.0000
  H   H806      1.0  0.44326  0.28330  0.28726  1.0000
  H   H807      1.0  0.42685  0.25668  0.31840  1.0000
  H   H808      1.0  0.40707  0.26854  0.29940  1.0000
  H   H809      1.0  0.42146  0.24019  0.29874  1.0000
  H   H810      1.0  0.30685  0.29321  0.37699  1.0000
  H   H811      1.0  0.33323  0.48802  0.13823  1.0000
  H   H812      1.0  0.44870  0.25206  0.18098  1.0000
  H   H813      1.0  0.43882  0.23156  0.20392  1.0000
  N   N26       1.0  0.30408  0.29615  0.30806  1.0000
  C   C455      1.0  0.29795  0.31846  0.29400  1.0000
  C   C456      1.0  0.29023  0.27934  0.30419  1.0000
  C   C457      1.0  0.29819  0.29947  0.33244  1.0000
  C   C458      1.0  0.32881  0.28755  0.30395  1.0000
  C   C459      1.0  0.33947  0.28569  0.27941  1.0000
  C   C460      1.0  0.31045  0.33768  0.29642  1.0000
  H   H814      1.0  0.30932  0.31014  0.33677  1.0000
  C   C461      1.0  0.28523  0.28018  0.28002  1.0000
  C   C462      1.0  0.27477  0.25981  0.27805  1.0000
  C   C463      1.0  0.30316  0.35901  0.28078  1.0000
  N   N27       1.0  0.29117  0.16541  0.29106  1.0000
  H   H815      1.0  0.27972  0.32425  0.29807  1.0000
  H   H816      1.0  0.30062  0.31706  0.27586  1.0000
  H   H817      1.0  0.29809  0.26208  0.30995  1.0000
  H   H818      1.0  0.27340  0.28151  0.31457  1.0000
  C   C464      1.0  0.27039  0.17484  0.30568  1.0000
  C   C465      1.0  0.49616  0.28255  0.22953  1.0000
  H   H819      1.0  0.33837  0.29809  0.31077  1.0000
  H   H820      1.0  0.33257  0.27049  0.31341  1.0000
  H   H821      1.0  0.33466  0.30103  0.26781  1.0000
  H   H822      1.0  0.33465  0.27100  0.27402  1.0000
  Fe  Fe50      1.0  0.26469  0.39911  0.19710  1.0000
  H   H823      1.0  0.32879  0.33307  0.29203  1.0000
  H   H824      1.0  0.35731  0.01293  0.15531  1.0000
  C   C466      1.0  0.36074  0.05736  0.18212  1.0000
  H   H825      1.0  0.27322  0.29541  0.27547  1.0000
  H   H826      1.0  0.30042  0.28065  0.26754  1.0000
  C   C467      1.0  0.33750  0.04542  0.25438  1.0000
  H   H827      1.0  0.36588  0.05795  0.16371  1.0000
  C   C468      1.0  0.24810  0.17954  0.29566  1.0000
  C   C469      1.0  0.26801  0.20293  0.45049  1.0000
  H   H828      1.0  0.28487  0.36455  0.28468  1.0000
  C   C470      1.0  0.28745  0.49046  0.21248  1.0000
  H   H829      1.0  0.32785  0.17532  0.31193  1.0000
  C   C471      1.0  0.38043  0.09195  0.17431  1.0000
  N   N28       1.0  0.36052  0.03337  0.19329  1.0000
  H   H830      1.0  0.28632  0.24415  0.28231  1.0000
  H   H831      1.0  0.46114  0.31482  0.25786  1.0000
  C   C472      1.0  0.29169  0.46824  0.13756  1.0000
  C   C473      1.0  0.30527  0.21543  0.24431  1.0000
  H   H832      1.0  0.29502  0.43350  0.13266  1.0000
  C   C474      1.0  0.29588  0.45020  0.12226  1.0000
  S   S103      1.0  0.26774  0.20106  0.11123  1.0000
  C   C475      1.0  0.26297  0.15006  0.47574  1.0000
  C   C476      1.0  0.26561  0.45646  0.20355  1.0000
  H   H833      1.0  0.38967  0.10214  0.18188  1.0000
  H   H834      1.0  0.32190  0.14276  0.29567  1.0000
  C   C477      1.0  0.27854  0.12816  0.28710  1.0000
  C   C478      1.0  0.30722  0.15131  0.30597  1.0000
  C   C479      1.0  0.29009  0.20020  0.25989  1.0000
  C   C480      1.0  0.30301  0.18396  0.27720  1.0000
  H   H835      1.0  0.39059  0.08752  0.15842  1.0000
  H   H836      1.0  0.36810  0.07593  0.20708  1.0000
  H   H837      1.0  0.37086  0.26665  0.28840  1.0000
  C   C481      1.0  0.36498  0.28202  0.27724  1.0000
  H   H838      1.0  0.27506  0.46712  0.14784  1.0000
  H   H839      1.0  0.46730  0.27131  0.20627  1.0000
  H   H840      1.0  0.33337  0.06246  0.22133  1.0000
  C   C482      1.0  0.25154  0.17365  0.19589  1.0000
  H   H841      1.0  0.30456  0.46388  0.14895  1.0000
  H   H842      1.0  0.36447  0.10235  0.17047  1.0000
  H   H843      1.0  0.30239  0.17357  0.33162  1.0000
  C   C483      1.0  0.26492  0.32185  0.11076  1.0000
  H   H844      1.0  0.30720  0.35612  0.26300  1.0000
  H   H845      1.0  0.28302  0.19572  0.41713  1.0000
  C   C484      1.0  0.27959  0.21002  0.42681  1.0000
  C   C485      1.0  0.25407  0.47817  0.20518  1.0000
  H   H846      1.0  0.33626  0.15720  0.34875  1.0000
  H   H847      1.0  0.31927  0.17655  0.26815  1.0000
  H   H848      1.0  0.33872  0.00812  0.19717  1.0000
  C   C486      1.0  0.38248  0.01974  0.18523  1.0000
  H   H849      1.0  0.30598  0.02385  0.16345  1.0000
  H   H850      1.0  0.26718  0.16330  0.32170  1.0000
  H   H851      1.0  0.37274  0.03677  0.22361  1.0000
  H   H852      1.0  0.28345  0.11756  0.48142  1.0000
  H   H853      1.0  0.28332  0.19117  0.24908  1.0000
  H   H854      1.0  0.29484  0.26768  0.38598  1.0000
  H   H855      1.0  0.27924  0.18896  0.45857  1.0000
  H   H856      1.0  0.26899  0.22417  0.41795  1.0000
  S   S104      1.0  0.27986  0.34931  0.13417  1.0000
  C   C487      1.0  0.32975  0.14757  0.33805  1.0000
  H   H857      1.0  0.30716  0.19497  0.28811  1.0000
  H   H858      1.0  0.27383  0.15951  0.26488  1.0000
  C   C488      1.0  0.25979  0.17453  0.12134  1.0000
  H   H859      1.0  0.46272  0.24643  0.22498  1.0000
  C   C489      1.0  0.26979  0.17950  0.20770  1.0000
  H   H860      1.0  0.32520  0.03584  0.19210  1.0000
  S   S105      1.0  0.25172  0.43648  0.19578  1.0000
  H   H861      1.0  0.33742  0.48485  0.17865  1.0000
  H   H862      1.0  0.25873  0.25930  0.28957  1.0000
  C   C490      1.0  0.26492  0.49513  0.20956  1.0000
  C   C491      1.0  0.24909  0.30996  0.10585  1.0000
  H   H863      1.0  0.30926  0.49176  0.11297  1.0000
  H   H864      1.0  0.26624  0.13047  0.30239  1.0000
  H   H865      1.0  0.27619  0.21109  0.26869  1.0000
  H   H866      1.0  0.47766  0.28006  0.26267  1.0000
  H   H867      1.0  0.26143  0.26031  0.47134  1.0000
  C   C492      1.0  0.26784  0.11783  0.27129  1.0000
  H   H868      1.0  0.24909  0.25479  0.15850  1.0000
  H   H869      1.0  0.26273  0.10158  0.27983  1.0000
  S   S106      1.0  0.25884  0.11227  0.20114  1.0000
  H   H870      1.0  0.28036  0.49430  0.11176  1.0000
  C   C493      1.0  0.37146  0.27945  0.67624  1.0000
  C   C494      1.0  0.27597  0.14013  0.63424  1.0000
  S   S107      1.0  0.29031  0.35843  0.74337  1.0000
  Fe  Fe51      1.0  0.32324  0.11510  0.71921  1.0000
  S   S108      1.0  0.29958  0.14164  0.70186  1.0000
  S   S109      1.0  0.35519  0.12157  0.72927  1.0000
  Fe  Fe52      1.0  0.29370  0.07868  0.72113  1.0000
  C   C495      1.0  0.39911  0.40221  0.81698  1.0000
  S   S110      1.0  0.29676  0.04059  0.72936  1.0000
  Fe  Fe53      1.0  0.29649  0.11569  0.68131  1.0000
  S   S111      1.0  0.29969  0.12335  0.64363  1.0000
  Fe  Fe54      1.0  0.27264  0.12696  0.72664  1.0000
  H   H871      1.0  0.30407  0.28509  0.79288  1.0000
  S   S112      1.0  0.32254  0.09023  0.69651  1.0000
  S   S113      1.0  0.29654  0.10169  0.74548  1.0000
  Fe  Fe55      1.0  0.43745  0.24445  0.74038  1.0000
  S   S114      1.0  0.42409  0.25775  0.70779  1.0000
  S   S115      1.0  0.47404  0.23213  0.74462  1.0000
  Fe  Fe56      1.0  0.39048  0.24386  0.76670  1.0000
  S   S116      1.0  0.37328  0.25729  0.73675  1.0000
  S   S117      1.0  0.37327  0.23227  0.80128  1.0000
  Fe  Fe57      1.0  0.39926  0.23349  0.71883  1.0000
  S   S118      1.0  0.38626  0.21667  0.69453  1.0000
  Fe  Fe58      1.0  0.39894  0.28058  0.72796  1.0000
  S   S119      1.0  0.38929  0.31651  0.71281  1.0000
  S   S120      1.0  0.41465  0.21804  0.74954  1.0000
  S   S121      1.0  0.41416  0.26929  0.75978  1.0000
  C   C496      1.0  0.36448  0.14758  0.71882  1.0000
  C   C497      1.0  0.35424  0.16264  0.70242  1.0000
  C   C498      1.0  0.36105  0.18377  0.69512  1.0000
  C   C499      1.0  0.37798  0.19012  0.70438  1.0000
  C   C500      1.0  0.38825  0.17511  0.72085  1.0000
  C   C501      1.0  0.38159  0.15382  0.72795  1.0000
  H   H872      1.0  0.34106  0.15797  0.69538  1.0000
  H   H873      1.0  0.35298  0.19534  0.68252  1.0000
  H   H874      1.0  0.40147  0.17979  0.72794  1.0000
  H   H875      1.0  0.38954  0.14228  0.74073  1.0000
  C   C502      1.0  0.30569  0.35867  0.64602  1.0000
  C   C503      1.0  0.30070  0.26168  0.82344  1.0000
  C   C504      1.0  0.31230  0.27093  0.80313  1.0000
  C   C505      1.0  0.33446  0.26173  0.79588  1.0000
  C   C506      1.0  0.34522  0.24357  0.80919  1.0000
  C   C507      1.0  0.33364  0.23440  0.82952  1.0000
  C   C508      1.0  0.31137  0.24329  0.83655  1.0000
  H   H876      1.0  0.34328  0.26887  0.78016  1.0000
  H   H877      1.0  0.34184  0.22030  0.83986  1.0000
  H   H878      1.0  0.30251  0.23609  0.85224  1.0000
  C   C509      1.0  0.31609  0.34465  0.73202  1.0000
  C   C510      1.0  0.32813  0.35399  0.71213  1.0000
  C   C511      1.0  0.35058  0.34497  0.70592  1.0000
  C   C512      1.0  0.36063  0.32616  0.71915  1.0000
  C   C513      1.0  0.34801  0.31597  0.73814  1.0000
  C   C514      1.0  0.32591  0.32542  0.74476  1.0000
  H   H879      1.0  0.32061  0.36896  0.70235  1.0000
  H   H880      1.0  0.36033  0.35290  0.69121  1.0000
  H   H881      1.0  0.35565  0.30156  0.74849  1.0000
  H   H882      1.0  0.31666  0.31821  0.76021  1.0000
  C   C515      1.0  0.27790  0.15422  0.61361  1.0000
  H   H883      1.0  0.31277  0.27986  0.69467  1.0000
  C   C516      1.0  0.39776  0.37591  0.78943  1.0000
  C   C517      1.0  0.31661  0.31319  0.61521  1.0000
  C   C518      1.0  0.28975  0.00082  0.71884  1.0000
  H   H884      1.0  0.29161  0.35900  0.66002  1.0000
  H   H885      1.0  0.29243  0.38330  0.78007  1.0000
  H   H886      1.0  0.40521  0.17696  0.85465  1.0000
  N   N29       1.0  0.27693  0.05269  0.64444  1.0000
  H   H887      1.0  0.37880  0.20145  0.89301  1.0000
  H   H888      1.0  0.25013  0.04682  0.72135  1.0000
  H   H889      1.0  0.40804  0.41366  0.80373  1.0000
  H   H890      1.0  0.47303  0.27982  0.74600  1.0000
  S   S122      1.0  0.26735  0.39758  0.68778  1.0000
  C   C519      1.0  0.28025  0.02297  0.72144  1.0000
  C   C520      1.0  0.48836  0.27080  0.75146  1.0000
  H   H891      1.0  0.37165  0.23841  0.63725  1.0000
  H   H892      1.0  0.26745  0.32406  0.83965  1.0000
  H   H893      1.0  0.35221  0.38625  0.77802  1.0000
  H   H894      1.0  0.38890  0.41229  0.82960  1.0000
  C   C521      1.0  0.28493  0.35440  0.80488  1.0000
  C   C522      1.0  0.28143  0.29247  0.71262  1.0000
  C   C523      1.0  0.40352  0.19008  0.86554  1.0000
  C   C524      1.0  0.40075  0.35365  0.75924  1.0000
  H   H895      1.0  0.37489  0.37997  0.82097  1.0000
  H   H896      1.0  0.32822  0.38197  0.62821  1.0000
  C   C525      1.0  0.35981  0.33318  0.78412  1.0000
  H   H897      1.0  0.25962  0.12463  0.77943  1.0000
  C   C526      1.0  0.36125  0.37965  0.74361  1.0000
  C   C527      1.0  0.34165  0.39724  0.73702  1.0000
  H   H898      1.0  0.43004  0.34157  0.77713  1.0000
  C   C528      1.0  0.43442  0.32503  0.74851  1.0000
  H   H899      1.0  0.40930  0.36650  0.74728  1.0000
  H   H900      1.0  0.39198  0.34585  0.74880  1.0000
  C   C529      1.0  0.29738  0.37451  0.79632  1.0000
  H   H901      1.0  0.27303  0.05690  0.60950  1.0000
  Fe  Fe59      1.0  0.26469  0.37578  0.72144  1.0000
  C   C530      1.0  0.44550  0.21290  0.84804  1.0000
  H   H902      1.0  0.37115  0.32336  0.77199  1.0000
  H   H903      1.0  0.34597  0.34354  0.77596  1.0000
  H   H904      1.0  0.36430  0.26367  0.68235  1.0000
  H   H905      1.0  0.33818  0.33941  0.63660  1.0000
  H   H906      1.0  0.37559  0.38135  0.72992  1.0000
  H   H907      1.0  0.35640  0.36297  0.74445  1.0000
  H   H908      1.0  0.32619  0.39466  0.74899  1.0000
  H   H909      1.0  0.34535  0.41445  0.73662  1.0000
  H   H910      1.0  0.33852  0.39568  0.72004  1.0000
  H   H911      1.0  0.36224  0.30439  0.81064  1.0000
  H   H912      1.0  0.33784  0.32535  0.81564  1.0000
  H   H913      1.0  0.44752  0.31198  0.75521  1.0000
  H   H914      1.0  0.42481  0.31712  0.73900  1.0000
  N   N30       1.0  0.32050  0.16413  0.78170  1.0000
  C   C531      1.0  0.31994  0.17672  0.75828  1.0000
  C   C532      1.0  0.34385  0.16088  0.78784  1.0000
  C   C533      1.0  0.31460  0.14112  0.78175  1.0000
  C   C534      1.0  0.30364  0.17537  0.79881  1.0000
  C   C535      1.0  0.30350  0.20070  0.79858  1.0000
  C   C536      1.0  0.29707  0.18054  0.74949  1.0000
  C   C537      1.0  0.31560  0.12474  0.80408  1.0000
  C   C538      1.0  0.35791  0.18026  0.77955  1.0000
  C   C539      1.0  0.37974  0.17526  0.78958  1.0000
  C   C540      1.0  0.28299  0.21023  0.81374  1.0000
  C   C541      1.0  0.29753  0.19628  0.72721  1.0000
  C   C542      1.0  0.31048  0.10177  0.80170  1.0000
  H   H915      1.0  0.33230  0.16760  0.74631  1.0000
  H   H916      1.0  0.32540  0.19335  0.75663  1.0000
  H   H917      1.0  0.34325  0.15687  0.80637  1.0000
  H   H918      1.0  0.35424  0.14610  0.78085  1.0000
  H   H919      1.0  0.32573  0.13283  0.76822  1.0000
  H   H920      1.0  0.29740  0.14234  0.77788  1.0000
  H   H921      1.0  0.28653  0.17297  0.79702  1.0000
  H   H922      1.0  0.30589  0.16716  0.81613  1.0000
  H   H923      1.0  0.30294  0.21052  0.78167  1.0000
  H   H924      1.0  0.31827  0.20345  0.80533  1.0000
  H   H925      1.0  0.29289  0.16447  0.74649  1.0000
  H   H926      1.0  0.28340  0.18803  0.76152  1.0000
  H   H927      1.0  0.30305  0.13119  0.81771  1.0000
  H   H928      1.0  0.33241  0.12216  0.80931  1.0000
  H   H929      1.0  0.36235  0.18221  0.76107  1.0000
  H   H930      1.0  0.34899  0.19654  0.78390  1.0000
  H   H931      1.0  0.38970  0.15933  0.78494  1.0000
  H   H932      1.0  0.38983  0.18895  0.78299  1.0000
  H   H933      1.0  0.28201  0.22862  0.81230  1.0000
  H   H934      1.0  0.39992  0.22585  0.86342  1.0000
  H   H935      1.0  0.28404  0.20255  0.83137  1.0000
  H   H936      1.0  0.31047  0.18914  0.71428  1.0000
  H   H937      1.0  0.28098  0.19842  0.72141  1.0000
  H   H938      1.0  0.30106  0.21298  0.72922  1.0000
  H   H939      1.0  0.29336  0.10320  0.79738  1.0000
  H   H940      1.0  0.32281  0.09429  0.78846  1.0000
  H   H941      1.0  0.31139  0.09035  0.81781  1.0000
  N   N31       1.0  0.31002  0.20174  0.63544  1.0000
  C   C543      1.0  0.31297  0.20397  0.61013  1.0000
  C   C544      1.0  0.31978  0.17847  0.64563  1.0000
  C   C545      1.0  0.28513  0.20496  0.64357  1.0000
  C   C546      1.0  0.32007  0.21934  0.64323  1.0000
  C   C547      1.0  0.34535  0.21962  0.63507  1.0000
  C   C548      1.0  0.30527  0.22756  0.59750  1.0000
  C   C549      1.0  0.27809  0.20250  0.66938  1.0000
  C   C550      1.0  0.34023  0.16593  0.63171  1.0000
  C   C551      1.0  0.35181  0.14578  0.64607  1.0000
  C   C552      1.0  0.35324  0.23936  0.64210  1.0000
  C   C553      1.0  0.30906  0.22746  0.57214  1.0000
  H   H942      1.0  0.33196  0.34268  0.66517  1.0000
  H   H943      1.0  0.30396  0.19175  0.60507  1.0000
  H   H944      1.0  0.33069  0.19958  0.60291  1.0000
  H   H945      1.0  0.32435  0.17891  0.66239  1.0000
  H   H946      1.0  0.30699  0.16694  0.64906  1.0000
  H   H947      1.0  0.27704  0.19294  0.63695  1.0000
  H   H948      1.0  0.27705  0.22189  0.63702  1.0000
  H   H949      1.0  0.31075  0.23633  0.63848  1.0000
  H   H950      1.0  0.31810  0.21697  0.66187  1.0000
  H   H951      1.0  0.34933  0.22103  0.61657  1.0000
  H   H952      1.0  0.35518  0.20412  0.64270  1.0000
  H   H953      1.0  0.28728  0.23324  0.60244  1.0000
  H   H954      1.0  0.31480  0.24020  0.60081  1.0000
  H   H955      1.0  0.28164  0.21715  0.67596  1.0000
  H   H956      1.0  0.28703  0.18711  0.67813  1.0000
  H   H957      1.0  0.33444  0.15969  0.61796  1.0000
  H   H958      1.0  0.35305  0.17676  0.62413  1.0000
  H   H959      1.0  0.33958  0.13507  0.65586  1.0000
  H   H960      1.0  0.36422  0.13545  0.63513  1.0000
  H   H961      1.0  0.36082  0.15150  0.65781  1.0000
  H   H962      1.0  0.34507  0.25541  0.63359  1.0000
  H   H963      1.0  0.29985  0.21507  0.56776  1.0000
  H   H964      1.0  0.30279  0.24430  0.56354  1.0000
  H   H965      1.0  0.32716  0.22333  0.56590  1.0000
  H   H966      1.0  0.25280  0.06857  0.68567  1.0000
  H   H967      1.0  0.40044  0.29582  0.82923  1.0000
  H   H968      1.0  0.39050  0.25735  0.83593  1.0000
  C   C554      1.0  0.46435  0.21954  0.87961  1.0000
  H   H969      1.0  0.29018  0.34230  0.79270  1.0000
  H   H970      1.0  0.41356  0.20017  0.81264  1.0000
  H   H971      1.0  0.25340  0.18747  0.53352  1.0000
  H   H972      1.0  0.36708  0.19285  0.87114  1.0000
  H   H973      1.0  0.48994  0.25151  0.67893  1.0000
  H   H974      1.0  0.27653  0.01501  0.61887  1.0000
  H   H975      1.0  0.30002  0.04413  0.61487  1.0000
  H   H976      1.0  0.31868  0.06890  0.58339  1.0000
  H   H977      1.0  0.34813  0.02749  0.66779  1.0000
  H   H978      1.0  0.28940  0.28331  0.67959  1.0000
  H   H979      1.0  0.29053  0.34649  0.82107  1.0000
  C   C555      1.0  0.27161  0.48959  0.71987  1.0000
  H   H980      1.0  0.42909  0.22677  0.87890  1.0000
  H   H981      1.0  0.31565  0.36870  0.79374  1.0000
  H   H982      1.0  0.38276  0.28119  0.68797  1.0000
  H   H983      1.0  0.27824  0.27538  0.72051  1.0000
  H   H984      1.0  0.29369  0.38649  0.80867  1.0000
  C   C556      1.0  0.25886  0.16779  0.60620  1.0000
  H   H985      1.0  0.38156  0.27840  0.65946  1.0000
  H   H986      1.0  0.28214  0.09444  0.61445  1.0000
  H   H987      1.0  0.40448  0.28366  0.80382  1.0000
  H   H988      1.0  0.26244  0.23883  0.74356  1.0000
  H   H989      1.0  0.38983  0.21693  0.84168  1.0000
  H   H990      1.0  0.25289  0.29454  0.77526  1.0000
  C   C557      1.0  0.36788  0.38305  0.76606  1.0000
  H   H991      1.0  0.25197  0.34869  0.84974  1.0000
  H   H992      1.0  0.38440  0.33703  0.80413  1.0000
  C   C558      1.0  0.30090  0.31119  0.59899  1.0000
  H   H993      1.0  0.41156  0.38970  0.82545  1.0000
  H   H994      1.0  0.28409  0.48533  0.73105  1.0000
  N   N32       1.0  0.38447  0.36484  0.77691  1.0000
  C   C559      1.0  0.34920  0.31652  0.80268  1.0000
  H   H995      1.0  0.25090  0.28568  0.66936  1.0000
  H   H996      1.0  0.32031  0.38374  0.65789  1.0000
  C   C560      1.0  0.31436  0.38116  0.64248  1.0000
  C   C561      1.0  0.37252  0.34818  0.79373  1.0000
  C   C562      1.0  0.25073  0.33470  0.84069  1.0000
  H   H997      1.0  0.31095  0.09884  0.58181  1.0000
  H   H998      1.0  0.41154  0.32114  0.77906  1.0000
  H   H999      1.0  0.33913  0.30702  0.79532  1.0000
  H   H1000     1.0  0.28896  0.29987  0.72442  1.0000
  H   H1001     1.0  0.37624  0.17420  0.80812  1.0000
  H   H1002     1.0  0.26403  0.22778  0.77246  1.0000
  H   H1003     1.0  0.46401  0.20499  0.80406  1.0000
  C   C563      1.0  0.29399  0.05330  0.65937  1.0000
  C   C564      1.0  0.31547  0.03589  0.65686  1.0000
  H   H1004     1.0  0.42838  0.28549  0.81691  1.0000
  H   H1005     1.0  0.29893  0.00947  0.63530  1.0000
  S   S123      1.0  0.25843  0.21547  0.87118  1.0000
  C   C565      1.0  0.33320  0.04055  0.66951  1.0000
  S   S124      1.0  0.26740  0.10292  0.70440  1.0000
  H   H1006     1.0  0.26539  0.25708  0.76303  1.0000
  C   C566      1.0  0.38390  0.39050  0.80692  1.0000
  H   H1007     1.0  0.46091  0.21591  0.83619  1.0000
  H   H1008     1.0  0.37146  0.40372  0.79936  1.0000
  H   H1009     1.0  0.35987  0.35700  0.80580  1.0000
  H   H1010     1.0  0.29876  0.07038  0.65718  1.0000
  H   H1011     1.0  0.28661  0.05022  0.67732  1.0000
  H   H1012     1.0  0.32319  0.03597  0.63913  1.0000
  H   H1013     1.0  0.31141  0.01890  0.66409  1.0000
  H   H1014     1.0  0.26543  0.45536  0.72247  1.0000
  H   H1015     1.0  0.37466  0.39929  0.76193  1.0000
  H   H1016     1.0  0.30058  0.39494  0.63863  1.0000
  C   C567      1.0  0.41913  0.33499  0.76792  1.0000
  C   C568      1.0  0.42327  0.24036  0.82225  1.0000
  H   H1017     1.0  0.31026  0.31129  0.58176  1.0000
  H   H1018     1.0  0.32309  0.32936  0.60961  1.0000
  H   H1019     1.0  0.33843  0.05715  0.66256  1.0000
  H   H1020     1.0  0.32669  0.04020  0.68761  1.0000
  H   H1021     1.0  0.34915  0.30020  0.64127  1.0000
  H   H1022     1.0  0.33078  0.29932  0.61358  1.0000
  N   N33       1.0  0.31740  0.31594  0.65696  1.0000
  C   C569      1.0  0.30258  0.31480  0.67942  1.0000
  C   C570      1.0  0.30438  0.31161  0.63970  1.0000
  C   C571      1.0  0.33798  0.29856  0.65762  1.0000
  C   C572      1.0  0.35286  0.29953  0.67542  1.0000
  C   C573      1.0  0.29735  0.29116  0.69062  1.0000
  S   S125      1.0  0.27296  0.27344  0.83214  1.0000
  H   H1023     1.0  0.28620  0.32558  0.67786  1.0000
  H   H1024     1.0  0.30984  0.32195  0.69165  1.0000
  H   H1025     1.0  0.41704  0.18590  0.87618  1.0000
  H   H1026     1.0  0.28834  0.32322  0.63981  1.0000
  H   H1027     1.0  0.29945  0.29457  0.64398  1.0000
  H   H1028     1.0  0.33333  0.28145  0.66002  1.0000
  H   H1029     1.0  0.34318  0.29939  0.69247  1.0000
  H   H1030     1.0  0.36091  0.31493  0.67111  1.0000
  H   H1031     1.0  0.25355  0.12814  0.66285  1.0000
  H   H1032     1.0  0.44276  0.33816  0.73691  1.0000
  H   H1033     1.0  0.29907  0.35746  0.63054  1.0000
  H   H1034     1.0  0.44570  0.24508  0.85894  1.0000
  C   C574      1.0  0.32452  0.33888  0.65113  1.0000
  C   C575      1.0  0.40414  0.21361  0.85139  1.0000
  H   H1035     1.0  0.29365  0.29531  0.60390  1.0000
  C   C576      1.0  0.25501  0.13916  0.64712  1.0000
  H   H1036     1.0  0.34945  0.23889  0.66059  1.0000
  H   H1037     1.0  0.29410  0.15468  0.60341  1.0000
  H   H1038     1.0  0.40866  0.38665  0.77729  1.0000
  H   H1039     1.0  0.25552  0.36971  0.79047  1.0000
  H   H1040     1.0  0.28715  0.32560  0.59872  1.0000
  C   C577      1.0  0.44455  0.22746  0.86660  1.0000
  H   H1041     1.0  0.45917  0.16796  0.79653  1.0000
  C   C578      1.0  0.38123  0.18917  0.88105  1.0000
  C   C579      1.0  0.25299  0.14101  0.78406  1.0000
  H   H1042     1.0  0.44292  0.21866  0.78730  1.0000
  C   C580      1.0  0.25790  0.03012  0.71846  1.0000
  H   H1043     1.0  0.40918  0.36317  0.79899  1.0000
  H   H1044     1.0  0.30929  0.08097  0.62108  1.0000
  H   H1045     1.0  0.43653  0.18066  0.78089  1.0000
  H   H1046     1.0  0.43363  0.18288  0.82837  1.0000
  N   N34       1.0  0.42553  0.21706  0.83568  1.0000
  H   H1047     1.0  0.25885  0.29866  0.87566  1.0000
  H   H1048     1.0  0.26744  0.20680  0.80890  1.0000
  C   C581      1.0  0.42929  0.20015  0.81953  1.0000
  H   H1049     1.0  0.38102  0.17213  0.89084  1.0000
  C   C582      1.0  0.24972  0.32459  0.80407  1.0000
  H   H1050     1.0  0.26520  0.30282  0.70955  1.0000
  C   C583      1.0  0.38264  0.99877  0.70525  1.0000
  H   H1051     1.0  0.44010  0.24536  0.81580  1.0000
  C   C584      1.0  0.40840  0.25956  0.83394  1.0000
  H   H1052     1.0  0.44879  0.19495  0.85545  1.0000
  C   C585      1.0  0.44791  0.20338  0.79905  1.0000
  H   H1053     1.0  0.41251  0.25989  0.85076  1.0000
  H   H1054     1.0  0.41560  0.24050  0.80698  1.0000
  C   C586      1.0  0.41067  0.28251  0.82005  1.0000
  H   H1055     1.0  0.26354  0.08741  0.64780  1.0000
  C   C587      1.0  0.25923  0.36186  0.80743  1.0000
  S   S126      1.0  0.24889  0.23088  0.58155  1.0000
  H   H1056     1.0  0.48044  0.22035  0.86817  1.0000
  C   C588      1.0  0.30462  0.08249  0.58696  1.0000
  C   C589      1.0  0.24809  0.29946  0.65603  1.0000
  C   C590      1.0  0.29542  0.07994  0.61195  1.0000
  H   H1057     1.0  0.46357  0.23054  0.89251  1.0000
  C   C591      1.0  0.28622  0.05735  0.61986  1.0000
  C   C592      1.0  0.26817  0.03038  0.64967  1.0000
  Fe  Fe60      1.0  0.24978  0.24933  0.85126  1.0000
  C   C593      1.0  0.28057  0.01134  0.63629  1.0000
  H   H1058     1.0  0.25510  0.37576  0.81777  1.0000
  H   H1059     1.0  0.26034  0.17869  0.59029  1.0000
  C   C594      1.0  0.45222  0.18342  0.78608  1.0000
  C   C595      1.0  0.49268  0.24749  0.75258  1.0000
  C   C596      1.0  0.26111  0.47258  0.71501  1.0000
  H   H1060     1.0  0.46451  0.18672  0.77076  1.0000
  H   H1061     1.0  0.25876  0.13146  0.81844  1.0000
  C   C597      1.0  0.25756  0.24262  0.76099  1.0000
  C   C598      1.0  0.25751  0.07102  0.64906  1.0000
  H   H1062     1.0  0.25110  0.34552  0.77060  1.0000
  H   H1063     1.0  0.26738  0.31643  0.80418  1.0000
  H   H1064     1.0  0.46388  0.20208  0.88824  1.0000
  H   H1065     1.0  0.26759  0.02385  0.66789  1.0000
  C   C599      1.0  0.25237  0.14488  0.80616  1.0000
  H   H1066     1.0  0.24882  0.18656  0.66999  1.0000
  H   H1067     1.0  0.25550  0.11884  0.49666  1.0000
  H   H1068     1.0  0.39338  0.00773  0.69133  1.0000
  H   H1069     1.0  0.25053  0.03249  0.64637  1.0000
  H   H1070     1.0  0.24835  0.20004  0.69409  1.0000
  H   H1071     1.0  0.29126  0.08214  0.57688  1.0000
  C   C600      1.0  0.25690  0.31104  0.76631  1.0000
  S   S127      1.0  0.25343  0.26712  0.62866  1.0000
  H   H1072     1.0  0.27531  0.31070  0.76400  1.0000
  C   C601      1.0  0.25304  0.20147  0.67559  1.0000
  H   H1073     1.0  0.25139  0.31398  0.74957  1.0000
  H   H1074     1.0  0.36746  0.01067  0.71027  1.0000
  S   S128      1.0  0.24737  0.25676  0.51900  1.0000
  C   C602      1.0  0.24742  0.29500  0.63439  1.0000
  Fe  Fe61      1.0  0.27039  0.85449  0.22278  1.0000
  Fe  Fe62      1.0  0.26116  0.85787  0.17541  1.0000
  Fe  Fe63      1.0  0.26248  0.74961  0.08470  1.0000
  S   S129      1.0  0.29653  0.75061  0.06422  1.0000
  H   H1075     1.0  0.42053  0.98757  0.18903  1.0000
  N   N35       1.0  0.34717  0.77729  0.47953  1.0000
  S   S130      1.0  0.29273  0.70034  0.05344  1.0000
  H   H1076     1.0  0.31618  0.79615  0.49307  1.0000
  Fe  Fe64      1.0  0.30389  0.71481  0.08030  1.0000
  S   S131      1.0  0.33468  0.69645  0.09440  1.0000
  S   S132      1.0  0.27098  0.71483  0.10284  1.0000
  H   H1077     1.0  0.26185  0.49831  0.16176  1.0000
  Fe  Fe65      1.0  0.27255  0.59284  0.22791  1.0000
  H   H1078     1.0  0.31938  0.77059  0.46532  1.0000
  H   H1079     1.0  0.27246  0.95058  0.29645  1.0000
  Fe  Fe66      1.0  0.31130  0.59258  0.19044  1.0000
  S   S133      1.0  0.29859  0.56797  0.17415  1.0000
  S   S134      1.0  0.34195  0.60765  0.17322  1.0000
  Fe  Fe67      1.0  0.26496  0.58841  0.18164  1.0000
  H   H1080     1.0  0.26058  0.71531  0.00486  1.0000
  Fe  Fe68      1.0  0.29112  0.54938  0.20893  1.0000
  S   S135      1.0  0.27813  0.61472  0.19473  1.0000
  S   S136      1.0  0.30679  0.57252  0.22465  1.0000
  Fe  Fe69      1.0  0.44579  0.71605  0.19543  1.0000
  S   S137      1.0  0.42173  0.74774  0.19011  1.0000
  Fe  Fe70      1.0  0.40780  0.68834  0.21057  1.0000
  S   S138      1.0  0.38096  0.71803  0.20678  1.0000
  S   S139      1.0  0.39711  0.65479  0.22531  1.0000
  Fe  Fe71      1.0  0.40259  0.72820  0.17447  1.0000
  S   S140      1.0  0.38821  0.74742  0.14414  1.0000
  Fe  Fe72      1.0  0.40230  0.73506  0.22269  1.0000
  S   S141      1.0  0.38673  0.76103  0.24490  1.0000
  S   S142      1.0  0.42811  0.69717  0.17686  1.0000
  S   S143      1.0  0.42769  0.70462  0.22951  1.0000
  Fe  Fe73      1.0  0.31308  0.74334  0.35755  1.0000
  S   S144      1.0  0.30558  0.76873  0.38132  1.0000
  S   S145      1.0  0.34709  0.72613  0.34442  1.0000
  C   C603      1.0  0.24856  0.81974  0.14361  1.0000
  H   H1081     1.0  0.41172  0.79517  0.31257  1.0000
  Fe  Fe74      1.0  0.27771  0.78425  0.36134  1.0000
  C   C604      1.0  0.34192  0.49951  0.16631  1.0000
  Fe  Fe75      1.0  0.28063  0.74710  0.40094  1.0000
  S   S146      1.0  0.28156  0.73278  0.43790  1.0000
  S   S147      1.0  0.28777  0.76087  0.33582  1.0000
  S   S148      1.0  0.28995  0.72066  0.37802  1.0000
  S   S149      1.0  0.29702  0.83838  0.24384  1.0000
  C   C605      1.0  0.28366  0.96755  0.20757  1.0000
  H   H1082     1.0  0.30087  0.96333  0.21053  1.0000
  C   C606      1.0  0.33439  0.79756  0.48944  1.0000
  C   C607      1.0  0.28886  0.83400  0.27297  1.0000
  H   H1083     1.0  0.29235  0.54620  0.13147  1.0000
  H   H1084     1.0  0.26664  0.79685  0.48060  1.0000
  C   C608      1.0  0.44721  0.77529  0.24567  1.0000
  H   H1085     1.0  0.29010  0.64350  0.11685  1.0000
  C   C609      1.0  0.37538  0.75109  0.27233  1.0000
  C   C610      1.0  0.35921  0.76527  0.28449  1.0000
  C   C611      1.0  0.35009  0.75764  0.30656  1.0000
  C   C612      1.0  0.35781  0.73612  0.31677  1.0000
  C   C613      1.0  0.37448  0.72223  0.30481  1.0000
  C   C614      1.0  0.38292  0.72953  0.28245  1.0000
  H   H1086     1.0  0.35353  0.78206  0.27673  1.0000
  H   H1087     1.0  0.33740  0.76851  0.31580  1.0000
  H   H1088     1.0  0.38068  0.70574  0.31287  1.0000
  H   H1089     1.0  0.39552  0.71866  0.27315  1.0000
  C   C615      1.0  0.29585  0.81420  0.30962  1.0000
  S   S150      1.0  0.24784  0.73816  0.05803  1.0000
  C   C616      1.0  0.35513  0.62228  0.18841  1.0000
  C   C617      1.0  0.35613  0.61535  0.21126  1.0000
  C   C618      1.0  0.36878  0.62572  0.22248  1.0000
  C   C619      1.0  0.38004  0.64340  0.21109  1.0000
  C   C620      1.0  0.37825  0.65099  0.18847  1.0000
  C   C621      1.0  0.36609  0.64021  0.17708  1.0000
  H   H1090     1.0  0.34791  0.60141  0.22005  1.0000
  H   H1091     1.0  0.37019  0.61974  0.23995  1.0000
  H   H1092     1.0  0.38693  0.66457  0.17954  1.0000
  H   H1093     1.0  0.36546  0.64558  0.15938  1.0000
  H   H1094     1.0  0.27434  0.64786  0.04483  1.0000
  C   C622      1.0  0.27264  0.80091  0.10634  1.0000
  C   C623      1.0  0.28034  0.81810  0.11414  1.0000
  Fe  Fe76      1.0  0.26377  0.74008  0.35786  1.0000
  H   H1095     1.0  0.26151  0.89271  0.11158  1.0000
  H   H1096     1.0  0.27973  0.98929  0.28252  1.0000
  H   H1097     1.0  0.28185  0.79387  0.09181  1.0000
  C   C624      1.0  0.26407  0.51288  0.14845  1.0000
  H   H1098     1.0  0.28443  0.92260  0.16635  1.0000
  N   N36       1.0  0.32173  0.62780  0.10115  1.0000
  C   C625      1.0  0.34880  0.71092  0.10869  1.0000
  C   C626      1.0  0.36231  0.69873  0.12430  1.0000
  C   C627      1.0  0.37441  0.70980  0.13536  1.0000
  C   C628      1.0  0.37335  0.73307  0.13053  1.0000
  C   C629      1.0  0.36000  0.74525  0.11478  1.0000
  C   C630      1.0  0.34744  0.73424  0.10413  1.0000
  H   H1099     1.0  0.36342  0.68070  0.12790  1.0000
  H   H1100     1.0  0.38476  0.70032  0.14742  1.0000
  H   H1101     1.0  0.35938  0.76323  0.11080  1.0000
  H   H1102     1.0  0.33726  0.74369  0.09192  1.0000
  S   S151      1.0  0.27726  0.85017  0.14121  1.0000
  C   C631      1.0  0.38820  0.77113  0.48864  1.0000
  H   H1103     1.0  0.25501  0.63617  0.31465  1.0000
  C   C632      1.0  0.34106  0.58643  0.10638  1.0000
  H   H1104     1.0  0.33596  0.81309  0.47723  1.0000
  S   S152      1.0  0.30252  0.51172  0.21557  1.0000
  H   H1105     1.0  0.32102  0.80947  0.44797  1.0000
  H   H1106     1.0  0.32479  0.80622  0.40819  1.0000
  H   H1107     1.0  0.28069  0.96054  0.06464  1.0000
  H   H1108     1.0  0.30736  0.87998  0.34340  1.0000
  H   H1109     1.0  0.36010  0.49634  0.16007  1.0000
  H   H1110     1.0  0.30994  0.64928  0.05799  1.0000
  C   C633      1.0  0.27370  0.76937  0.46127  1.0000
  C   C634      1.0  0.28108  0.74640  0.46142  1.0000
  H   H1111     1.0  0.31007  0.92032  0.14696  1.0000
  H   H1112     1.0  0.48306  0.78936  0.27615  1.0000
  H   H1113     1.0  0.35022  0.80308  0.43658  1.0000
  H   H1114     1.0  0.29315  0.61353  0.09663  1.0000
  H   H1115     1.0  0.30547  0.97100  0.28694  1.0000
  H   H1116     1.0  0.45278  0.75943  0.30117  1.0000
  H   H1117     1.0  0.28063  0.93372  0.20368  1.0000
  H   H1118     1.0  0.37280  0.79811  0.46553  1.0000
  C   C635      1.0  0.29084  0.67223  0.34673  1.0000
  H   H1119     1.0  0.31946  0.76327  0.26589  1.0000
  H   H1120     1.0  0.31682  0.60924  0.07554  1.0000
  C   C636      1.0  0.38046  0.64763  0.08134  1.0000
  H   H1121     1.0  0.30282  0.68122  0.35213  1.0000
  Fe  Fe77      1.0  0.25912  0.70341  0.07475  1.0000
  C   C637      1.0  0.31294  0.64690  0.13771  1.0000
  H   H1122     1.0  0.28367  0.90063  0.13511  1.0000
  C   C638      1.0  0.29910  0.66692  0.32298  1.0000
  H   H1123     1.0  0.30954  0.53017  0.11197  1.0000
  C   C639      1.0  0.28210  0.63328  0.05587  1.0000
  H   H1124     1.0  0.29227  0.62118  0.04518  1.0000
  H   H1125     1.0  0.29860  0.98024  0.25880  1.0000
  C   C640      1.0  0.28772  0.73348  0.48117  1.0000
  H   H1126     1.0  0.31707  0.80851  0.27860  1.0000
  H   H1127     1.0  0.31554  0.65609  0.32327  1.0000
  C   C641      1.0  0.27646  0.82639  0.31970  1.0000
  H   H1128     1.0  0.35610  0.65082  0.11025  1.0000
  H   H1129     1.0  0.36190  0.57413  0.13281  1.0000
  H   H1130     1.0  0.28189  0.66856  0.14742  1.0000
  H   H1131     1.0  0.38274  0.65451  0.27527  1.0000
  H   H1132     1.0  0.34603  0.76129  0.45077  1.0000
  H   H1133     1.0  0.27219  0.88815  0.29766  1.0000
  S   S153      1.0  0.48232  0.72056  0.18547  1.0000
  H   H1134     1.0  0.33893  0.61065  0.12861  1.0000
  C   C642      1.0  0.33644  0.77520  0.45962  1.0000
  N   N37       1.0  0.28806  0.51118  0.13715  1.0000
  H   H1135     1.0  0.38330  0.67596  0.29202  1.0000
  C   C643      1.0  0.45015  0.78850  0.20377  1.0000
  H   H1136     1.0  0.44802  0.79301  0.24708  1.0000
  H   H1137     1.0  0.42917  0.77470  0.24586  1.0000
  H   H1138     1.0  0.40981  0.77753  0.27933  1.0000
  C   C644      1.0  0.27226  0.95074  0.20374  1.0000
  H   H1139     1.0  0.40970  0.98577  0.16371  1.0000
  H   H1140     1.0  0.26083  0.72136  0.15591  1.0000
  H   H1141     1.0  0.26909  0.59661  0.32586  1.0000
  H   H1142     1.0  0.28402  0.87107  0.33489  1.0000
  N   N38       1.0  0.28620  0.91293  0.27230  1.0000
  H   H1143     1.0  0.45332  0.68364  0.29781  1.0000
  H   H1144     1.0  0.25857  0.54214  0.11141  1.0000
  H   H1145     1.0  0.28333  0.69618  0.30289  1.0000
  H   H1146     1.0  0.27800  0.78061  0.21057  1.0000
  H   H1147     1.0  0.44672  0.78631  0.28565  1.0000
  S   S154      1.0  0.25581  0.83199  0.20571  1.0000
  C   C645      1.0  0.30407  0.89646  0.26104  1.0000
  H   H1148     1.0  0.35539  0.59105  0.09375  1.0000
  H   H1149     1.0  0.39420  0.64943  0.09032  1.0000
  C   C646      1.0  0.33417  0.79626  0.44156  1.0000
  C   C647      1.0  0.30796  0.90028  0.23495  1.0000
  C   C648      1.0  0.30788  0.64584  0.11394  1.0000
  C   C649      1.0  0.37142  0.78010  0.47160  1.0000
  H   H1150     1.0  0.30821  0.66269  0.10379  1.0000
  C   C650      1.0  0.32703  0.79079  0.42062  1.0000
  C   C651      1.0  0.32968  0.88639  0.22566  1.0000
  H   H1151     1.0  0.45753  0.68981  0.26767  1.0000
  H   H1152     1.0  0.37447  0.66441  0.07238  1.0000
  H   H1153     1.0  0.26581  0.96012  0.26822  1.0000
  C   C652      1.0  0.26440  0.97035  0.07055  1.0000
  H   H1154     1.0  0.29332  0.71569  0.48149  1.0000
  H   H1155     1.0  0.32047  0.89639  0.26658  1.0000
  H   H1156     1.0  0.31259  0.88144  0.30262  1.0000
  H   H1157     1.0  0.33663  0.65332  0.07707  1.0000
  C   C653      1.0  0.44453  0.76847  0.28665  1.0000
  C   C654      1.0  0.29672  0.64137  0.06982  1.0000
  H   H1158     1.0  0.24994  0.69504  0.16308  1.0000
  H   H1159     1.0  0.36854  0.62240  0.10716  1.0000
  H   H1160     1.0  0.30897  0.91801  0.22789  1.0000
  H   H1161     1.0  0.29404  0.89515  0.22852  1.0000
  H   H1162     1.0  0.40771  0.96368  0.18724  1.0000
  H   H1163     1.0  0.24828  0.81268  0.26339  1.0000
  H   H1164     1.0  0.43170  0.78972  0.20499  1.0000
  H   H1165     1.0  0.43050  0.69820  0.28353  1.0000
  H   H1166     1.0  0.45580  0.75413  0.21881  1.0000
  C   C655      1.0  0.45026  0.73659  0.26484  1.0000
  H   H1167     1.0  0.25350  0.70996  0.18493  1.0000
  H   H1168     1.0  0.45791  0.78403  0.18703  1.0000
  H   H1169     1.0  0.48511  0.79209  0.24611  1.0000
  C   C656      1.0  0.28076  0.90301  0.29660  1.0000
  C   C657      1.0  0.41903  0.76766  0.29274  1.0000
  H   H1170     1.0  0.32999  0.86837  0.23263  1.0000
  H   H1171     1.0  0.33105  0.88804  0.20713  1.0000
  H   H1172     1.0  0.34436  0.89233  0.22987  1.0000
  H   H1173     1.0  0.24982  0.86107  0.09708  1.0000
  H   H1174     1.0  0.32971  0.57923  0.09817  1.0000
  C   C658      1.0  0.35019  0.56793  0.12409  1.0000
  C   C659      1.0  0.26975  0.84659  0.28307  1.0000
  C   C660      1.0  0.48067  0.75814  0.26396  1.0000
  H   H1175     1.0  0.33633  0.56211  0.13670  1.0000
  H   H1176     1.0  0.43227  0.73742  0.26333  1.0000
  C   C661      1.0  0.34175  0.63644  0.08641  1.0000
  H   H1177     1.0  0.27639  0.57653  0.10373  1.0000
  H   H1178     1.0  0.28885  0.67250  0.27314  1.0000
  H   H1179     1.0  0.26847  0.62524  0.06691  1.0000
  H   H1180     1.0  0.25660  0.54960  0.14783  1.0000
  C   C662      1.0  0.30717  0.62166  0.08619  1.0000
  H   H1181     1.0  0.42256  0.77198  0.49239  1.0000
  H   H1182     1.0  0.25974  0.85918  0.27290  1.0000
  H   H1183     1.0  0.28951  0.65642  0.35853  1.0000
  H   H1184     1.0  0.35938  0.55345  0.11598  1.0000
  H   H1185     1.0  0.41544  0.75020  0.29540  1.0000
  N   N39       1.0  0.45568  0.75961  0.26529  1.0000
  C   C663      1.0  0.36148  0.63873  0.09825  1.0000
  H   H1186     1.0  0.29555  0.82420  0.10560  1.0000
  H   H1187     1.0  0.25268  0.51173  0.13646  1.0000
  H   H1188     1.0  0.26835  0.77947  0.44627  1.0000
  H   H1189     1.0  0.31313  0.60170  0.12826  1.0000
  H   H1190     1.0  0.25034  0.77847  0.24495  1.0000
  C   C664      1.0  0.40945  0.77730  0.31441  1.0000
  H   H1191     1.0  0.44758  0.72369  0.30117  1.0000
  C   C665      1.0  0.26560  0.91612  0.26087  1.0000
  H   H1192     1.0  0.29077  0.94620  0.14557  1.0000
  H   H1193     1.0  0.25401  0.68870  0.25770  1.0000
  H   H1194     1.0  0.33990  0.77823  0.41274  1.0000
  H   H1195     1.0  0.33984  0.73103  0.47716  1.0000
  H   H1196     1.0  0.29783  0.56400  0.08334  1.0000
  H   H1197     1.0  0.30011  0.87905  0.26624  1.0000
  C   C666      1.0  0.28041  0.91925  0.13242  1.0000
  C   C667      1.0  0.29553  0.93465  0.26988  1.0000
  C   C668      1.0  0.29169  0.97498  0.27658  1.0000
  H   H1198     1.0  0.30113  0.94065  0.25197  1.0000
  H   H1199     1.0  0.35648  0.67971  0.25287  1.0000
  H   H1200     1.0  0.33028  0.72466  0.28682  1.0000
  H   H1201     1.0  0.30069  0.73385  0.28901  1.0000
  C   C669      1.0  0.30209  0.81806  0.28631  1.0000
  H   H1202     1.0  0.39460  0.67947  0.26277  1.0000
  H   H1203     1.0  0.33086  0.64675  0.13816  1.0000
  H   H1204     1.0  0.34228  0.68492  0.30285  1.0000
  H   H1205     1.0  0.30700  0.63028  0.25298  1.0000
  H   H1206     1.0  0.30355  0.66749  0.16428  1.0000
  H   H1207     1.0  0.39125  0.77626  0.31832  1.0000
  H   H1208     1.0  0.31508  0.64351  0.22481  1.0000
  H   H1209     1.0  0.30560  0.68322  0.13649  1.0000
  C   C670      1.0  0.26822  0.82765  0.13266  1.0000
  Fe  Fe78      1.0  0.28260  0.73605  0.03880  1.0000
  C   C671      1.0  0.25246  0.79369  0.11669  1.0000
  H   H1210     1.0  0.35849  0.70274  0.26639  1.0000
  H   H1211     1.0  0.30679  0.70077  0.31397  1.0000
  H   H1212     1.0  0.28714  0.65717  0.31864  1.0000
  H   H1213     1.0  0.31088  0.78406  0.42499  1.0000
  C   C672      1.0  0.45605  0.71852  0.28496  1.0000
  H   H1214     1.0  0.30742  0.63227  0.14941  1.0000
  H   H1215     1.0  0.30884  0.65137  0.28520  1.0000
  H   H1216     1.0  0.45944  0.72991  0.24955  1.0000
  H   H1217     1.0  0.41767  0.76757  0.32862  1.0000
  C   C673      1.0  0.30072  0.68857  0.30565  1.0000
  H   H1218     1.0  0.28902  0.65411  0.24054  1.0000
  C   C674      1.0  0.41081  0.77915  0.48016  1.0000
  H   H1219     1.0  0.37819  0.77147  0.45670  1.0000
  H   H1220     1.0  0.34242  0.65942  0.29280  1.0000
  N   N40       1.0  0.31967  0.77446  0.17872  1.0000
  C   C675      1.0  0.33270  0.78183  0.15623  1.0000
  C   C676      1.0  0.32805  0.75000  0.18584  1.0000
  C   C677      1.0  0.29519  0.77816  0.17639  1.0000
  C   C678      1.0  0.32284  0.78780  0.19623  1.0000
  C   C679      1.0  0.34737  0.78751  0.19964  1.0000
  C   C680      1.0  0.32938  0.80729  0.14759  1.0000
  C   C681      1.0  0.27944  0.76959  0.19759  1.0000
  C   C682      1.0  0.32149  0.73313  0.17264  1.0000
  C   C683      1.0  0.33118  0.70902  0.18104  1.0000
  C   C684      1.0  0.34839  0.80267  0.21678  1.0000
  C   C685      1.0  0.34261  0.81232  0.12423  1.0000
  C   C686      1.0  0.27267  0.77915  0.48079  1.0000
  H   H1221     1.0  0.32846  0.77333  0.14315  1.0000
  H   H1222     1.0  0.35089  0.77653  0.15640  1.0000
  H   H1223     1.0  0.34665  0.74724  0.18391  1.0000
  H   H1224     1.0  0.32261  0.74489  0.20403  1.0000
  H   H1225     1.0  0.29247  0.77071  0.16184  1.0000
  H   H1226     1.0  0.28900  0.79635  0.17230  1.0000
  H   H1227     1.0  0.31486  0.80556  0.19258  1.0000
  H   H1228     1.0  0.31399  0.78142  0.21291  1.0000
  H   H1229     1.0  0.35781  0.79350  0.18383  1.0000
  H   H1230     1.0  0.35501  0.77029  0.20599  1.0000
  H   H1231     1.0  0.31163  0.81357  0.14638  1.0000
  H   H1232     1.0  0.33509  0.81689  0.15882  1.0000
  C   C687      1.0  0.30079  0.89511  0.30992  1.0000
  H   H1233     1.0  0.28545  0.75223  0.20494  1.0000
  H   H1234     1.0  0.30310  0.73381  0.17450  1.0000
  H   H1235     1.0  0.32782  0.73675  0.15453  1.0000
  H   H1236     1.0  0.32668  0.69742  0.17097  1.0000
  H   H1237     1.0  0.34969  0.70705  0.17916  1.0000
  H   H1238     1.0  0.32447  0.70418  0.19893  1.0000
  H   H1239     1.0  0.34080  0.82016  0.21129  1.0000
  H   H1240     1.0  0.33944  0.79646  0.23346  1.0000
  H   H1241     1.0  0.36610  0.80277  0.21851  1.0000
  H   H1242     1.0  0.34006  0.83067  0.11847  1.0000
  H   H1243     1.0  0.36077  0.80652  0.12456  1.0000
  H   H1244     1.0  0.33678  0.80386  0.11208  1.0000
  H   H1245     1.0  0.30639  0.75093  0.24771  1.0000
  H   H1246     1.0  0.28602  0.65437  0.07902  1.0000
  C   C688      1.0  0.44887  0.69623  0.28329  1.0000
  S   S155      1.0  0.26789  0.82086  0.34872  1.0000
  S   S156      1.0  0.27869  0.87862  0.19166  1.0000
  H   H1247     1.0  0.34862  0.62566  0.07319  1.0000
  H   H1248     1.0  0.33627  0.74414  0.24817  1.0000
  H   H1249     1.0  0.30994  0.90917  0.31015  1.0000
  C   C689      1.0  0.30014  0.66789  0.14694  1.0000
  H   H1250     1.0  0.27416  0.68271  0.34760  1.0000
  H   H1251     1.0  0.33617  0.65383  0.25174  1.0000
  N   N41       1.0  0.31543  0.68542  0.28357  1.0000
  C   C690      1.0  0.31251  0.70731  0.26794  1.0000
  C   C691      1.0  0.30709  0.66773  0.27399  1.0000
  C   C692      1.0  0.33930  0.67797  0.28807  1.0000
  C   C693      1.0  0.35830  0.68440  0.26907  1.0000
  C   C694      1.0  0.31587  0.72830  0.27736  1.0000
  C   C695      1.0  0.31886  0.66244  0.25059  1.0000
  C   C696      1.0  0.30668  0.64665  0.24180  1.0000
  C   C697      1.0  0.38107  0.67288  0.27525  1.0000
  C   C698      1.0  0.31971  0.74781  0.25856  1.0000
  H   H1252     1.0  0.30623  0.80196  0.31982  1.0000
  H   H1253     1.0  0.32394  0.70644  0.25188  1.0000
  C   C699      1.0  0.45897  0.77051  0.22204  1.0000
  H   H1254     1.0  0.38716  0.63593  0.06896  1.0000
  C   C700      1.0  0.32829  0.60702  0.11717  1.0000
  H   H1255     1.0  0.29535  0.71073  0.26318  1.0000
  H   H1256     1.0  0.31933  0.67769  0.23795  1.0000
  S   S157      1.0  0.25631  0.56810  0.21535  1.0000
  H   H1257     1.0  0.28838  0.92522  0.11531  1.0000
  S   S158      1.0  0.25853  0.60986  0.25808  1.0000
  H   H1258     1.0  0.26743  0.92853  0.24540  1.0000
  C   C701      1.0  0.26366  0.84292  0.30646  1.0000
  H   H1259     1.0  0.26406  0.53444  0.17391  1.0000
  C   C702      1.0  0.38409  0.99390  0.19177  1.0000
  H   H1260     1.0  0.31088  0.93201  0.27794  1.0000
  H   H1261     1.0  0.25585  0.63791  0.15249  1.0000
  H   H1262     1.0  0.47436  0.71529  0.28530  1.0000
  H   H1263     1.0  0.40895  0.79773  0.47841  1.0000
  H   H1264     1.0  0.25590  0.51180  0.21067  1.0000
  H   H1265     1.0  0.36865  0.73384  0.47657  1.0000
  H   H1266     1.0  0.38196  0.98908  0.21023  1.0000
  C   C703      1.0  0.27641  0.54087  0.10387  1.0000
  H   H1267     1.0  0.25234  0.97037  0.05889  1.0000
  H   H1268     1.0  0.25333  0.67092  0.12221  1.0000
  C   C704      1.0  0.25078  0.99514  0.20335  1.0000
  H   H1269     1.0  0.26899  0.56970  0.07873  1.0000
  C   C705      1.0  0.27295  0.98981  0.20747  1.0000
  C   C706      1.0  0.35216  0.73393  0.48736  1.0000
  H   H1270     1.0  0.26873  0.91493  0.30612  1.0000
  C   C707      1.0  0.29244  0.53243  0.12164  1.0000
  C   C708      1.0  0.24876  0.71192  0.16790  1.0000
  C   C709      1.0  0.29278  0.88571  0.33422  1.0000
  H   H1271     1.0  0.45441  0.80505  0.20524  1.0000
  H   H1272     1.0  0.48439  0.69841  0.23129  1.0000
  H   H1273     1.0  0.33859  0.51461  0.17490  1.0000
  C   C710      1.0  0.24992  0.95600  0.20015  1.0000
  C   C711      1.0  0.25724  0.77784  0.26073  1.0000
  C   C712      1.0  0.27953  0.95474  0.27859  1.0000
  H   H1274     1.0  0.27513  0.78010  0.25650  1.0000
  C   C713      1.0  0.29210  0.92763  0.14885  1.0000
  C   C714      1.0  0.25495  0.53407  0.15983  1.0000
  H   H1275     1.0  0.28127  0.89872  0.34284  1.0000
  H   H1276     1.0  0.39118  0.75253  0.49117  1.0000
  C   C715      1.0  0.28025  0.56419  0.09170  1.0000
  C   C716      1.0  0.32858  0.50313  0.14673  1.0000
  C   C717      1.0  0.30305  0.50728  0.15501  1.0000
  H   H1277     1.0  0.24880  0.85253  0.31430  1.0000
  H   H1278     1.0  0.37125  0.98723  0.18511  1.0000
  H   H1279     1.0  0.41805  0.77363  0.46373  1.0000
  S   S159      1.0  0.25188  0.76453  0.38253  1.0000
  S   S160      1.0  0.29099  0.74785  0.00144  1.0000
  C   C718      1.0  0.40693  0.98210  0.18232  1.0000
  H   H1280     1.0  0.30000  0.52181  0.16437  1.0000
  H   H1281     1.0  0.48953  0.74906  0.25001  1.0000
  H   H1282     1.0  0.26386  0.90022  0.25524  1.0000
  C   C719      1.0  0.25116  0.60151  0.32389  1.0000
  C   C720      1.0  0.25158  0.93591  0.09544  1.0000
  H   H1283     1.0  0.24887  0.78718  0.18556  1.0000
  C   C721      1.0  0.24846  0.63722  0.13783  1.0000
  H   H1284     1.0  0.25658  0.75878  0.17941  1.0000
  C   C722      1.0  0.48971  0.78076  0.26132  1.0000
  H   H1285     1.0  0.25179  0.94515  0.13935  1.0000
  H   H1286     1.0  0.47731  0.77025  0.22006  1.0000
  C   C723      1.0  0.25606  0.76988  0.19214  1.0000
  H   H1287     1.0  0.24847  0.91780  0.15251  1.0000
  H   H1288     1.0  0.27936  0.52929  0.09119  1.0000
  H   H1289     1.0  0.48647  0.74791  0.27932  1.0000
  H   H1290     1.0  0.33404  0.51772  0.13499  1.0000
  H   H1291     1.0  0.26770  0.96165  0.10534  1.0000
  C   C724      1.0  0.25537  0.96052  0.09440  1.0000
  H   H1292     1.0  0.25605  0.76122  0.27116  1.0000
  S   S161      1.0  0.24734  0.72460  0.33503  1.0000
  H   H1293     1.0  0.26767  0.92613  0.08879  1.0000
  H   H1294     1.0  0.25128  0.79471  0.28968  1.0000
  C   C725      1.0  0.25483  0.92739  0.13623  1.0000
  H   H1295     1.0  0.26701  0.98793  0.07026  1.0000
  H   H1296     1.0  0.24783  0.65882  0.37386  1.0000
  H   H1297     1.0  0.24733  0.67785  0.29949  1.0000
  H   H1298     1.0  0.24911  0.59874  0.30693  1.0000
  C   C726      1.0  0.24702  0.65588  0.12075  1.0000
  Fe  Fe79      1.0  0.44714  0.77339  0.71163  1.0000
  S   S162      1.0  0.42706  0.74813  0.70521  1.0000
  Fe  Fe80      1.0  0.41447  0.81245  0.69322  1.0000
  S   S163      1.0  0.39268  0.79039  0.68450  1.0000
  S   S164      1.0  0.40461  0.84953  0.68404  1.0000
  Fe  Fe81      1.0  0.39677  0.77089  0.71847  1.0000
  S   S165      1.0  0.36372  0.76085  0.73614  1.0000
  Fe  Fe82      1.0  0.42455  0.76977  0.67196  1.0000
  S   S166      1.0  0.43275  0.75266  0.64104  1.0000
  S   S167      1.0  0.41675  0.79437  0.72815  1.0000
  S   S168      1.0  0.44634  0.79362  0.67753  1.0000
  Fe  Fe83      1.0  0.33906  0.76563  0.57123  1.0000
  S   S169      1.0  0.32749  0.74934  0.60544  1.0000
  S   S170      1.0  0.37396  0.77429  0.56178  1.0000
  S   S171      1.0  0.27955  0.74836  0.58892  1.0000
  Fe  Fe84      1.0  0.29536  0.77218  0.60332  1.0000
  S   S172      1.0  0.28105  0.78407  0.63643  1.0000
  Fe  Fe85      1.0  0.31296  0.72648  0.58915  1.0000
  S   S173      1.0  0.32147  0.69117  0.60631  1.0000
  S   S174      1.0  0.30794  0.79067  0.56996  1.0000
  S   S175      1.0  0.32738  0.74082  0.55444  1.0000
  Fe  Fe86      1.0  0.28507  0.89858  0.72013  1.0000
  S   S176      1.0  0.28470  0.92245  0.68787  1.0000
  S   S177      1.0  0.31341  0.88592  0.74012  1.0000
  C   C727      1.0  0.27362  0.82002  0.65913  1.0000
  S   S178      1.0  0.27360  0.88736  0.64333  1.0000
  H   H1299     1.0  0.28470  0.77984  0.93252  1.0000
  H   H1300     1.0  0.36758  0.98511  0.68265  1.0000
  Fe  Fe87      1.0  0.30716  0.71543  0.84940  1.0000
  S   S179      1.0  0.29790  0.68488  0.87294  1.0000
  S   S180      1.0  0.34346  0.71956  0.83779  1.0000
  H   H1301     1.0  0.35441  0.97040  0.64519  1.0000
  H   H1302     1.0  0.35967  0.69836  0.49910  1.0000
  H   H1303     1.0  0.34872  0.52998  0.58146  1.0000
  Fe  Fe88      1.0  0.27148  0.70889  0.89029  1.0000
  H   H1304     1.0  0.33803  0.95005  0.75657  1.0000
  Fe  Fe89      1.0  0.27298  0.68468  0.85004  1.0000
  C   C728      1.0  0.34152  0.80245  0.51097  1.0000
  S   S181      1.0  0.28262  0.73966  0.86856  1.0000
  S   S182      1.0  0.28434  0.71321  0.82511  1.0000
  H   H1305     1.0  0.27130  0.55594  0.65047  1.0000
  S   S183      1.0  0.28431  0.63847  0.73968  1.0000
  H   H1306     1.0  0.25501  0.56115  0.61528  1.0000
  S   S184      1.0  0.47994  0.75891  0.72497  1.0000
  S   S185      1.0  0.27770  0.77924  0.52466  1.0000
  S   S186      1.0  0.28131  0.59761  0.69820  1.0000
  C   C729      1.0  0.26635  0.64992  0.63928  1.0000
  H   H1307     1.0  0.36591  0.71609  0.51723  1.0000
  C   C730      1.0  0.27111  0.71324  0.94840  1.0000
  C   C731      1.0  0.28796  0.72681  0.94262  1.0000
  C   C732      1.0  0.29440  0.73682  0.95916  1.0000
  C   C733      1.0  0.28438  0.73297  0.98164  1.0000
  H   H1308     1.0  0.25213  0.81108  0.73602  1.0000
  H   H1309     1.0  0.30558  0.76192  0.89978  1.0000
  H   H1310     1.0  0.29574  0.72984  0.92538  1.0000
  H   H1311     1.0  0.30712  0.74769  0.95453  1.0000
  H   H1312     1.0  0.32596  0.63788  0.58421  1.0000
  H   H1313     1.0  0.26486  0.84854  0.67668  1.0000
  H   H1314     1.0  0.29867  0.78774  0.88137  1.0000
  H   H1315     1.0  0.28909  0.63470  0.66264  1.0000
  Fe  Fe90      1.0  0.26589  0.89806  0.67775  1.0000
  C   C734      1.0  0.27688  0.64219  0.76793  1.0000
  C   C735      1.0  0.27525  0.66364  0.77365  1.0000
  C   C736      1.0  0.26268  0.66651  0.62088  1.0000
  H   H1316     1.0  0.41122  0.70519  0.68712  1.0000
  H   H1317     1.0  0.25415  0.85534  0.80695  1.0000
  H   H1318     1.0  0.27705  0.67774  0.76053  1.0000
  C   C737      1.0  0.30162  0.55521  0.61389  1.0000
  H   H1319     1.0  0.31973  0.53098  0.57881  1.0000
  C   C738      1.0  0.28614  0.64740  0.64846  1.0000
  C   C739      1.0  0.30274  0.66063  0.63855  1.0000
  C   C740      1.0  0.29931  0.67691  0.61989  1.0000
  C   C741      1.0  0.27904  0.68024  0.61137  1.0000
  H   H1320     1.0  0.35315  0.75634  0.51102  1.0000
  C   C742      1.0  0.26984  0.64856  0.81318  1.0000
  H   H1321     1.0  0.31843  0.65799  0.64513  1.0000
  H   H1322     1.0  0.27656  0.69253  0.59670  1.0000
  H   H1323     1.0  0.32708  0.57666  0.63552  1.0000
  C   C743      1.0  0.28103  0.81245  0.63839  1.0000
  C   C744      1.0  0.28681  0.82781  0.61944  1.0000
  C   C745      1.0  0.28480  0.85070  0.62120  1.0000
  C   C746      1.0  0.27708  0.85836  0.64190  1.0000
  C   C747      1.0  0.30143  0.78041  0.89876  1.0000
  H   H1324     1.0  0.25379  0.77647  0.95548  1.0000
  H   H1325     1.0  0.29251  0.82217  0.60336  1.0000
  H   H1326     1.0  0.28911  0.86256  0.60646  1.0000
  H   H1327     1.0  0.26893  0.80828  0.67383  1.0000
  C   C748      1.0  0.35898  0.75282  0.76530  1.0000
  C   C749      1.0  0.37647  0.74458  0.77787  1.0000
  C   C750      1.0  0.37168  0.73491  0.80044  1.0000
  C   C751      1.0  0.34944  0.73389  0.81049  1.0000
  C   C752      1.0  0.33211  0.74328  0.79818  1.0000
  C   C753      1.0  0.33686  0.75232  0.77559  1.0000
  H   H1328     1.0  0.39363  0.74488  0.77001  1.0000
  H   H1329     1.0  0.38519  0.72780  0.80998  1.0000
  H   H1330     1.0  0.31501  0.74285  0.80588  1.0000
  H   H1331     1.0  0.32338  0.75843  0.76587  1.0000
  C   C754      1.0  0.37860  0.85837  0.69934  1.0000
  C   C755      1.0  0.37466  0.85198  0.72257  1.0000
  C   C756      1.0  0.35452  0.86045  0.73500  1.0000
  C   C757      1.0  0.33793  0.87460  0.72413  1.0000
  C   C758      1.0  0.34154  0.88044  0.70082  1.0000
  C   C759      1.0  0.36207  0.87271  0.68849  1.0000
  H   H1332     1.0  0.38743  0.84104  0.73104  1.0000
  H   H1333     1.0  0.35177  0.85592  0.75303  1.0000
  H   H1334     1.0  0.32874  0.89127  0.69233  1.0000
  H   H1335     1.0  0.36505  0.87758  0.67050  1.0000
  C   C760      1.0  0.41609  0.75995  0.61926  1.0000
  C   C761      1.0  0.42277  0.74945  0.60009  1.0000
  C   C762      1.0  0.40980  0.75409  0.58259  1.0000
  C   C763      1.0  0.38968  0.76885  0.58429  1.0000
  C   C764      1.0  0.38290  0.77952  0.60344  1.0000
  C   C765      1.0  0.39629  0.77530  0.62078  1.0000
  H   H1336     1.0  0.43806  0.73765  0.59873  1.0000
  H   H1337     1.0  0.41524  0.74596  0.56781  1.0000
  H   H1338     1.0  0.36754  0.79126  0.60471  1.0000
  H   H1339     1.0  0.39126  0.78381  0.63532  1.0000
  H   H1340     1.0  0.34076  0.78797  0.52456  1.0000
  C   C766      1.0  0.31418  0.60880  0.60554  1.0000
  C   C767      1.0  0.27151  0.84289  0.66084  1.0000
  C   C768      1.0  0.27146  0.57258  0.63978  1.0000
  H   H1341     1.0  0.33154  0.82575  0.53515  1.0000
  C   C769      1.0  0.37617  0.97860  0.69751  1.0000
  C   C770      1.0  0.32580  0.55277  0.60127  1.0000
  N   N42       1.0  0.35470  0.94424  0.71220  1.0000
  C   C771      1.0  0.35398  0.94362  0.68776  1.0000
  C   C772      1.0  0.37086  0.92441  0.72088  1.0000
  C   C773      1.0  0.33171  0.94135  0.72479  1.0000
  C   C774      1.0  0.36063  0.96602  0.71644  1.0000
  Fe  Fe91      1.0  0.26590  0.61488  0.72791  1.0000
  C   C775      1.0  0.33487  0.96007  0.67745  1.0000
  C   C776      1.0  0.32930  0.93815  0.75076  1.0000
  C   C777      1.0  0.39561  0.92345  0.70989  1.0000
  C   C778      1.0  0.40956  0.90152  0.71867  1.0000
  C   C779      1.0  0.26001  0.77782  0.91072  1.0000
  C   C780      1.0  0.33898  0.96278  0.65186  1.0000
  Fe  Fe92      1.0  0.26211  0.56961  0.71527  1.0000
  H   H1342     1.0  0.35196  0.92646  0.68533  1.0000
  H   H1343     1.0  0.37008  0.94670  0.67729  1.0000
  H   H1344     1.0  0.37114  0.92382  0.73909  1.0000
  H   H1345     1.0  0.36515  0.90851  0.71921  1.0000
  H   H1346     1.0  0.32574  0.92691  0.71999  1.0000
  H   H1347     1.0  0.31946  0.95615  0.71988  1.0000
  C   C781      1.0  0.26002  0.79472  0.74411  1.0000
  H   H1348     1.0  0.31598  0.78686  0.90265  1.0000
  H   H1349     1.0  0.30413  0.58947  0.65274  1.0000
  H   H1350     1.0  0.27803  0.80537  0.91412  1.0000
  H   H1351     1.0  0.31876  0.95344  0.68306  1.0000
  C   C782      1.0  0.25472  0.86745  0.79123  1.0000
  H   H1352     1.0  0.24746  0.66837  0.61360  1.0000
  H   H1353     1.0  0.33646  0.92076  0.75719  1.0000
  H   H1354     1.0  0.39744  0.92445  0.69143  1.0000
  H   H1355     1.0  0.40290  0.93724  0.71422  1.0000
  H   H1356     1.0  0.42733  0.90142  0.71098  1.0000
  H   H1357     1.0  0.40862  0.89954  0.73718  1.0000
  H   H1358     1.0  0.40360  0.88699  0.71414  1.0000
  H   H1359     1.0  0.34528  0.97837  0.71980  1.0000
  H   H1360     1.0  0.47009  0.74629  0.67037  1.0000
  H   H1361     1.0  0.32464  0.97388  0.64507  1.0000
  H   H1362     1.0  0.25833  0.78363  0.89269  1.0000
  H   H1363     1.0  0.26665  0.58522  0.65153  1.0000
  H   H1364     1.0  0.32653  0.75687  0.50397  1.0000
  H   H1365     1.0  0.31658  0.53793  0.65420  1.0000
  C   C783      1.0  0.24847  0.81438  0.57077  1.0000
  H   H1366     1.0  0.29201  0.73308  0.51564  1.0000
  C   C784      1.0  0.28072  0.78684  0.91549  1.0000
  H   H1367     1.0  0.28449  0.96901  0.71103  1.0000
  H   H1368     1.0  0.34662  0.55357  0.66595  1.0000
  C   C785      1.0  0.29312  0.59678  0.61114  1.0000
  H   H1369     1.0  0.27649  0.78973  0.73414  1.0000
  H   H1370     1.0  0.33283  0.97685  0.68276  1.0000
  S   S187      1.0  0.25992  0.70321  0.92785  1.0000
  H   H1371     1.0  0.29917  0.53914  0.62502  1.0000
  H   H1372     1.0  0.29062  0.55638  0.60091  1.0000
  H   H1373     1.0  0.33054  0.51628  0.60397  1.0000
  H   H1374     1.0  0.26990  0.68351  0.80051  1.0000
  H   H1375     1.0  0.33716  0.71296  0.51651  1.0000
  H   H1376     1.0  0.30343  0.93813  0.77983  1.0000
  C   C786      1.0  0.30988  0.57462  0.64380  1.0000
  H   H1377     1.0  0.36837  0.96320  0.73209  1.0000
  Fe  Fe93      1.0  0.25098  0.93755  0.70399  1.0000
  H   H1378     1.0  0.28800  0.59472  0.59507  1.0000
  S   S188      1.0  0.26683  0.65192  0.84155  1.0000
  H   H1379     1.0  0.29595  0.55267  0.67333  1.0000
  C   C787      1.0  0.26161  0.70882  0.97099  1.0000
  C   C788      1.0  0.39345  0.70372  0.68690  1.0000
  H   H1380     1.0  0.47084  0.81324  0.63110  1.0000
  C   C789      1.0  0.30472  0.94180  0.76128  1.0000
  C   C790      1.0  0.27074  0.62715  0.80746  1.0000
  H   H1381     1.0  0.46026  0.70865  0.68281  1.0000
  H   H1382     1.0  0.29515  0.93048  0.75562  1.0000
  H   H1383     1.0  0.32611  0.56954  0.68439  1.0000
  H   H1384     1.0  0.30857  0.81922  0.52372  1.0000
  C   C791      1.0  0.31157  0.62846  0.58660  1.0000
  C   C792      1.0  0.47738  0.71176  0.68375  1.0000
  H   H1385     1.0  0.35866  0.80693  0.50737  1.0000
  C   C793      1.0  0.26568  0.51212  0.71078  1.0000
  H   H1386     1.0  0.49474  0.78063  0.66464  1.0000
  H   H1387     1.0  0.26872  0.86990  0.75667  1.0000
  C   C794      1.0  0.27717  0.98601  0.71306  1.0000
  H   H1388     1.0  0.39254  0.69733  0.67129  1.0000
  H   H1389     1.0  0.25488  0.98966  0.64860  1.0000
  H   H1390     1.0  0.25132  0.50434  0.76295  1.0000
  C   C795      1.0  0.27140  0.66688  0.79622  1.0000
  N   N43       1.0  0.29453  0.57473  0.62689  1.0000
  C   C796      1.0  0.31195  0.55354  0.66188  1.0000
  H   H1391     1.0  0.25148  0.76072  0.75151  1.0000
  H   H1392     1.0  0.33014  0.53940  0.68970  1.0000
  S   S189      1.0  0.26943  0.87309  0.70858  1.0000
  H   H1393     1.0  0.25614  0.79661  0.57041  1.0000
  N   N44       1.0  0.34242  0.67992  0.77168  1.0000
  C   C797      1.0  0.34609  0.67132  0.79566  1.0000
  C   C798      1.0  0.36169  0.69166  0.75913  1.0000
  C   C799      1.0  0.32140  0.69692  0.77242  1.0000
  C   C800      1.0  0.33884  0.66156  0.75965  1.0000
  C   C801      1.0  0.35734  0.64098  0.75911  1.0000
  C   C802      1.0  0.32734  0.65938  0.81077  1.0000
  C   C803      1.0  0.31611  0.71074  0.74965  1.0000
  C   C804      1.0  0.38524  0.68304  0.76605  1.0000
  C   C805      1.0  0.40339  0.69404  0.74972  1.0000
  C   C806      1.0  0.35025  0.62277  0.74869  1.0000
  C   C807      1.0  0.33399  0.64981  0.83385  1.0000
  C   C808      1.0  0.29396  0.72656  0.75273  1.0000
  H   H1394     1.0  0.34834  0.68549  0.80399  1.0000
  H   H1395     1.0  0.36179  0.65936  0.79648  1.0000
  H   H1396     1.0  0.36286  0.69192  0.74073  1.0000
  H   H1397     1.0  0.35865  0.70956  0.76159  1.0000
  H   H1398     1.0  0.32198  0.70898  0.78385  1.0000
  H   H1399     1.0  0.30661  0.68870  0.77977  1.0000
  H   H1400     1.0  0.32266  0.65547  0.76682  1.0000
  H   H1401     1.0  0.33711  0.66815  0.74184  1.0000
  H   H1402     1.0  0.36090  0.63344  0.77617  1.0000
  H   H1403     1.0  0.37285  0.64584  0.74864  1.0000
  H   H1404     1.0  0.31174  0.67131  0.81353  1.0000
  H   H1405     1.0  0.32376  0.64531  0.80335  1.0000
  H   H1406     1.0  0.31457  0.69966  0.73760  1.0000
  H   H1407     1.0  0.32933  0.72118  0.74204  1.0000
  H   H1408     1.0  0.38565  0.68739  0.78289  1.0000
  H   H1409     1.0  0.38973  0.66465  0.76683  1.0000
  H   H1410     1.0  0.41947  0.68979  0.75660  1.0000
  H   H1411     1.0  0.40585  0.68785  0.73335  1.0000
  H   H1412     1.0  0.39892  0.71259  0.74710  1.0000
  H   H1413     1.0  0.33496  0.61687  0.75886  1.0000
  H   H1414     1.0  0.34674  0.62923  0.73133  1.0000
  H   H1415     1.0  0.36385  0.60824  0.74809  1.0000
  H   H1416     1.0  0.33793  0.66328  0.84201  1.0000
  H   H1417     1.0  0.31989  0.64232  0.84468  1.0000
  H   H1418     1.0  0.34878  0.63656  0.83242  1.0000
  H   H1419     1.0  0.29117  0.73712  0.73650  1.0000
  H   H1420     1.0  0.27980  0.71690  0.75859  1.0000
  H   H1421     1.0  0.29414  0.73773  0.76520  1.0000
  N   N45       1.0  0.34321  0.73326  0.66895  1.0000
  C   C809      1.0  0.34560  0.75726  0.65905  1.0000
  C   C810      1.0  0.35297  0.71761  0.65189  1.0000
  C   C811      1.0  0.31841  0.73193  0.67482  1.0000
  C   C812      1.0  0.35361  0.72618  0.69019  1.0000
  C   C813      1.0  0.37911  0.72668  0.68853  1.0000
  C   C814      1.0  0.33522  0.77551  0.67411  1.0000
  C   C815      1.0  0.31166  0.70799  0.68096  1.0000
  C   C816      1.0  0.37375  0.72354  0.63494  1.0000
  C   C817      1.0  0.38281  0.70502  0.62047  1.0000
  C   C818      1.0  0.33735  0.79895  0.66121  1.0000
  C   C819      1.0  0.28628  0.70911  0.68658  1.0000
  H   H1422     1.0  0.33791  0.76183  0.64340  1.0000
  H   H1423     1.0  0.36334  0.75946  0.65384  1.0000
  H   H1424     1.0  0.35688  0.70014  0.66045  1.0000
  H   H1425     1.0  0.34036  0.71674  0.64106  1.0000
  H   H1426     1.0  0.30950  0.74069  0.66054  1.0000
  H   H1427     1.0  0.31098  0.74081  0.68937  1.0000
  H   H1428     1.0  0.34503  0.73686  0.70305  1.0000
  H   H1429     1.0  0.35048  0.70908  0.69802  1.0000
  H   H1430     1.0  0.38198  0.73161  0.70432  1.0000
  H   H1431     1.0  0.38567  0.73948  0.67520  1.0000
  H   H1432     1.0  0.31711  0.77516  0.67972  1.0000
  H   H1433     1.0  0.34388  0.77335  0.68903  1.0000
  H   H1434     1.0  0.31904  0.69850  0.69571  1.0000
  H   H1435     1.0  0.31708  0.69813  0.66683  1.0000
  H   H1436     1.0  0.36911  0.73903  0.62341  1.0000
  H   H1437     1.0  0.38748  0.72637  0.64317  1.0000
  H   H1438     1.0  0.36979  0.70247  0.61092  1.0000
  H   H1439     1.0  0.39737  0.70990  0.60826  1.0000
  H   H1440     1.0  0.38832  0.68905  0.63102  1.0000
  H   H1441     1.0  0.35518  0.80101  0.65581  1.0000
  H   H1442     1.0  0.32872  0.80200  0.64616  1.0000
  H   H1443     1.0  0.32948  0.81182  0.67206  1.0000
  H   H1444     1.0  0.27978  0.71779  0.70143  1.0000
  H   H1445     1.0  0.27806  0.71809  0.67205  1.0000
  H   H1446     1.0  0.28201  0.69182  0.69042  1.0000
  N   N46       1.0  0.27494  0.81375  0.77249  1.0000
  C   C820      1.0  0.26060  0.83599  0.76688  1.0000
  C   C821      1.0  0.26314  0.79530  0.76862  1.0000
  C   C822      1.0  0.27629  0.81062  0.79732  1.0000
  C   C823      1.0  0.29834  0.81236  0.75953  1.0000
  C   C824      1.0  0.30125  0.82545  0.73543  1.0000
  H   H1447     1.0  0.32758  0.56687  0.58738  1.0000
  C   C825      1.0  0.29128  0.78915  0.80673  1.0000
  H   H1448     1.0  0.49230  0.83072  0.62094  1.0000
  H   H1449     1.0  0.27546  0.60732  0.78050  1.0000
  C   C826      1.0  0.32436  0.81824  0.72266  1.0000
  C   C827      1.0  0.29359  0.78939  0.83116  1.0000
  H   H1450     1.0  0.31661  0.61568  0.62049  1.0000
  H   H1451     1.0  0.39172  0.96767  0.69190  1.0000
  H   H1452     1.0  0.27232  0.77857  0.77424  1.0000
  H   H1453     1.0  0.26174  0.88223  0.79380  1.0000
  H   H1454     1.0  0.33829  0.55215  0.61258  1.0000
  H   H1455     1.0  0.28313  0.82474  0.80158  1.0000
  H   H1456     1.0  0.30972  0.81875  0.76856  1.0000
  H   H1457     1.0  0.30554  0.79455  0.75857  1.0000
  H   H1458     1.0  0.29985  0.84356  0.73628  1.0000
  H   H1459     1.0  0.28857  0.82326  0.72544  1.0000
  C   C828      1.0  0.33145  0.53116  0.59077  1.0000
  H   H1460     1.0  0.28695  0.85346  0.77453  1.0000
  H   H1461     1.0  0.30838  0.78784  0.79718  1.0000
  H   H1462     1.0  0.28413  0.77386  0.80618  1.0000
  C   C829      1.0  0.35383  0.71419  0.50629  1.0000
  S   S190      1.0  0.24938  0.58565  0.74651  1.0000
  C   C830      1.0  0.32985  0.55415  0.67628  1.0000
  S   S191      1.0  0.25281  0.91541  0.73713  1.0000
  H   H1463     1.0  0.27974  0.60939  0.61834  1.0000
  H   H1464     1.0  0.33776  0.81934  0.73240  1.0000
  H   H1465     1.0  0.32590  0.80074  0.71928  1.0000
  H   H1466     1.0  0.32689  0.82947  0.70642  1.0000
  H   H1467     1.0  0.30515  0.77429  0.83707  1.0000
  H   H1468     1.0  0.30073  0.80440  0.83287  1.0000
  H   H1469     1.0  0.27705  0.78922  0.84188  1.0000
  H   H1470     1.0  0.26458  0.75929  0.91240  1.0000
  H   H1471     1.0  0.38803  0.69125  0.70133  1.0000
  Fe  Fe94      1.0  0.25900  0.73515  0.84585  1.0000
  Fe  Fe95      1.0  0.29515  0.76478  0.55515  1.0000
  C   C831      1.0  0.48302  0.73189  0.66644  1.0000
  H   H1472     1.0  0.29602  0.64018  0.59072  1.0000
  H   H1473     1.0  0.26929  0.61293  0.82055  1.0000
  C   C832      1.0  0.25230  0.57500  0.62545  1.0000
  C   C833      1.0  0.26923  0.85693  0.77167  1.0000
  C   C834      1.0  0.27412  0.62397  0.78483  1.0000
  H   H1474     1.0  0.25848  0.83927  0.74895  1.0000
  S   S192      1.0  0.27841  0.53315  0.71812  1.0000
  H   H1475     1.0  0.26057  0.82373  0.57547  1.0000
  H   H1476     1.0  0.29705  0.95946  0.75665  1.0000
  C   C835      1.0  0.26835  0.71847  0.98759  1.0000
  H   H1477     1.0  0.34062  0.94624  0.64606  1.0000
  H   H1478     1.0  0.32960  0.59744  0.60046  1.0000
  H   H1479     1.0  0.31101  0.62236  0.57064  1.0000
  H   H1480     1.0  0.25922  0.81078  0.80725  1.0000
  C   C836      1.0  0.34442  0.75660  0.49652  1.0000
  C   C837      1.0  0.25492  0.99319  0.70987  1.0000
  H   H1481     1.0  0.48173  0.72818  0.64961  1.0000
  H   H1482     1.0  0.48272  0.77194  0.64358  1.0000
  H   H1483     1.0  0.30687  0.99516  0.72148  1.0000
  C   C838      1.0  0.32617  0.82256  0.51967  1.0000
  H   H1484     1.0  0.32703  0.83784  0.50701  1.0000
  H   H1485     1.0  0.27867  0.98346  0.66367  1.0000
  H   H1486     1.0  0.47781  0.71516  0.70094  1.0000
  H   H1487     1.0  0.24937  0.76888  0.67789  1.0000
  C   C839      1.0  0.27932  0.76618  0.50052  1.0000
  H   H1488     1.0  0.38213  0.77636  0.50532  1.0000
  H   H1489     1.0  0.48888  0.80263  0.70055  1.0000
  C   C840      1.0  0.28697  0.74329  0.50057  1.0000
  H   H1490     1.0  0.28125  0.97571  0.63617  1.0000
  C   C841      1.0  0.27335  0.98872  0.64685  1.0000
  H   H1491     1.0  0.48643  0.82095  0.65054  1.0000
  C   C842      1.0  0.48754  0.81634  0.63353  1.0000
  Fe  Fe96      1.0  0.24977  0.61302  0.68426  1.0000
  C   C843      1.0  0.24974  0.51744  0.69614  1.0000
  H   H1492     1.0  0.39211  0.99326  0.71967  1.0000
  H   H1493     1.0  0.48934  0.69648  0.68041  1.0000
  H   H1494     1.0  0.25097  0.59117  0.61400  1.0000
  H   H1495     1.0  0.24793  0.53456  0.76088  1.0000
  H   H1496     1.0  0.24864  0.69824  0.97562  1.0000
  S   S193      1.0  0.24688  0.63132  0.64945  1.0000
  Fe  Fe97      1.0  0.71996  0.07972  0.25893  1.0000
  S   S194      1.0  0.69016  0.09358  0.24124  1.0000
  S   S195      1.0  0.72560  0.05359  0.28903  1.0000
  Fe  Fe98      1.0  0.56398  0.22240  0.27753  1.0000
  S   S196      1.0  0.58676  0.24664  0.25844  1.0000
  Fe  Fe99      1.0  0.60180  0.18411  0.28197  1.0000
  S   S197      1.0  0.62786  0.20424  0.26310  1.0000
  S   S198      1.0  0.61033  0.14851  0.29798  1.0000
  Fe  Fe100     1.0  0.61052  0.23124  0.28308  1.0000
  S   S199      1.0  0.63480  0.25033  0.29319  1.0000
  Fe  Fe101     1.0  0.60282  0.21822  0.23954  1.0000
  S   S200      1.0  0.61049  0.22549  0.20171  1.0000
  S   S201      1.0  0.58628  0.20990  0.30417  1.0000
  S   S202      1.0  0.57822  0.19519  0.25664  1.0000
  H   H1497     1.0  0.72582  0.26219  0.21326  1.0000
  H   H1498     1.0  0.55221  0.07649  0.27506  1.0000
  H   H1499     1.0  0.74236  0.30374  0.22281  1.0000
  Fe  Fe102     1.0  0.70579  0.22554  0.38880  1.0000
  H   H1500     1.0  0.52149  0.11387  0.29846  1.0000
  S   S203      1.0  0.66864  0.23227  0.38734  1.0000
  H   H1501     1.0  0.69226  0.27456  0.29629  1.0000
  H   H1502     1.0  0.53131  0.28606  0.22607  1.0000
  S   S204      1.0  0.74376  0.08673  0.33243  1.0000
  H   H1503     1.0  0.68610  0.44812  0.22352  1.0000
  S   S205      1.0  0.72237  0.18990  0.39554  1.0000
  S   S206      1.0  0.72163  0.23739  0.41444  1.0000
  H   H1504     1.0  0.69382  0.26281  0.19893  1.0000
  H   H1505     1.0  0.64601  0.34005  0.24658  1.0000
  Fe  Fe103     1.0  0.74567  0.07786  0.29766  1.0000
  C   C844      1.0  0.67449  0.16691  0.37967  1.0000
  C   C845      1.0  0.74426  0.12224  0.35431  1.0000
  C   C846      1.0  0.53936  0.17158  0.31403  1.0000
  C   C847      1.0  0.74033  0.11270  0.19054  1.0000
  H   H1506     1.0  0.59462  0.18165  0.36403  1.0000
  H   H1507     1.0  0.52417  0.26062  0.24319  1.0000
  H   H1508     1.0  0.72915  0.26582  0.27476  1.0000
  S   S207      1.0  0.72545  0.27585  0.05002  1.0000
  Fe  Fe104     1.0  0.72879  0.24593  0.13386  1.0000
  S   S208      1.0  0.71303  0.22935  0.16717  1.0000
  C   C848      1.0  0.51395  0.21360  0.25406  1.0000
  S   S209      1.0  0.72270  0.28033  0.11377  1.0000
  C   C849      1.0  0.72794  0.27037  0.29176  1.0000
  C   C850      1.0  0.53587  0.08560  0.28176  1.0000
  H   H1509     1.0  0.62850  0.18632  0.33585  1.0000
  H   H1510     1.0  0.72263  0.28854  0.19568  1.0000
  C   C851      1.0  0.53873  0.10595  0.29252  1.0000
  C   C852      1.0  0.72202  0.21411  0.47913  1.0000
  C   C853      1.0  0.68362  0.40600  0.15891  1.0000
  H   H1511     1.0  0.71929  0.27547  0.48530  1.0000
  H   H1512     1.0  0.68567  0.29008  0.46816  1.0000
  H   H1513     1.0  0.59277  0.17132  0.33864  1.0000
  C   C854      1.0  0.67820  0.25922  0.24433  1.0000
  H   H1514     1.0  0.67574  0.33201  0.29031  1.0000
  H   H1515     1.0  0.56479  0.15210  0.23814  1.0000
  H   H1516     1.0  0.53345  0.06225  0.31302  1.0000
  C   C855      1.0  0.68573  0.28984  0.16266  1.0000
  C   C856      1.0  0.67503  0.39031  0.14646  1.0000
  C   C857      1.0  0.72766  0.27329  0.00533  1.0000
  C   C858      1.0  0.74023  0.19696  0.47761  1.0000
  H   H1517     1.0  0.61788  0.28791  0.33381  1.0000
  C   C859      1.0  0.70886  0.39874  0.16058  1.0000
  C   C860      1.0  0.68442  0.22792  0.17515  1.0000
  C   C861      1.0  0.66851  0.23578  0.16067  1.0000
  C   C862      1.0  0.64568  0.23491  0.16874  1.0000
  C   C863      1.0  0.63894  0.22605  0.19115  1.0000
  C   C864      1.0  0.65508  0.21766  0.20514  1.0000
  C   C865      1.0  0.67761  0.21864  0.19723  1.0000
  H   H1518     1.0  0.67372  0.24271  0.14345  1.0000
  H   H1519     1.0  0.63324  0.24123  0.15771  1.0000
  H   H1520     1.0  0.65032  0.20998  0.22196  1.0000
  H   H1521     1.0  0.68988  0.21191  0.20825  1.0000
  C   C866      1.0  0.64426  0.24095  0.31927  1.0000
  C   C867      1.0  0.62919  0.23822  0.33909  1.0000
  C   C868      1.0  0.63689  0.23499  0.35997  1.0000
  C   C869      1.0  0.65970  0.23402  0.36111  1.0000
  C   C870      1.0  0.67488  0.23537  0.34128  1.0000
  C   C871      1.0  0.66712  0.23910  0.32045  1.0000
  H   H1522     1.0  0.61146  0.23984  0.33834  1.0000
  H   H1523     1.0  0.62505  0.23385  0.37527  1.0000
  H   H1524     1.0  0.69250  0.23414  0.34191  1.0000
  H   H1525     1.0  0.67884  0.24103  0.30522  1.0000
  H   H1526     1.0  0.74294  0.38932  0.18611  1.0000
  H   H1527     1.0  0.68110  0.30803  0.39982  1.0000
  C   C872      1.0  0.70209  0.43741  0.22685  1.0000
  H   H1528     1.0  0.63903  0.33053  0.27603  1.0000
  C   C873      1.0  0.61045  0.08582  0.27094  1.0000
  H   H1529     1.0  0.64838  0.12358  0.34526  1.0000
  H   H1530     1.0  0.67783  0.37275  0.15507  1.0000
  C   C874      1.0  0.69787  0.23975  0.24277  1.0000
  H   H1531     1.0  0.58442  0.12546  0.25828  1.0000
  C   C875      1.0  0.66840  0.10914  0.25719  1.0000
  C   C876      1.0  0.65576  0.12805  0.24660  1.0000
  C   C877      1.0  0.63833  0.14067  0.25917  1.0000
  C   C878      1.0  0.63299  0.13389  0.28221  1.0000
  C   C879      1.0  0.64540  0.11483  0.29272  1.0000
  C   C880      1.0  0.66342  0.10273  0.28033  1.0000
  H   H1532     1.0  0.65959  0.13305  0.22871  1.0000
  H   H1533     1.0  0.62868  0.15529  0.25093  1.0000
  H   H1534     1.0  0.64097  0.10936  0.31044  1.0000
  H   H1535     1.0  0.67305  0.08805  0.28849  1.0000
  C   C881      1.0  0.73994  0.44979  0.15026  1.0000
  H   H1536     1.0  0.62212  0.30313  0.30583  1.0000
  S   S210      1.0  0.73746  0.36094  0.31710  1.0000
  C   C882      1.0  0.72649  0.26123  0.02712  1.0000
  C   C883      1.0  0.72602  0.23813  0.03002  1.0000
  H   H1537     1.0  0.72366  0.29997  0.46509  1.0000
  N   N47       1.0  0.72032  0.41498  0.16904  1.0000
  H   H1538     1.0  0.54919  0.16348  0.32768  1.0000
  C   C884      1.0  0.69157  0.21831  0.25747  1.0000
  H   H1539     1.0  0.71246  0.24413  0.24874  1.0000
  H   H1540     1.0  0.68498  0.37019  0.27701  1.0000
  H   H1541     1.0  0.58023  0.08334  0.29381  1.0000
  H   H1542     1.0  0.73737  0.18812  0.20062  1.0000
  H   H1543     1.0  0.70397  0.29970  0.28542  1.0000
  H   H1544     1.0  0.69937  0.33273  0.33049  1.0000
  C   C885      1.0  0.70193  0.28916  0.22874  1.0000
  H   H1545     1.0  0.62416  0.32262  0.25630  1.0000
  H   H1546     1.0  0.66592  0.13969  0.40714  1.0000
  C   C886      1.0  0.55504  0.14009  0.29113  1.0000
  H   H1547     1.0  0.69320  0.15762  0.42032  1.0000
  H   H1548     1.0  0.56604  0.15190  0.28092  1.0000
  S   S211      1.0  0.73151  0.23605  0.36002  1.0000
  C   C887      1.0  0.72342  0.33516  0.17537  1.0000
  S   S212      1.0  0.73363  0.38940  0.25604  1.0000
  H   H1549     1.0  0.66148  0.31324  0.22143  1.0000
  H   H1550     1.0  0.54643  0.09968  0.30807  1.0000
  H   H1551     1.0  0.70942  0.29396  0.40067  1.0000
  H   H1552     1.0  0.70094  0.28840  0.44049  1.0000
  H   H1553     1.0  0.53037  0.21578  0.24500  1.0000
  H   H1554     1.0  0.72446  0.22879  0.04674  1.0000
  H   H1555     1.0  0.69726  0.26308  0.45999  1.0000
  H   H1556     1.0  0.72782  0.29120  0.00293  1.0000
  H   H1557     1.0  0.66454  0.26673  0.20499  1.0000
  C   C888      1.0  0.67541  0.16549  0.42144  1.0000
  H   H1558     1.0  0.73388  0.42532  0.20899  1.0000
  C   C889      1.0  0.74446  0.28594  0.22025  1.0000
  H   H1559     1.0  0.64607  0.16498  0.40732  1.0000
  H   H1560     1.0  0.73837  0.25073  0.45757  1.0000
  H   H1561     1.0  0.63314  0.15140  0.37814  1.0000
  H   H1562     1.0  0.66587  0.12546  0.37707  1.0000
  H   H1563     1.0  0.52580  0.09115  0.26783  1.0000
  H   H1564     1.0  0.67435  0.18405  0.41901  1.0000
  H   H1565     1.0  0.72173  0.17216  0.16292  1.0000
  H   H1566     1.0  0.67235  0.18556  0.37802  1.0000
  C   C890      1.0  0.64074  0.32578  0.25904  1.0000
  H   H1567     1.0  0.71605  0.15579  0.26399  1.0000
  C   C891      1.0  0.66071  0.29753  0.23355  1.0000
  H   H1568     1.0  0.69628  0.13961  0.25819  1.0000
  C   C892      1.0  0.63906  0.17670  0.99962  1.0000
  H   H1569     1.0  0.63552  0.31447  0.34835  1.0000
  C   C893      1.0  0.57420  0.11235  0.26715  1.0000
  H   H1570     1.0  0.71868  0.45058  0.19526  1.0000
  C   C894      1.0  0.72345  0.28049  0.21326  1.0000
  H   H1571     1.0  0.60666  0.07420  0.26047  1.0000
  N   N48       1.0  0.55155  0.12306  0.27742  1.0000
  C   C895      1.0  0.58890  0.09696  0.28366  1.0000
  H   H1572     1.0  0.52336  0.14312  0.31446  1.0000
  H   H1573     1.0  0.67479  0.27894  0.15859  1.0000
  C   C896      1.0  0.54655  0.15491  0.24393  1.0000
  H   H1574     1.0  0.62141  0.07610  0.28303  1.0000
  H   H1575     1.0  0.70458  0.33389  0.29159  1.0000
  C   C897      1.0  0.53483  0.16159  0.22313  1.0000
  H   H1576     1.0  0.74597  0.18814  0.04927  1.0000
  H   H1577     1.0  0.73000  0.25460  0.30379  1.0000
  H   H1578     1.0  0.52034  0.13875  0.26545  1.0000
  H   H1579     1.0  0.70541  0.33841  0.17889  1.0000
  Fe  Fe105     1.0  0.74050  0.20258  0.41893  1.0000
  C   C898      1.0  0.70011  0.28077  0.45833  1.0000
  Fe  Fe106     1.0  0.73799  0.26300  0.08363  1.0000
  H   H1580     1.0  0.65701  0.16935  0.99877  1.0000
  H   H1581     1.0  0.72045  0.48313  0.14542  1.0000
  S   S213      1.0  0.73702  0.10474  0.26953  1.0000
  C   C899      1.0  0.71457  0.16640  0.18050  1.0000
  C   C900      1.0  0.69680  0.15182  0.17894  1.0000
  H   H1582     1.0  0.67008  0.33970  0.33346  1.0000
  C   C901      1.0  0.67665  0.16616  0.16936  1.0000
  N   N49       1.0  0.68067  0.28019  0.22763  1.0000
  C   C902      1.0  0.65804  0.30473  0.25711  1.0000
  C   C903      1.0  0.53350  0.15403  0.30187  1.0000
  H   H1583     1.0  0.70589  0.18193  0.18694  1.0000
  H   H1584     1.0  0.69048  0.14287  0.19550  1.0000
  H   H1585     1.0  0.70413  0.13938  0.16746  1.0000
  H   H1586     1.0  0.70523  0.31625  0.36370  1.0000
  H   H1587     1.0  0.69066  0.16842  0.22336  1.0000
  H   H1588     1.0  0.53969  0.17767  0.21377  1.0000
  H   H1589     1.0  0.72244  0.11259  0.18990  1.0000
  H   H1590     1.0  0.66779  0.17797  0.18100  1.0000
  H   H1591     1.0  0.68199  0.17590  0.15281  1.0000
  H   H1592     1.0  0.66473  0.15521  0.16719  1.0000
  H   H1593     1.0  0.62889  0.16279  0.00378  1.0000
  H   H1594     1.0  0.69833  0.42123  0.23684  1.0000
  C   C904      1.0  0.51833  0.27882  0.23887  1.0000
  H   H1595     1.0  0.71252  0.21937  0.46530  1.0000
  H   H1596     1.0  0.71987  0.43293  0.13518  1.0000
  S   S214      1.0  0.72287  0.35317  0.21357  1.0000
  H   H1597     1.0  0.64489  0.29151  0.23214  1.0000
  H   H1598     1.0  0.51637  0.16382  0.22793  1.0000
  C   C905      1.0  0.74208  0.26816  0.45457  1.0000
  C   C906      1.0  0.60184  0.16849  0.35331  1.0000
  H   H1599     1.0  0.70303  0.23594  0.22548  1.0000
  H   H1600     1.0  0.69970  0.30779  0.22437  1.0000
  H   H1601     1.0  0.67642  0.26280  0.26178  1.0000
  C   C907      1.0  0.70124  0.15654  0.25550  1.0000
  H   H1602     1.0  0.71306  0.18106  0.22907  1.0000
  H   H1603     1.0  0.57247  0.10255  0.25394  1.0000
  C   C908      1.0  0.67941  0.27513  0.20459  1.0000
  H   H1604     1.0  0.70325  0.28114  0.16144  1.0000
  H   H1605     1.0  0.68778  0.27825  0.39834  1.0000
  H   H1606     1.0  0.60368  0.31608  0.32781  1.0000
  H   H1607     1.0  0.66248  0.25284  0.24315  1.0000
  H   H1608     1.0  0.67404  0.30843  0.26066  1.0000
  H   H1609     1.0  0.70663  0.20537  0.25804  1.0000
  H   H1610     1.0  0.63905  0.33136  0.32118  1.0000
  H   H1611     1.0  0.67875  0.21182  0.25054  1.0000
  H   H1612     1.0  0.63456  0.18730  0.01323  1.0000
  C   C909      1.0  0.66411  0.15823  0.40402  1.0000
  C   C910      1.0  0.72351  0.14754  0.21823  1.0000
  S   S215      1.0  0.52659  0.22982  0.28877  1.0000
  H   H1613     1.0  0.70562  0.28586  0.24628  1.0000
  H   H1614     1.0  0.66384  0.36964  0.30145  1.0000
  H   H1615     1.0  0.65210  0.29137  0.27029  1.0000
  H   H1616     1.0  0.68778  0.30829  0.18875  1.0000
  C   C911      1.0  0.62675  0.16937  0.34540  1.0000
  H   H1617     1.0  0.71339  0.28675  0.36257  1.0000
  C   C912      1.0  0.52372  0.06887  0.29894  1.0000
  H   H1618     1.0  0.66003  0.30413  0.18672  1.0000
  C   C913      1.0  0.63988  0.16503  0.36568  1.0000
  H   H1619     1.0  0.69242  0.37158  0.30391  1.0000
  C   C914      1.0  0.73626  0.34124  0.18962  1.0000
  H   H1620     1.0  0.50682  0.07695  0.30566  1.0000
  H   H1621     1.0  0.52378  0.18154  0.32139  1.0000
  H   H1622     1.0  0.50238  0.20424  0.22608  1.0000
  N   N50       1.0  0.66512  0.15989  0.36101  1.0000
  C   C915      1.0  0.67372  0.17353  0.33925  1.0000
  C   C916      1.0  0.67286  0.13509  0.36111  1.0000
  C   C917      1.0  0.66659  0.12435  0.34236  1.0000
  C   C918      1.0  0.69950  0.17083  0.33270  1.0000
  C   C919      1.0  0.67849  0.10024  0.34255  1.0000
  C   C920      1.0  0.70604  0.18460  0.30996  1.0000
  H   H1623     1.0  0.66753  0.19163  0.33991  1.0000
  H   H1624     1.0  0.66690  0.16970  0.32490  1.0000
  H   H1625     1.0  0.69283  0.16115  0.37847  1.0000
  H   H1626     1.0  0.69134  0.13121  0.36075  1.0000
  H   H1627     1.0  0.67134  0.13358  0.32545  1.0000
  H   H1628     1.0  0.70748  0.17677  0.34512  1.0000
  H   H1629     1.0  0.70657  0.15309  0.33137  1.0000
  H   H1630     1.0  0.67337  0.09247  0.32949  1.0000
  H   H1631     1.0  0.69684  0.10003  0.33884  1.0000
  H   H1632     1.0  0.72448  0.18193  0.30527  1.0000
  H   H1633     1.0  0.69840  0.17948  0.29681  1.0000
  H   H1634     1.0  0.70060  0.20271  0.31072  1.0000
  C   C921      1.0  0.73382  0.32527  0.15637  1.0000
  H   H1635     1.0  0.56428  0.13174  0.30518  1.0000
  H   H1636     1.0  0.59364  0.10677  0.29529  1.0000
  H   H1637     1.0  0.61976  0.09860  0.25996  1.0000
  H   H1638     1.0  0.59924  0.15175  0.36280  1.0000
  H   H1639     1.0  0.68711  0.16798  0.26328  1.0000
  C   C922      1.0  0.73513  0.47304  0.13670  1.0000
  H   H1640     1.0  0.67430  0.08999  0.35909  1.0000
  C   C923      1.0  0.53828  0.13388  0.25875  1.0000
  H   H1641     1.0  0.66689  0.16004  0.43855  1.0000
  H   H1642     1.0  0.63282  0.15715  0.33360  1.0000
  H   H1643     1.0  0.63477  0.18066  0.37354  1.0000
  H   H1644     1.0  0.68511  0.30531  0.15016  1.0000
  H   H1645     1.0  0.70424  0.44795  0.15629  1.0000
  C   C924      1.0  0.67772  0.29591  0.18613  1.0000
  N   N51       1.0  0.68187  0.30471  0.33098  1.0000
  C   C925      1.0  0.66159  0.29928  0.32324  1.0000
  C   C926      1.0  0.70269  0.28973  0.32224  1.0000
  C   C927      1.0  0.67864  0.29951  0.35634  1.0000
  C   C928      1.0  0.68436  0.32918  0.32458  1.0000
  C   C929      1.0  0.68694  0.33845  0.29924  1.0000
  C   C930      1.0  0.63900  0.31395  0.33007  1.0000
  C   C931      1.0  0.69937  0.29970  0.36778  1.0000
  C   C932      1.0  0.70526  0.28444  0.29793  1.0000
  H   H1646     1.0  0.67366  0.40520  0.17591  1.0000
  C   C933      1.0  0.68169  0.36402  0.29526  1.0000
  C   C934      1.0  0.61955  0.30470  0.32394  1.0000
  C   C935      1.0  0.69395  0.29468  0.39324  1.0000
  H   H1647     1.0  0.65960  0.28151  0.32964  1.0000
  H   H1648     1.0  0.66357  0.30056  0.30479  1.0000
  H   H1649     1.0  0.71781  0.29678  0.32370  1.0000
  H   H1650     1.0  0.70378  0.27298  0.33289  1.0000
  H   H1651     1.0  0.67332  0.28262  0.36194  1.0000
  H   H1652     1.0  0.66504  0.31164  0.36391  1.0000
  H   H1653     1.0  0.71448  0.13304  0.21964  1.0000
  H   H1654     1.0  0.72612  0.00408  0.26635  1.0000
  H   H1655     1.0  0.54278  0.16931  0.25345  1.0000
  H   H1656     1.0  0.54923  0.18323  0.30210  1.0000
  H   H1657     1.0  0.71048  0.38221  0.17155  1.0000
  H   H1658     1.0  0.69023  0.42820  0.18973  1.0000
  H   H1659     1.0  0.51653  0.28697  0.25411  1.0000
  C   C936      1.0  0.72008  0.43639  0.15244  1.0000
  C   C937      1.0  0.70738  0.41938  0.19159  1.0000
  H   H1660     1.0  0.70531  0.40313  0.20266  1.0000
  C   C938      1.0  0.71729  0.43372  0.20483  1.0000
  C   C939      1.0  0.72695  0.22724  0.01125  1.0000
  H   H1661     1.0  0.68042  0.42333  0.14991  1.0000
  H   H1662     1.0  0.74036  0.35360  0.36355  1.0000
  H   H1663     1.0  0.71056  0.44596  0.23693  1.0000
  H   H1664     1.0  0.52173  0.05456  0.29082  1.0000
  H   H1665     1.0  0.65681  0.39541  0.14608  1.0000
  H   H1666     1.0  0.73185  0.47167  0.11971  1.0000
  C   C940      1.0  0.70661  0.16503  0.23050  1.0000
  H   H1667     1.0  0.68476  0.22139  0.27482  1.0000
  N   N52       1.0  0.73281  0.15546  0.19417  1.0000
  H   H1668     1.0  0.72385  0.32056  0.14544  1.0000
  H   H1669     1.0  0.72639  0.20941  0.01365  1.0000
  H   H1670     1.0  0.74242  0.27333  0.43616  1.0000
  C   C941      1.0  0.72166  0.28205  0.46712  1.0000
  H   H1671     1.0  0.53982  0.14858  0.21187  1.0000
  H   H1672     1.0  0.53819  0.12160  0.24730  1.0000
  H   H1673     1.0  0.68369  0.39108  0.12890  1.0000
  H   H1674     1.0  0.52295  0.16298  0.28914  1.0000
  S   S216      1.0  0.74080  0.22837  0.10372  1.0000
  H   H1675     1.0  0.74176  0.27997  0.29181  1.0000
  H   H1676     1.0  0.73785  0.11175  0.36930  1.0000
  H   H1677     1.0  0.71716  0.39545  0.14357  1.0000
  C   C942      1.0  0.50816  0.21844  0.27602  1.0000
  H   H1678     1.0  0.73754  0.14120  0.22818  1.0000
  H   H1679     1.0  0.74510  0.14997  0.37166  1.0000
  H   H1680     1.0  0.74340  0.10652  0.20803  1.0000
  C   C943      1.0  0.74366  0.40351  0.17209  1.0000
  C   C944      1.0  0.49805  0.20708  0.24336  1.0000
  H   H1681     1.0  0.49933  0.27416  0.21437  1.0000
  H   H1682     1.0  0.74385  0.45204  0.16664  1.0000
  Fe  Fe107     1.0  0.74639  0.36312  0.23364  1.0000
  C   C945      1.0  0.74585  0.33768  0.35741  1.0000
  Fe  Fe108     1.0  0.70491  0.26855  0.89485  1.0000
  C   C946      1.0  0.71462  0.20642  0.73276  1.0000
  S   S217      1.0  0.67004  0.28255  0.88780  1.0000
  Fe  Fe109     1.0  0.73257  0.24361  0.93058  1.0000
  H   H1683     1.0  0.70362  0.18472  0.91372  1.0000
  H   H1684     1.0  0.61302  0.15336  0.71285  1.0000
  H   H1685     1.0  0.70236  0.27394  0.73680  1.0000
  H   H1686     1.0  0.61706  0.08695  0.75963  1.0000
  H   H1687     1.0  0.74141  0.29249  0.77623  1.0000
  H   H1688     1.0  0.70671  0.18862  0.76564  1.0000
  S   S218      1.0  0.71757  0.27958  0.92290  1.0000
  S   S219      1.0  0.71758  0.23211  0.90400  1.0000
  Fe  Fe110     1.0  0.62126  0.24354  0.74818  1.0000
  S   S220      1.0  0.60605  0.27912  0.73851  1.0000
  S   S221      1.0  0.63556  0.21928  0.72372  1.0000
  Fe  Fe111     1.0  0.61773  0.24896  0.79731  1.0000
  S   S222      1.0  0.60225  0.28515  0.79158  1.0000
  S   S223      1.0  0.62898  0.22890  0.82903  1.0000
  Fe  Fe112     1.0  0.58144  0.27304  0.76997  1.0000
  Fe  Fe113     1.0  0.62810  0.28779  0.76068  1.0000
  S   S224      1.0  0.65372  0.31134  0.74738  1.0000
  S   S225      1.0  0.59526  0.23660  0.77809  1.0000
  S   S226      1.0  0.64479  0.25240  0.76801  1.0000
  H   H1689     1.0  0.72502  0.15801  0.86794  1.0000
  H   H1690     1.0  0.69501  0.29095  0.69659  1.0000
  Fe  Fe114     1.0  0.72252  0.44385  0.76879  1.0000
  C   C947      1.0  0.71612  0.22461  0.49851  1.0000
  S   S227      1.0  0.71042  0.41829  0.75278  1.0000
  Fe  Fe115     1.0  0.69549  0.40482  0.78746  1.0000
  S   S228      1.0  0.66282  0.39105  0.79791  1.0000
  H   H1691     1.0  0.61797  0.07189  0.73652  1.0000
  S   S229      1.0  0.70450  0.43225  0.80281  1.0000
  H   H1692     1.0  0.63266  0.18578  0.69572  1.0000
  H   H1693     1.0  0.58646  0.24445  0.64854  1.0000
  H   H1694     1.0  0.53487  0.30474  0.71632  1.0000
  H   H1695     1.0  0.59385  0.22247  0.68282  1.0000
  H   H1696     1.0  0.72361  0.33142  0.93258  1.0000
  C   C948      1.0  0.64775  0.21067  0.97117  1.0000
  C   C949      1.0  0.51285  0.23596  0.75937  1.0000
  C   C950      1.0  0.67030  0.13605  0.70821  1.0000
  Fe  Fe116     1.0  0.72258  0.24086  0.61951  1.0000
  S   S230      1.0  0.69777  0.26335  0.64056  1.0000
  H   H1697     1.0  0.73741  0.30266  0.71039  1.0000
  S   S231      1.0  0.71683  0.21156  0.60465  1.0000
  C   C951      1.0  0.73393  0.14544  0.70262  1.0000
  C   C952      1.0  0.72858  0.23927  0.98943  1.0000
  S   S232      1.0  0.73892  0.25773  0.58691  1.0000
  C   C953      1.0  0.70415  0.07734  0.74210  1.0000
  H   H1698     1.0  0.72239  0.28421  0.66379  1.0000
  C   C954      1.0  0.63019  0.14977  0.70346  1.0000
  C   C955      1.0  0.55931  0.26306  0.70901  1.0000
  H   H1699     1.0  0.67028  0.17801  0.94158  1.0000
  C   C956      1.0  0.72900  0.26236  0.98657  1.0000
  C   C957      1.0  0.68729  0.18459  0.90821  1.0000
  C   C958      1.0  0.56048  0.22245  0.71294  1.0000
  H   H1700     1.0  0.70099  0.10452  0.66755  1.0000
  H   H1701     1.0  0.59915  0.24493  0.69513  1.0000
  C   C959      1.0  0.72828  0.21808  0.51665  1.0000
  H   H1702     1.0  0.72084  0.19068  0.72554  1.0000
  H   H1703     1.0  0.67674  0.15158  0.69921  1.0000
  H   H1704     1.0  0.66861  0.28665  0.94656  1.0000
  C   C960      1.0  0.68151  0.25038  0.66404  1.0000
  C   C961      1.0  0.68206  0.22711  0.66828  1.0000
  C   C962      1.0  0.66822  0.21743  0.68687  1.0000
  C   C963      1.0  0.65405  0.23100  0.70135  1.0000
  C   C964      1.0  0.65415  0.25411  0.69745  1.0000
  C   C965      1.0  0.66754  0.26379  0.67870  1.0000
  H   H1705     1.0  0.69290  0.21666  0.65707  1.0000
  H   H1706     1.0  0.66868  0.19949  0.68999  1.0000
  H   H1707     1.0  0.64356  0.26471  0.70856  1.0000
  H   H1708     1.0  0.66671  0.28175  0.67547  1.0000
  C   C966      1.0  0.65623  0.33277  0.76241  1.0000
  C   C967      1.0  0.63987  0.33911  0.78000  1.0000
  C   C968      1.0  0.64201  0.35698  0.79089  1.0000
  C   C969      1.0  0.66064  0.36836  0.78444  1.0000
  C   C970      1.0  0.67730  0.36155  0.76728  1.0000
  C   C971      1.0  0.67500  0.34392  0.75624  1.0000
  H   H1709     1.0  0.62536  0.33058  0.78491  1.0000
  H   H1710     1.0  0.62913  0.36210  0.80421  1.0000
  H   H1711     1.0  0.69177  0.37012  0.76225  1.0000
  H   H1712     1.0  0.68775  0.33904  0.74277  1.0000
  C   C972      1.0  0.66795  0.19067  0.92654  1.0000
  H   H1713     1.0  0.66518  0.20452  0.97476  1.0000
  H   H1714     1.0  0.72432  0.18327  0.65613  1.0000
  H   H1715     1.0  0.71809  0.38279  0.67903  1.0000
  H   H1716     1.0  0.61621  0.19672  0.97862  1.0000
  H   H1717     1.0  0.64825  0.42477  0.86434  1.0000
  C   C973      1.0  0.68537  0.48957  0.81883  1.0000
  C   C974      1.0  0.72447  0.29181  0.71119  1.0000
  H   H1718     1.0  0.61213  0.23207  0.95060  1.0000
  H   H1719     1.0  0.63737  0.10017  0.71052  1.0000
  C   C975      1.0  0.74245  0.36210  0.85315  1.0000
  C   C976      1.0  0.65891  0.26780  0.87115  1.0000
  C   C977      1.0  0.66846  0.24592  0.86811  1.0000
  C   C978      1.0  0.65857  0.23380  0.85598  1.0000
  C   C979      1.0  0.63999  0.24399  0.84552  1.0000
  C   C980      1.0  0.63062  0.26604  0.84825  1.0000
  C   C981      1.0  0.63983  0.27779  0.86140  1.0000
  H   H1720     1.0  0.68318  0.23812  0.87548  1.0000
  H   H1721     1.0  0.66553  0.21660  0.85451  1.0000
  H   H1722     1.0  0.61617  0.27396  0.84037  1.0000
  H   H1723     1.0  0.63236  0.29474  0.86368  1.0000
  H   H1724     1.0  0.62467  0.26252  0.66326  1.0000
  H   H1725     1.0  0.62123  0.26019  0.63517  1.0000
  H   H1726     1.0  0.74248  0.36842  0.69146  1.0000
  H   H1727     1.0  0.59458  0.20685  0.71843  1.0000
  S   S233      1.0  0.71634  0.48135  0.75565  1.0000
  H   H1728     1.0  0.70080  0.13381  0.66843  1.0000
  H   H1729     1.0  0.74225  0.32474  0.63460  1.0000
  H   H1730     1.0  0.74516  0.47867  0.87818  1.0000
  C   C982      1.0  0.71474  0.34922  0.69695  1.0000
  H   H1731     1.0  0.65211  0.25772  0.93203  1.0000
  N   N53       1.0  0.71297  0.22390  0.79199  1.0000
  C   C983      1.0  0.71373  0.20104  0.80599  1.0000
  H   H1732     1.0  0.51619  0.21790  0.76047  1.0000
  C   C984      1.0  0.69486  0.23965  0.80400  1.0000
  C   C985      1.0  0.70781  0.22386  0.76868  1.0000
  C   C986      1.0  0.71660  0.20221  0.75776  1.0000
  C   C987      1.0  0.69122  0.19144  0.81088  1.0000
  C   C988      1.0  0.69169  0.26457  0.79283  1.0000
  Fe  Fe117     1.0  0.73629  0.40911  0.80733  1.0000
  C   C989      1.0  0.52461  0.27095  0.76319  1.0000
  C   C990      1.0  0.73233  0.16905  0.66647  1.0000
  C   C991      1.0  0.69450  0.16607  0.81773  1.0000
  C   C992      1.0  0.67160  0.27834  0.80494  1.0000
  H   H1733     1.0  0.71876  0.20153  0.82256  1.0000
  H   H1734     1.0  0.72699  0.18870  0.79829  1.0000
  H   H1735     1.0  0.60158  0.24441  0.89052  1.0000
  H   H1736     1.0  0.73406  0.24995  0.78302  1.0000
  H   H1737     1.0  0.69795  0.23929  0.82152  1.0000
  H   H1738     1.0  0.67826  0.23408  0.80546  1.0000
  H   H1739     1.0  0.68942  0.22682  0.76850  1.0000
  H   H1740     1.0  0.71416  0.23818  0.75711  1.0000
  S   S234      1.0  0.73468  0.27568  0.86946  1.0000
  H   H1741     1.0  0.68653  0.24651  0.94833  1.0000
  H   H1742     1.0  0.68024  0.19884  0.82490  1.0000
  H   H1743     1.0  0.68198  0.19561  0.79632  1.0000
  H   H1744     1.0  0.68895  0.26589  0.77521  1.0000
  H   H1745     1.0  0.70623  0.27280  0.79338  1.0000
  C   C993      1.0  0.64641  0.16022  0.73322  1.0000
  C   C994      1.0  0.63954  0.12148  0.73600  1.0000
  H   H1746     1.0  0.65460  0.17400  0.72254  1.0000
  H   H1747     1.0  0.62887  0.16781  0.73877  1.0000
  C   C995      1.0  0.73581  0.30848  0.63712  1.0000
  C   C996      1.0  0.72490  0.47996  0.82858  1.0000
  H   H1748     1.0  0.64959  0.14201  0.76733  1.0000
  H   H1749     1.0  0.70138  0.16166  0.83381  1.0000
  H   H1750     1.0  0.67815  0.15988  0.82023  1.0000
  H   H1751     1.0  0.70597  0.15756  0.80460  1.0000
  H   H1752     1.0  0.66957  0.29579  0.79610  1.0000
  H   H1753     1.0  0.65602  0.27144  0.80502  1.0000
  H   H1754     1.0  0.67414  0.27867  0.82241  1.0000
  C   C997      1.0  0.72391  0.37139  0.69375  1.0000
  H   H1755     1.0  0.58219  0.22712  0.73672  1.0000
  C   C998      1.0  0.69242  0.32348  0.66285  1.0000
  H   H1756     1.0  0.57926  0.28756  0.68852  1.0000
  H   H1757     1.0  0.72634  0.31970  0.76718  1.0000
  H   H1758     1.0  0.58569  0.18852  0.75679  1.0000
  H   H1759     1.0  0.65228  0.18934  0.92047  1.0000
  H   H1760     1.0  0.68693  0.16750  0.90457  1.0000
  C   C999      1.0  0.67106  0.33645  0.67491  1.0000
  C   C1000     1.0  0.65165  0.33954  0.66140  1.0000
  C   C1001     1.0  0.74232  0.01924  0.77766  1.0000
  H   H1761     1.0  0.69571  0.31274  0.83375  1.0000
  C   C1002     1.0  0.65038  0.24765  0.94901  1.0000
  H   H1762     1.0  0.69382  0.31508  0.70907  1.0000
  H   H1763     1.0  0.55670  0.20051  0.75768  1.0000
  Fe  Fe118     1.0  0.74647  0.12035  0.75359  1.0000
  H   H1764     1.0  0.68755  0.30843  0.65806  1.0000
  H   H1765     1.0  0.71061  0.11290  0.69067  1.0000
  H   H1766     1.0  0.62923  0.13671  0.69329  1.0000
  C   C1003     1.0  0.57878  0.21368  0.72832  1.0000
  H   H1767     1.0  0.58481  0.27060  0.65851  1.0000
  H   H1768     1.0  0.55405  0.32167  0.69842  1.0000
  H   H1769     1.0  0.73777  0.06377  0.74707  1.0000
  C   C1004     1.0  0.73489  0.23233  0.79120  1.0000
  H   H1770     1.0  0.65436  0.28034  0.97488  1.0000
  N   N54       1.0  0.56391  0.24332  0.69624  1.0000
  H   H1771     1.0  0.71376  0.00339  0.77633  1.0000
  H   H1772     1.0  0.66535  0.32752  0.69171  1.0000
  H   H1773     1.0  0.67402  0.35343  0.67644  1.0000
  H   H1774     1.0  0.63665  0.34917  0.67017  1.0000
  H   H1775     1.0  0.65598  0.34892  0.64441  1.0000
  H   H1776     1.0  0.64740  0.32301  0.65979  1.0000
  H   H1777     1.0  0.63861  0.17913  0.96431  1.0000
  H   H1778     1.0  0.57084  0.26091  0.72162  1.0000
  C   C1005     1.0  0.67074  0.25094  0.95953  1.0000
  H   H1779     1.0  0.54243  0.26389  0.71914  1.0000
  C   C1006     1.0  0.60216  0.23547  0.90788  1.0000
  H   H1780     1.0  0.65168  0.16894  0.67706  1.0000
  C   C1007     1.0  0.71982  0.45893  0.87636  1.0000
  H   H1781     1.0  0.64017  0.22183  0.98397  1.0000
  C   C1008     1.0  0.63446  0.19050  0.97713  1.0000
  C   C1009     1.0  0.56139  0.28634  0.69493  1.0000
  C   C1010     1.0  0.69815  0.11747  0.67884  1.0000
  H   H1782     1.0  0.56893  0.18043  0.73879  1.0000
  H   H1783     1.0  0.62703  0.23517  0.65489  1.0000
  H   H1784     1.0  0.68081  0.47300  0.82698  1.0000
  C   C1011     1.0  0.66935  0.27538  0.96280  1.0000
  C   C1012     1.0  0.58787  0.24041  0.68461  1.0000
  C   C1013     1.0  0.59282  0.25291  0.66038  1.0000
  H   H1785     1.0  0.68588  0.19653  0.89248  1.0000
  C   C1014     1.0  0.72355  0.16382  0.68915  1.0000
  H   H1786     1.0  0.72649  0.35667  0.91307  1.0000
  H   H1787     1.0  0.56274  0.30374  0.72284  1.0000
  C   C1015     1.0  0.67439  0.11879  0.69165  1.0000
  C   C1016     1.0  0.63463  0.17115  0.68673  1.0000
  H   H1788     1.0  0.73242  0.03492  0.78143  1.0000
  H   H1789     1.0  0.67181  0.24053  0.97614  1.0000
  N   N55       1.0  0.64668  0.14149  0.71986  1.0000
  H   H1790     1.0  0.68443  0.27744  0.96964  1.0000
  C   C1017     1.0  0.52880  0.24760  0.76456  1.0000
  C   C1018     1.0  0.65827  0.15392  0.75443  1.0000
  H   H1791     1.0  0.69665  0.34081  0.81832  1.0000
  C   C1019     1.0  0.61795  0.17685  0.66993  1.0000
  H   H1792     1.0  0.73423  0.19552  0.75954  1.0000
  H   H1793     1.0  0.69631  0.35292  0.70015  1.0000
  S   S235      1.0  0.72180  0.23399  0.53921  1.0000
  H   H1794     1.0  0.68485  0.39970  0.86685  1.0000
  S   S236      1.0  0.72196  0.13833  0.73060  1.0000
  H   H1795     1.0  0.55167  0.28954  0.68073  1.0000
  H   H1796     1.0  0.66844  0.42902  0.83963  1.0000
  C   C1020     1.0  0.73179  0.00128  0.77501  1.0000
  C   C1021     1.0  0.55270  0.30519  0.70905  1.0000
  C   C1022     1.0  0.65783  0.41695  0.84983  1.0000
  H   H1797     1.0  0.69811  0.07439  0.76039  1.0000
  C   C1023     1.0  0.73181  0.47981  0.86760  1.0000
  C   C1024     1.0  0.62629  0.22423  0.93910  1.0000
  H   H1798     1.0  0.54972  0.26003  0.66633  1.0000
  H   H1799     1.0  0.62682  0.12720  0.75000  1.0000
  C   C1025     1.0  0.62669  0.08321  0.74325  1.0000
  S   S237      1.0  0.73694  0.09804  0.78584  1.0000
  H   H1800     1.0  0.55157  0.23058  0.67064  1.0000
  H   H1801     1.0  0.63780  0.22873  0.90277  1.0000
  H   H1802     1.0  0.69204  0.48870  0.80091  1.0000
  C   C1026     1.0  0.72556  0.06115  0.73665  1.0000
  H   H1803     1.0  0.66817  0.18667  0.75345  1.0000
  H   H1804     1.0  0.73085  0.36504  0.84119  1.0000
  H   H1805     1.0  0.64116  0.18316  0.76979  1.0000
  H   H1806     1.0  0.66643  0.16953  0.78057  1.0000
  H   H1807     1.0  0.71788  0.37975  0.70889  1.0000
  C   C1027     1.0  0.52248  0.24796  0.68958  1.0000
  Fe  Fe119     1.0  0.73575  0.22718  0.57244  1.0000
  H   H1808     1.0  0.69687  0.33438  0.64673  1.0000
  C   C1028     1.0  0.71561  0.28454  0.73572  1.0000
  H   H1809     1.0  0.63493  0.25584  0.95865  1.0000
  H   H1810     1.0  0.60054  0.17968  0.67877  1.0000
  H   H1811     1.0  0.61966  0.16312  0.65971  1.0000
  H   H1812     1.0  0.62135  0.19241  0.65842  1.0000
  H   H1813     1.0  0.67273  0.10185  0.70103  1.0000
  H   H1814     1.0  0.73029  0.27185  0.96991  1.0000
  H   H1815     1.0  0.67018  0.22606  0.91615  1.0000
  H   H1816     1.0  0.54435  0.22526  0.72420  1.0000
  H   H1817     1.0  0.54430  0.23857  0.76967  1.0000
  C   C1029     1.0  0.57201  0.19460  0.74646  1.0000
  C   C1030     1.0  0.54773  0.24547  0.67964  1.0000
  C   C1031     1.0  0.65846  0.17465  0.76516  1.0000
  H   H1818     1.0  0.64598  0.41373  0.83929  1.0000
  H   H1819     1.0  0.67584  0.14615  0.75036  1.0000
  H   H1820     1.0  0.72036  0.33903  0.71237  1.0000
  H   H1821     1.0  0.73840  0.23210  0.80859  1.0000
  H   H1822     1.0  0.60002  0.21778  0.90805  1.0000
  C   C1032     1.0  0.62833  0.10479  0.72668  1.0000
  H   H1823     1.0  0.70873  0.17408  0.69623  1.0000
  S   S238      1.0  0.72998  0.22493  0.96623  1.0000
  H   H1824     1.0  0.72484  0.21940  0.72373  1.0000
  H   H1825     1.0  0.65402  0.11193  0.74405  1.0000
  H   H1826     1.0  0.74165  0.33154  0.67676  1.0000
  H   H1827     1.0  0.64365  0.07434  0.74589  1.0000
  C   C1033     1.0  0.61797  0.25260  0.65304  1.0000
  C   C1034     1.0  0.72900  0.30034  0.66242  1.0000
  H   H1828     1.0  0.51855  0.23325  0.70209  1.0000
  H   H1829     1.0  0.66276  0.12316  0.67904  1.0000
  H   H1830     1.0  0.55926  0.20831  0.70410  1.0000
  H   H1831     1.0  0.69087  0.07475  0.73294  1.0000
  H   H1832     1.0  0.72942  0.27483  0.74449  1.0000
  H   H1833     1.0  0.73259  0.27642  0.70397  1.0000
  H   H1834     1.0  0.61104  0.11250  0.72393  1.0000
  H   H1835     1.0  0.62616  0.25461  0.91347  1.0000
  H   H1836     1.0  0.68173  0.12920  0.72076  1.0000
  S   S239      1.0  0.54445  0.28641  0.76887  1.0000
  N   N56       1.0  0.67008  0.35618  0.88226  1.0000
  C   C1035     1.0  0.65791  0.37855  0.87300  1.0000
  C   C1036     1.0  0.65372  0.34256  0.89773  1.0000
  C   C1037     1.0  0.68671  0.36066  0.89603  1.0000
  C   C1038     1.0  0.68300  0.34340  0.86397  1.0000
  C   C1039     1.0  0.66969  0.33839  0.84656  1.0000
  C   C1040     1.0  0.67250  0.39515  0.85777  1.0000
  C   C1041     1.0  0.69880  0.33978  0.90990  1.0000
  C   C1042     1.0  0.62991  0.34453  0.89134  1.0000
  C   C1043     1.0  0.61707  0.32652  0.90568  1.0000
  C   C1044     1.0  0.68549  0.32861  0.82733  1.0000
  C   C1045     1.0  0.66801  0.21437  0.93216  1.0000
  C   C1046     1.0  0.71419  0.34666  0.92390  1.0000
  H   H1837     1.0  0.64843  0.38717  0.88714  1.0000
  H   H1838     1.0  0.64510  0.37646  0.86303  1.0000
  H   H1839     1.0  0.66103  0.32458  0.89998  1.0000
  H   H1840     1.0  0.65078  0.34746  0.91485  1.0000
  H   H1841     1.0  0.67833  0.37251  0.90792  1.0000
  H   H1842     1.0  0.70029  0.36894  0.88508  1.0000
  H   H1843     1.0  0.69683  0.35234  0.85468  1.0000
  H   H1844     1.0  0.69126  0.32678  0.87131  1.0000
  H   H1845     1.0  0.65942  0.35363  0.83910  1.0000
  H   H1846     1.0  0.65884  0.32560  0.85444  1.0000
  H   H1847     1.0  0.68155  0.38790  0.84272  1.0000
  H   H1848     1.0  0.70931  0.32838  0.89874  1.0000
  H   H1849     1.0  0.68680  0.33015  0.92166  1.0000
  H   H1850     1.0  0.62022  0.36113  0.89431  1.0000
  H   H1851     1.0  0.63017  0.34304  0.87356  1.0000
  H   H1852     1.0  0.61570  0.32781  0.92378  1.0000
  H   H1853     1.0  0.59996  0.32870  0.90117  1.0000
  H   H1854     1.0  0.62563  0.30954  0.90266  1.0000
  H   H1855     1.0  0.67555  0.32501  0.81517  1.0000
  S   S240      1.0  0.72594  0.38089  0.79491  1.0000
  H   H1856     1.0  0.70835  0.29937  0.74418  1.0000
  Fe  Fe120     1.0  0.74180  0.39557  0.76107  1.0000
  H   H1857     1.0  0.70430  0.35665  0.93674  1.0000
  H   H1858     1.0  0.72134  0.31040  0.62787  1.0000
  C   C1047     1.0  0.62462  0.23662  0.91494  1.0000
  H   H1859     1.0  0.72120  0.06519  0.70169  1.0000
  C   C1048     1.0  0.70517  0.30393  0.69814  1.0000
  H   H1860     1.0  0.68367  0.21333  0.93944  1.0000
  H   H1861     1.0  0.73840  0.32725  0.86379  1.0000
  N   N57       1.0  0.71235  0.31651  0.67533  1.0000
  H   H1862     1.0  0.58815  0.24358  0.91921  1.0000
  C   C1049     1.0  0.72334  0.33654  0.67647  1.0000
  N   N58       1.0  0.64810  0.22370  0.94771  1.0000
  H   H1863     1.0  0.69688  0.21189  0.73014  1.0000
  H   H1864     1.0  0.72208  0.34890  0.66094  1.0000
  H   H1865     1.0  0.62271  0.20709  0.93913  1.0000
  H   H1866     1.0  0.73120  0.44320  0.87349  1.0000
  H   H1867     1.0  0.70498  0.45971  0.86795  1.0000
  H   H1868     1.0  0.51734  0.26328  0.69772  1.0000
  H   H1869     1.0  0.69960  0.47249  0.90531  1.0000
  H   H1870     1.0  0.70740  0.09494  0.73756  1.0000
  H   H1871     1.0  0.72132  0.04396  0.74185  1.0000
  H   H1872     1.0  0.73204  0.02490  0.71178  1.0000
  C   C1050     1.0  0.50421  0.28245  0.75685  1.0000
  C   C1051     1.0  0.74333  0.18616  0.86132  1.0000
  H   H1873     1.0  0.50083  0.30052  0.75573  1.0000
  H   H1874     1.0  0.70218  0.23808  0.49936  1.0000
  H   H1875     1.0  0.74479  0.29593  0.66984  1.0000
  C   C1052     1.0  0.73435  0.30919  0.78118  1.0000
  H   H1876     1.0  0.51029  0.26490  0.65861  1.0000
  H   H1877     1.0  0.72135  0.30723  0.79612  1.0000
  H   H1878     1.0  0.72126  0.46238  0.83153  1.0000
  S   S241      1.0  0.74291  0.13048  0.83353  1.0000
  C   C1053     1.0  0.73818  0.16588  0.85703  1.0000
  C   C1054     1.0  0.73506  0.06529  0.71132  1.0000
  H   H1879     1.0  0.70307  0.44239  0.90731  1.0000
  C   C1055     1.0  0.71165  0.45737  0.90154  1.0000
  H   H1880     1.0  0.51177  0.23464  0.66289  1.0000
  H   H1881     1.0  0.72597  0.45567  0.91096  1.0000
  C   C1056     1.0  0.74608  0.20041  0.51548  1.0000
  H   H1882     1.0  0.73892  0.08277  0.70817  1.0000
  H   H1883     1.0  0.73205  0.48278  0.81058  1.0000
  C   C1057     1.0  0.50783  0.24987  0.67128  1.0000
  H   H1884     1.0  0.74527  0.33767  0.78943  1.0000
  H   H1885     1.0  0.73415  0.19382  0.87546  1.0000
  N   N59       1.0  0.74163  0.48251  0.84310  1.0000
  H   H1886     1.0  0.74498  0.05054  0.67114  1.0000
  H   H1887     1.0  0.71984  0.49494  0.87162  1.0000
  C   C1058     1.0  0.74672  0.34078  0.86592  1.0000
  C   C1059     1.0  0.71615  0.83128  0.15010  1.0000
  C   C1060     1.0  0.72264  0.90966  0.31261  1.0000
  H   H1888     1.0  0.73587  0.90100  0.35104  1.0000
  S   S242      1.0  0.71085  0.86830  0.25421  1.0000
  H   H1889     1.0  0.71283  0.78066  0.30269  1.0000
  C   C1061     1.0  0.67766  0.78047  0.31096  1.0000
  H   H1890     1.0  0.67914  0.88097  0.07937  1.0000
  H   H1891     1.0  0.52278  0.76957  0.24382  1.0000
  H   H1892     1.0  0.71530  0.59463  0.33837  1.0000
  Fe  Fe121     1.0  0.71819  0.85803  0.22007  1.0000
  S   S243      1.0  0.69345  0.84542  0.20336  1.0000
  C   C1062     1.0  0.72372  0.77782  0.24608  1.0000
  Fe  Fe122     1.0  0.58717  0.72237  0.24123  1.0000
  S   S244      1.0  0.60762  0.71972  0.26906  1.0000
  S   S245      1.0  0.55034  0.71963  0.25294  1.0000
  Fe  Fe123     1.0  0.62838  0.72280  0.20585  1.0000
  S   S246      1.0  0.65164  0.72012  0.23106  1.0000
  S   S247      1.0  0.64375  0.72182  0.16966  1.0000
  Fe  Fe124     1.0  0.63178  0.69440  0.25128  1.0000
  S   S248      1.0  0.64715  0.66141  0.26934  1.0000
  Fe  Fe125     1.0  0.62597  0.74577  0.24645  1.0000
  S   S249      1.0  0.63751  0.77201  0.26210  1.0000
  S   S250      1.0  0.61022  0.69500  0.22506  1.0000
  S   S251      1.0  0.60363  0.75060  0.21974  1.0000
  H   H1893     1.0  0.66289  0.77927  0.30316  1.0000
  H   H1894     1.0  0.71031  0.68343  0.15569  1.0000
  C   C1063     1.0  0.67205  0.74648  0.18054  1.0000
  C   C1064     1.0  0.66905  0.73267  0.16574  1.0000
  C   C1065     1.0  0.68641  0.72725  0.14852  1.0000
  C   C1066     1.0  0.70708  0.73500  0.14685  1.0000
  H   H1895     1.0  0.65837  0.75162  0.19306  1.0000
  H   H1896     1.0  0.68402  0.71675  0.13684  1.0000
  H   H1897     1.0  0.71845  0.92079  0.29700  1.0000
  H   H1898     1.0  0.72807  0.87771  0.29862  1.0000
  H   H1899     1.0  0.68911  0.87126  0.30573  1.0000
  H   H1900     1.0  0.68495  0.60012  0.34265  1.0000
  C   C1067     1.0  0.72365  0.97160  0.25831  1.0000
  H   H1901     1.0  0.69053  0.73108  0.25353  1.0000
  H   H1902     1.0  0.52099  0.76571  0.27400  1.0000
  C   C1068     1.0  0.67848  0.82463  0.21980  1.0000
  C   C1069     1.0  0.67101  0.80907  0.20942  1.0000
  C   C1070     1.0  0.65850  0.79281  0.22219  1.0000
  C   C1071     1.0  0.65304  0.79223  0.24539  1.0000
  C   C1072     1.0  0.66029  0.80794  0.25569  1.0000
  C   C1073     1.0  0.67328  0.82381  0.24304  1.0000
  H   H1903     1.0  0.67499  0.80948  0.19153  1.0000
  H   H1904     1.0  0.65277  0.78097  0.21408  1.0000
  H   H1905     1.0  0.65562  0.80808  0.27350  1.0000
  H   H1906     1.0  0.67866  0.83587  0.25121  1.0000
  H   H1907     1.0  0.72060  0.73067  0.13378  1.0000
  H   H1908     1.0  0.72790  0.66109  0.12552  1.0000
  C   C1074     1.0  0.71916  0.63481  0.24210  1.0000
  C   C1075     1.0  0.70925  0.65610  0.23344  1.0000
  C   C1076     1.0  0.68703  0.66412  0.24134  1.0000
  C   C1077     1.0  0.67450  0.65087  0.25796  1.0000
  C   C1078     1.0  0.68424  0.62924  0.26624  1.0000
  C   C1079     1.0  0.70665  0.62125  0.25849  1.0000
  H   H1909     1.0  0.71895  0.66660  0.22090  1.0000
  H   H1910     1.0  0.67971  0.68058  0.23461  1.0000
  H   H1911     1.0  0.67447  0.61870  0.27878  1.0000
  H   H1912     1.0  0.71414  0.60464  0.26507  1.0000
  H   H1913     1.0  0.69832  0.71618  0.21770  1.0000
  C   C1080     1.0  0.51698  0.73486  0.19906  1.0000
  C   C1081     1.0  0.53258  0.73444  0.21357  1.0000
  C   C1082     1.0  0.53088  0.72095  0.23446  1.0000
  C   C1083     1.0  0.74305  0.75624  0.27745  1.0000
  H   H1914     1.0  0.69683  0.79697  0.28193  1.0000
  H   H1915     1.0  0.51850  0.74514  0.18278  1.0000
  H   H1916     1.0  0.54582  0.74467  0.20870  1.0000
  C   C1084     1.0  0.73019  0.65238  0.17031  1.0000
  C   C1085     1.0  0.71007  0.74835  0.16225  1.0000
  N   N60       1.0  0.56872  0.68072  0.17729  1.0000
  H   H1917     1.0  0.50061  0.66781  0.15815  1.0000
  H   H1918     1.0  0.72542  0.77687  0.07444  1.0000
  C   C1086     1.0  0.56649  0.70509  0.16698  1.0000
  C   C1087     1.0  0.58158  0.71952  0.17450  1.0000
  C   C1088     1.0  0.72008  0.68496  0.37756  1.0000
  C   C1089     1.0  0.55938  0.65536  0.21517  1.0000
  C   C1090     1.0  0.54732  0.65603  0.23910  1.0000
  C   C1091     1.0  0.57840  0.74360  0.16244  1.0000
  C   C1092     1.0  0.73953  0.77376  0.49408  1.0000
  H   H1919     1.0  0.73869  0.98172  0.31109  1.0000
  C   C1093     1.0  0.73521  0.95119  0.25202  1.0000
  C   C1094     1.0  0.51298  0.70857  0.24111  1.0000
  H   H1920     1.0  0.73345  0.67797  0.38810  1.0000
  H   H1921     1.0  0.56965  0.70679  0.14834  1.0000
  H   H1922     1.0  0.54902  0.71337  0.17087  1.0000
  H   H1923     1.0  0.57767  0.72014  0.19274  1.0000
  H   H1924     1.0  0.71689  0.86066  0.10734  1.0000
  H   H1925     1.0  0.71443  0.81305  0.08911  1.0000
  H   H1926     1.0  0.57679  0.64702  0.21636  1.0000
  H   H1927     1.0  0.72889  0.68486  0.31190  1.0000
  C   C1095     1.0  0.71675  0.88625  0.31175  1.0000
  H   H1928     1.0  0.60514  0.68982  0.14284  1.0000
  H   H1929     1.0  0.56075  0.75159  0.16608  1.0000
  H   H1930     1.0  0.58931  0.75347  0.16831  1.0000
  H   H1931     1.0  0.58316  0.74397  0.14405  1.0000
  C   C1096     1.0  0.68841  0.66471  0.17960  1.0000
  H   H1932     1.0  0.73896  0.74742  0.29484  1.0000
  H   H1933     1.0  0.70762  0.82198  0.16543  1.0000
  H   H1934     1.0  0.70555  0.97434  0.26079  1.0000
  H   H1935     1.0  0.70390  0.68792  0.38871  1.0000
  C   C1097     1.0  0.73133  0.94931  0.32942  1.0000
  N   N61       1.0  0.69557  0.82029  0.12094  1.0000
  H   H1936     1.0  0.54893  0.63888  0.24875  1.0000
  H   H1937     1.0  0.69988  0.59030  0.31731  1.0000
  H   H1938     1.0  0.59943  0.66256  0.14040  1.0000
  C   C1098     1.0  0.70023  0.60114  0.33005  1.0000
  H   H1939     1.0  0.71208  0.68487  0.27831  1.0000
  H   H1940     1.0  0.67909  0.85332  0.12772  1.0000
  C   C1099     1.0  0.71056  0.77080  0.08528  1.0000
  H   H1941     1.0  0.71451  0.95189  0.32413  1.0000
  H   H1942     1.0  0.70475  0.89180  0.07907  1.0000
  H   H1943     1.0  0.71957  0.77645  0.11584  1.0000
  C   C1100     1.0  0.70504  0.78167  0.10665  1.0000
  H   H1944     1.0  0.72507  0.64096  0.16041  1.0000
  H   H1945     1.0  0.67243  0.84522  0.10364  1.0000
  H   H1946     1.0  0.67428  0.79609  0.31869  1.0000
  H   H1947     1.0  0.52515  0.69333  0.16396  1.0000
  H   H1948     1.0  0.72349  0.80082  0.13614  1.0000
  H   H1949     1.0  0.71360  0.68271  0.18453  1.0000
  H   H1950     1.0  0.69109  0.89879  0.29008  1.0000
  C   C1101     1.0  0.69215  0.88196  0.08963  1.0000
  H   H1951     1.0  0.72510  0.79315  0.25298  1.0000
  C   C1102     1.0  0.72320  0.66886  0.31052  1.0000
  C   C1103     1.0  0.71123  0.67258  0.17203  1.0000
  C   C1104     1.0  0.73490  0.79036  0.20432  1.0000
  H   H1952     1.0  0.60205  0.67644  0.18618  1.0000
  S   S252      1.0  0.71954  0.93006  0.24977  1.0000
  C   C1105     1.0  0.60607  0.67214  0.15100  1.0000
  C   C1106     1.0  0.71899  0.66849  0.36174  1.0000
  H   H1953     1.0  0.68003  0.76593  0.32437  1.0000
  C   C1107     1.0  0.68655  0.84440  0.11317  1.0000
  H   H1954     1.0  0.63837  0.67274  0.16110  1.0000
  C   C1108     1.0  0.69993  0.80759  0.10115  1.0000
  C   C1109     1.0  0.67864  0.81071  0.13932  1.0000
  C   C1110     1.0  0.65560  0.80987  0.13249  1.0000
  C   C1111     1.0  0.64041  0.79845  0.15195  1.0000
  H   H1955     1.0  0.68558  0.79365  0.14702  1.0000
  H   H1956     1.0  0.67503  0.82093  0.15325  1.0000
  H   H1957     1.0  0.65730  0.80052  0.11815  1.0000
  H   H1958     1.0  0.64698  0.82710  0.12775  1.0000
  H   H1959     1.0  0.69048  0.77464  0.11699  1.0000
  C   C1112     1.0  0.53011  0.67510  0.16894  1.0000
  H   H1960     1.0  0.64727  0.78049  0.15593  1.0000
  H   H1961     1.0  0.63868  0.80666  0.16715  1.0000
  H   H1962     1.0  0.62353  0.79945  0.14722  1.0000
  N   N62       1.0  0.70189  0.66548  0.32652  1.0000
  C   C1113     1.0  0.68100  0.67454  0.31594  1.0000
  C   C1114     1.0  0.70088  0.67769  0.34628  1.0000
  C   C1115     1.0  0.73528  0.98849  0.26149  1.0000
  C   C1116     1.0  0.67659  0.70046  0.30981  1.0000
  C   C1117     1.0  0.66045  0.70774  0.29262  1.0000
  H   H1963     1.0  0.66596  0.66948  0.32742  1.0000
  H   H1964     1.0  0.68101  0.66699  0.30069  1.0000
  H   H1965     1.0  0.68427  0.67757  0.35707  1.0000
  H   H1966     1.0  0.70247  0.69567  0.34037  1.0000
  H   H1967     1.0  0.71523  0.65515  0.28200  1.0000
  H   H1968     1.0  0.54206  0.68850  0.20414  1.0000
  H   H1969     1.0  0.66903  0.70815  0.32507  1.0000
  H   H1970     1.0  0.69231  0.70739  0.30294  1.0000
  H   H1971     1.0  0.68601  0.63057  0.31019  1.0000
  H   H1972     1.0  0.71705  0.63384  0.34345  1.0000
  H   H1973     1.0  0.52135  0.79332  0.25804  1.0000
  H   H1974     1.0  0.66780  0.70134  0.27663  1.0000
  H   H1975     1.0  0.64438  0.70122  0.29902  1.0000
  H   H1976     1.0  0.65699  0.72633  0.28919  1.0000
  H   H1977     1.0  0.70077  0.75145  0.23130  1.0000
  H   H1978     1.0  0.71837  0.70120  0.23535  1.0000
  C   C1118     1.0  0.55936  0.67933  0.20187  1.0000
  H   H1979     1.0  0.71516  0.65258  0.37232  1.0000
  C   C1119     1.0  0.71726  0.81853  0.13003  1.0000
  C   C1120     1.0  0.70107  0.62526  0.31855  1.0000
  H   H1980     1.0  0.71054  0.91619  0.32654  1.0000
  H   H1981     1.0  0.59948  0.71275  0.17068  1.0000
  H   H1982     1.0  0.68060  0.89562  0.31979  1.0000
  H   H1983     1.0  0.73565  0.66517  0.35168  1.0000
  H   H1984     1.0  0.71448  0.75232  0.08972  1.0000
  C   C1121     1.0  0.69246  0.75419  0.17891  1.0000
  H   H1985     1.0  0.68836  0.65288  0.19553  1.0000
  H   H1986     1.0  0.68557  0.81160  0.09149  1.0000
  H   H1987     1.0  0.74088  0.73150  0.24479  1.0000
  H   H1988     1.0  0.63992  0.66441  0.13397  1.0000
  H   H1989     1.0  0.59408  0.65160  0.18118  1.0000
  H   H1990     1.0  0.67538  0.67937  0.18244  1.0000
  H   H1991     1.0  0.63300  0.64502  0.15896  1.0000
  H   H1992     1.0  0.69612  0.77458  0.07578  1.0000
  C   C1122     1.0  0.69291  0.88819  0.30654  1.0000
  H   H1993     1.0  0.72428  0.72194  0.26941  1.0000
  H   H1994     1.0  0.72598  0.72306  0.21257  1.0000
  C   C1123     1.0  0.51524  0.77705  0.25920  1.0000
  H   H1995     1.0  0.71158  0.85043  0.08311  1.0000
  H   H1996     1.0  0.55090  0.64486  0.20721  1.0000
  C   C1124     1.0  0.59286  0.66990  0.17509  1.0000
  H   H1997     1.0  0.72099  0.78367  0.19955  1.0000
  H   H1998     1.0  0.73074  0.82382  0.11651  1.0000
  H   H1999     1.0  0.70715  0.78209  0.24010  1.0000
  H   H2000     1.0  0.74424  0.69028  0.14174  1.0000
  H   H2001     1.0  0.68433  0.89091  0.10402  1.0000
  H   H2002     1.0  0.70708  0.84858  0.14752  1.0000
  C   C1125     1.0  0.74243  0.77629  0.22554  1.0000
  N   N63       1.0  0.72390  0.75775  0.26430  1.0000
  C   C1126     1.0  0.72474  0.73609  0.25531  1.0000
  H   H2003     1.0  0.69445  0.76485  0.19058  1.0000
  C   C1127     1.0  0.70230  0.76072  0.28034  1.0000
  Fe  Fe126     1.0  0.74287  0.84607  0.26046  1.0000
  C   C1128     1.0  0.70358  0.85852  0.09797  1.0000
  C   C1129     1.0  0.70563  0.73531  0.24179  1.0000
  C   C1130     1.0  0.69869  0.78091  0.29349  1.0000
  C   C1131     1.0  0.63084  0.66295  0.15136  1.0000
  H   H2004     1.0  0.68722  0.63893  0.34916  1.0000
  C   C1132     1.0  0.70174  0.64094  0.33563  1.0000
  C   C1133     1.0  0.71256  0.71774  0.22600  1.0000
  H   H2005     1.0  0.52299  0.67059  0.18676  1.0000
  C   C1134     1.0  0.72248  0.66939  0.28514  1.0000
  Fe  Fe127     1.0  0.73251  0.89522  0.24026  1.0000
  H   H2006     1.0  0.51142  0.69832  0.25741  1.0000
  H   H2007     1.0  0.70107  0.74537  0.29294  1.0000
  H   H2008     1.0  0.68758  0.76278  0.27132  1.0000
  H   H2009     1.0  0.52925  0.66237  0.23895  1.0000
  H   H2010     1.0  0.73003  0.64280  0.18751  1.0000
  H   H2011     1.0  0.71641  0.62488  0.30600  1.0000
  H   H2012     1.0  0.56892  0.68807  0.21066  1.0000
  H   H2013     1.0  0.72419  0.70120  0.36792  1.0000
  C   C1135     1.0  0.55598  0.66865  0.16525  1.0000
  H   H2014     1.0  0.68400  0.65635  0.16654  1.0000
  H   H2015     1.0  0.56150  0.67183  0.14684  1.0000
  H   H2016     1.0  0.55467  0.66699  0.24773  1.0000
  H   H2017     1.0  0.55992  0.65016  0.16988  1.0000
  C   C1136     1.0  0.49963  0.72178  0.20531  1.0000
  H   H2018     1.0  0.73611  0.75371  0.46880  1.0000
  H   H2019     1.0  0.73711  0.65560  0.31535  1.0000
  H   H2020     1.0  0.73129  0.69981  0.10526  1.0000
  H   H2021     1.0  0.71730  0.87563  0.32830  1.0000
  S   S253      1.0  0.73526  0.75846  0.16143  1.0000
  H   H2022     1.0  0.74461  0.67045  0.25337  1.0000
  C   C1137     1.0  0.74474  0.66605  0.11984  1.0000
  H   H2023     1.0  0.74125  0.78194  0.45788  1.0000
  S   S254      1.0  0.73688  0.88699  0.20508  1.0000
  H   H2024     1.0  0.73610  0.67913  0.08659  1.0000
  H   H2025     1.0  0.72896  0.80798  0.20672  1.0000
  C   C1138     1.0  0.74549  0.76717  0.47054  1.0000
  S   S255      1.0  0.74062  0.81800  0.28929  1.0000
  C   C1139     1.0  0.73766  0.97259  0.32851  1.0000
  C   C1140     1.0  0.73951  0.83279  0.15453  1.0000
  H   H2026     1.0  0.52286  0.64441  0.15986  1.0000
  H   H2027     1.0  0.73027  0.94084  0.34704  1.0000
  H   H2028     1.0  0.72476  0.98251  0.33942  1.0000
  H   H2029     1.0  0.73831  0.84080  0.16976  1.0000
  H   H2030     1.0  0.74201  0.70002  0.17744  1.0000
  C   C1141     1.0  0.74282  0.68491  0.10002  1.0000
  H   H2031     1.0  0.74390  0.86391  0.37406  1.0000
  C   C1142     1.0  0.49753  0.70877  0.22648  1.0000
  C   C1143     1.0  0.51906  0.66285  0.15504  1.0000
  H   H2032     1.0  0.52484  0.66738  0.13686  1.0000
  C   C1144     1.0  0.74583  0.66873  0.27149  1.0000
  N   N64       1.0  0.74634  0.91082  0.31560  1.0000
  H   H2033     1.0  0.74554  0.77334  0.27945  1.0000
  H   H2034     1.0  0.50541  0.79209  0.61325  1.0000
  H   H2035     1.0  0.70326  0.70797  0.74085  1.0000
  H   H2036     1.0  0.74306  0.50443  0.71567  1.0000
  Fe  Fe128     1.0  0.71187  0.63703  0.79004  1.0000
  Fe  Fe129     1.0  0.74638  0.59614  0.77982  1.0000
  S   S256      1.0  0.67840  0.64784  0.80977  1.0000
  H   H2037     1.0  0.74365  0.49987  0.68731  1.0000
  C   C1145     1.0  0.74411  0.75313  0.51219  1.0000
  H   H2038     1.0  0.69500  0.49697  0.84842  1.0000
  H   H2039     1.0  0.70116  0.80870  0.77725  1.0000
  H   H2040     1.0  0.74059  0.68831  0.89947  1.0000
  H   H2041     1.0  0.56815  0.81043  0.80548  1.0000
  H   H2042     1.0  0.52043  0.75235  0.57996  1.0000
  H   H2043     1.0  0.74096  0.98237  0.71383  1.0000
  S   S257      1.0  0.71578  0.61322  0.76497  1.0000
  Fe  Fe130     1.0  0.64907  0.79712  0.71192  1.0000
  S   S258      1.0  0.63571  0.79123  0.68166  1.0000
  S   S259      1.0  0.66936  0.82575  0.70644  1.0000
  Fe  Fe131     1.0  0.62885  0.75842  0.74154  1.0000
  S   S260      1.0  0.61429  0.74923  0.71375  1.0000
  S   S261      1.0  0.61982  0.73938  0.77592  1.0000
  Fe  Fe132     1.0  0.64724  0.75497  0.69298  1.0000
  S   S262      1.0  0.66568  0.73029  0.67025  1.0000
  Fe  Fe133     1.0  0.60374  0.78609  0.70492  1.0000
  S   S263      1.0  0.56978  0.80194  0.69502  1.0000
  S   S264      1.0  0.66286  0.76096  0.72170  1.0000
  S   S265      1.0  0.61610  0.79530  0.73419  1.0000
  C   C1146     1.0  0.50660  0.73729  0.66747  1.0000
  C   C1147     1.0  0.50479  0.77098  0.71595  1.0000
  C   C1148     1.0  0.54511  0.78943  0.70290  1.0000
  C   C1149     1.0  0.52466  0.80189  0.69777  1.0000
  C   C1150     1.0  0.72598  0.75542  0.62429  1.0000
  Fe  Fe134     1.0  0.73852  0.63615  0.74392  1.0000
  C   C1151     1.0  0.52530  0.75835  0.72066  1.0000
  C   C1152     1.0  0.54541  0.76746  0.71407  1.0000
  H   H2044     1.0  0.52430  0.81884  0.68899  1.0000
  H   H2045     1.0  0.66946  0.68020  0.68250  1.0000
  H   H2046     1.0  0.52562  0.74141  0.72943  1.0000
  H   H2047     1.0  0.56110  0.75753  0.71762  1.0000
  C   C1153     1.0  0.68901  0.74005  0.65289  1.0000
  C   C1154     1.0  0.70886  0.72525  0.64836  1.0000
  H   H2048     1.0  0.67326  0.76111  0.56828  1.0000
  C   C1155     1.0  0.68768  0.76247  0.64297  1.0000
  H   H2049     1.0  0.70990  0.70784  0.65585  1.0000
  H   H2050     1.0  0.64531  0.69986  0.70745  1.0000
  H   H2051     1.0  0.67232  0.77387  0.64603  1.0000
  H   H2052     1.0  0.73949  0.77704  0.80868  1.0000
  C   C1156     1.0  0.70375  0.82328  0.64616  1.0000
  H   H2053     1.0  0.50311  0.74786  0.61960  1.0000
  H   H2054     1.0  0.70552  0.51357  0.82282  1.0000
  H   H2055     1.0  0.69354  0.64554  0.65603  1.0000
  C   C1157     1.0  0.74309  0.67685  0.91536  1.0000
  C   C1158     1.0  0.66682  0.64489  0.68457  1.0000
  N   N65       1.0  0.66386  0.66749  0.71809  1.0000
  C   C1159     1.0  0.71566  0.52373  0.76543  1.0000
  H   H2056     1.0  0.71468  0.55720  0.77304  1.0000
  C   C1160     1.0  0.66313  0.67408  0.80068  1.0000
  C   C1161     1.0  0.64035  0.67834  0.80897  1.0000
  C   C1162     1.0  0.62736  0.69847  0.80130  1.0000
  C   C1163     1.0  0.63693  0.71444  0.78502  1.0000
  C   C1164     1.0  0.65979  0.71044  0.77685  1.0000
  C   C1165     1.0  0.67293  0.69039  0.78494  1.0000
  H   H2057     1.0  0.63266  0.66594  0.82126  1.0000
  H   H2058     1.0  0.60976  0.70157  0.80787  1.0000
  H   H2059     1.0  0.66736  0.72293  0.76461  1.0000
  H   H2060     1.0  0.69056  0.68753  0.77888  1.0000
  H   H2061     1.0  0.72303  0.55710  0.72257  1.0000
  C   C1166     1.0  0.71090  0.83895  0.75713  1.0000
  C   C1167     1.0  0.70892  0.85362  0.73715  1.0000
  C   C1168     1.0  0.69576  0.84954  0.72202  1.0000
  C   C1169     1.0  0.68458  0.83071  0.72665  1.0000
  C   C1170     1.0  0.68656  0.81599  0.74661  1.0000
  C   C1171     1.0  0.69973  0.82010  0.76179  1.0000
  H   H2062     1.0  0.71741  0.86818  0.73342  1.0000
  H   H2063     1.0  0.69416  0.86108  0.70668  1.0000
  H   H2064     1.0  0.67800  0.80145  0.75031  1.0000
  H   H2065     1.0  0.53778  0.72608  0.58809  1.0000
  H   H2066     1.0  0.71156  0.75128  0.57881  1.0000
  H   H2067     1.0  0.70449  0.78708  0.61999  1.0000
  H   H2068     1.0  0.56917  0.72246  0.75752  1.0000
  H   H2069     1.0  0.69843  0.52663  0.76243  1.0000
  H   H2070     1.0  0.67471  0.62856  0.69284  1.0000
  H   H2071     1.0  0.71463  0.71913  0.71277  1.0000
  H   H2072     1.0  0.55043  0.74990  0.57319  1.0000
  H   H2073     1.0  0.50899  0.80723  0.77285  1.0000
  H   H2074     1.0  0.72807  0.87469  0.85383  1.0000
  H   H2075     1.0  0.60234  0.78594  0.81771  1.0000
  H   H2076     1.0  0.72158  0.78103  0.49631  1.0000
  H   H2077     1.0  0.73790  0.79248  0.64520  1.0000
  C   C1172     1.0  0.62201  0.67635  0.71263  1.0000
  C   C1173     1.0  0.72281  0.77049  0.71342  1.0000
  H   H2078     1.0  0.60809  0.81372  0.80550  1.0000
  C   C1174     1.0  0.52252  0.77246  0.84519  1.0000
  H   H2079     1.0  0.73940  0.72320  0.94319  1.0000
  H   H2080     1.0  0.53319  0.76888  0.66881  1.0000
  H   H2081     1.0  0.58318  0.81596  0.77764  1.0000
  H   H2082     1.0  0.63776  0.68941  0.73586  1.0000
  H   H2083     1.0  0.67693  0.77551  0.59044  1.0000
  C   C1175     1.0  0.70736  0.76727  0.56773  1.0000
  C   C1176     1.0  0.70595  0.76997  0.62833  1.0000
  C   C1177     1.0  0.50502  0.79561  0.63052  1.0000
  H   H2084     1.0  0.54993  0.75516  0.82507  1.0000
  C   C1178     1.0  0.60353  0.79802  0.80194  1.0000
  H   H2085     1.0  0.73470  0.68229  0.56913  1.0000
  H   H2086     1.0  0.74212  0.70088  0.58563  1.0000
  C   C1179     1.0  0.60119  0.69392  0.71547  1.0000
  C   C1180     1.0  0.64256  0.68410  0.71894  1.0000
  C   C1181     1.0  0.67506  0.64619  0.65942  1.0000
  H   H2087     1.0  0.58638  0.68713  0.71269  1.0000
  H   H2088     1.0  0.67064  0.63181  0.65307  1.0000
  H   H2089     1.0  0.55468  0.78144  0.83081  1.0000
  C   C1182     1.0  0.68221  0.83941  0.64278  1.0000
  H   H2090     1.0  0.72336  0.66769  0.88124  1.0000
  H   H2091     1.0  0.70839  0.83923  0.67370  1.0000
  H   H2092     1.0  0.63337  0.61768  0.76297  1.0000
  H   H2093     1.0  0.66238  0.60983  0.76742  1.0000
  C   C1183     1.0  0.74273  0.75140  0.77422  1.0000
  S   S266      1.0  0.74047  0.61782  0.80731  1.0000
  S   S267      1.0  0.72764  0.84337  0.77628  1.0000
  H   H2094     1.0  0.68605  0.85554  0.63268  1.0000
  H   H2095     1.0  0.60323  0.70908  0.70292  1.0000
  C   C1184     1.0  0.73542  0.71635  0.55211  1.0000
  H   H2096     1.0  0.72772  0.91893  0.86655  1.0000
  H   H2097     1.0  0.72518  0.81545  0.70004  1.0000
  H   H2098     1.0  0.53718  0.77068  0.60519  1.0000
  H   H2099     1.0  0.73491  0.86321  0.67613  1.0000
  C   C1185     1.0  0.64731  0.62269  0.76952  1.0000
  H   H2100     1.0  0.70540  0.60743  0.71467  1.0000
  H   H2101     1.0  0.63710  0.65798  0.76044  1.0000
  C   C1186     1.0  0.68203  0.77402  0.57237  1.0000
  H   H2102     1.0  0.50984  0.76299  0.84178  1.0000
  C   C1187     1.0  0.49874  0.77520  0.64774  1.0000
  S   S268      1.0  0.74603  0.90164  0.74000  1.0000
  H   H2103     1.0  0.67553  0.71274  0.71472  1.0000
  H   H2104     1.0  0.69644  0.58571  0.70304  1.0000
  H   H2105     1.0  0.73144  0.70790  0.83808  1.0000
  C   C1188     1.0  0.66054  0.64517  0.73214  1.0000
  H   H2106     1.0  0.64862  0.63695  0.72579  1.0000
  H   H2107     1.0  0.74477  0.79258  0.53081  1.0000
  N   N66       1.0  0.73995  0.75766  0.53617  1.0000
  C   C1189     1.0  0.74421  0.69633  0.56848  1.0000
  H   H2108     1.0  0.66712  0.66199  0.65020  1.0000
  H   H2109     1.0  0.58649  0.77795  0.77103  1.0000
  H   H2110     1.0  0.71265  0.96972  0.85730  1.0000
  S   S269      1.0  0.73070  0.95813  0.76815  1.0000
  N   N67       1.0  0.51573  0.75416  0.64855  1.0000
  C   C1190     1.0  0.53708  0.75937  0.65433  1.0000
  C   C1191     1.0  0.52240  0.80777  0.75819  1.0000
  C   C1192     1.0  0.73434  0.64118  0.86126  1.0000
  C   C1193     1.0  0.51906  0.74447  0.62686  1.0000
  C   C1194     1.0  0.53788  0.75226  0.60823  1.0000
  C   C1195     1.0  0.55465  0.73879  0.66068  1.0000
  C   C1196     1.0  0.53648  0.74463  0.58605  1.0000
  H   H2111     1.0  0.51876  0.77875  0.80190  1.0000
  C   C1197     1.0  0.65242  0.64565  0.75749  1.0000
  H   H2112     1.0  0.70529  0.75346  0.53772  1.0000
  C   C1198     1.0  0.57758  0.74565  0.66017  1.0000
  H   H2113     1.0  0.55860  0.80326  0.75008  1.0000
  C   C1199     1.0  0.71309  0.96203  0.84205  1.0000
  H   H2114     1.0  0.54537  0.77077  0.64061  1.0000
  C   C1200     1.0  0.71896  0.83307  0.65866  1.0000
  H   H2115     1.0  0.69904  0.80720  0.65529  1.0000
  H   H2116     1.0  0.70409  0.94729  0.84672  1.0000
  H   H2117     1.0  0.51800  0.72103  0.66820  1.0000
  H   H2118     1.0  0.52299  0.72583  0.63000  1.0000
  H   H2119     1.0  0.73634  0.57777  0.68391  1.0000
  H   H2120     1.0  0.55455  0.74493  0.61302  1.0000
  C   C1201     1.0  0.67343  0.66438  0.69409  1.0000
  H   H2121     1.0  0.54938  0.73063  0.67802  1.0000
  H   H2122     1.0  0.55642  0.72622  0.64916  1.0000
  C   C1202     1.0  0.58122  0.80311  0.79277  1.0000
  H   H2123     1.0  0.62509  0.67395  0.69478  1.0000
  H   H2124     1.0  0.72333  0.84844  0.64724  1.0000
  H   H2125     1.0  0.71520  0.78035  0.57271  1.0000
  H   H2126     1.0  0.56066  0.76314  0.75578  1.0000
  H   H2127     1.0  0.71530  0.78110  0.72659  1.0000
  C   C1203     1.0  0.71523  0.76498  0.54258  1.0000
  C   C1204     1.0  0.50457  0.79274  0.70428  1.0000
  H   H2128     1.0  0.67683  0.79046  0.56237  1.0000
  C   C1205     1.0  0.54214  0.77270  0.82608  1.0000
  H   H2129     1.0  0.58958  0.73073  0.66556  1.0000
  H   H2130     1.0  0.58417  0.75308  0.64295  1.0000
  H   H2131     1.0  0.57646  0.75809  0.67175  1.0000
  H   H2132     1.0  0.51453  0.78983  0.84737  1.0000
  H   H2133     1.0  0.67353  0.68147  0.74451  1.0000
  H   H2134     1.0  0.69140  0.58608  0.73294  1.0000
  H   H2135     1.0  0.73763  0.71075  0.53544  1.0000
  H   H2136     1.0  0.69206  0.66094  0.69210  1.0000
  C   C1206     1.0  0.68070  0.67693  0.72778  1.0000
  C   C1207     1.0  0.70339  0.58944  0.71739  1.0000
  H   H2137     1.0  0.64855  0.64484  0.68725  1.0000
  H   H2138     1.0  0.70995  0.78164  0.53294  1.0000
  C   C1208     1.0  0.70863  0.70420  0.72347  1.0000
  H   H2139     1.0  0.67664  0.63353  0.73081  1.0000
  C   C1209     1.0  0.72841  0.50250  0.76381  1.0000
  H   H2140     1.0  0.69543  0.66396  0.73057  1.0000
  H   H2141     1.0  0.54055  0.73734  0.80028  1.0000
  H   H2142     1.0  0.67236  0.84275  0.65916  1.0000
  H   H2143     1.0  0.66574  0.64994  0.76542  1.0000
  H   H2144     1.0  0.53937  0.72199  0.76559  1.0000
  C   C1210     1.0  0.55424  0.73969  0.78607  1.0000
  H   H2145     1.0  0.69536  0.69639  0.69632  1.0000
  C   C1211     1.0  0.55549  0.72107  0.77193  1.0000
  H   H2146     1.0  0.64231  0.62349  0.78775  1.0000
  H   H2147     1.0  0.57039  0.73726  0.79258  1.0000
  H   H2148     1.0  0.52081  0.79499  0.74799  1.0000
  H   H2149     1.0  0.72276  0.69019  0.72324  1.0000
  H   H2150     1.0  0.52907  0.80279  0.80610  1.0000
  H   H2151     1.0  0.61702  0.79081  0.78945  1.0000
  H   H2152     1.0  0.73567  0.54016  0.69009  1.0000
  H   H2153     1.0  0.53207  0.76385  0.76804  1.0000
  H   H2154     1.0  0.59803  0.69857  0.73264  1.0000
  H   H2155     1.0  0.67177  0.83184  0.63382  1.0000
  C   C1212     1.0  0.68921  0.69835  0.71407  1.0000
  C   C1213     1.0  0.72750  0.73301  0.63436  1.0000
  C   C1214     1.0  0.74009  0.91723  0.85111  1.0000
  C   C1215     1.0  0.69997  0.97921  0.82607  1.0000
  C   C1216     1.0  0.73445  0.71360  0.93143  1.0000
  H   H2156     1.0  0.55904  0.70448  0.78234  1.0000
  H   H2157     1.0  0.71254  0.82054  0.62920  1.0000
  H   H2158     1.0  0.71728  0.72068  0.55784  1.0000
  H   H2159     1.0  0.54726  0.81916  0.77230  1.0000
  H   H2160     1.0  0.57953  0.76751  0.79941  1.0000
  C   C1217     1.0  0.72276  0.78426  0.69008  1.0000
  H   H2161     1.0  0.61797  0.66066  0.72339  1.0000
  N   N68       1.0  0.55104  0.78317  0.78253  1.0000
  C   C1218     1.0  0.57492  0.78176  0.78641  1.0000
  C   C1219     1.0  0.54922  0.76306  0.77204  1.0000
  C   C1220     1.0  0.54597  0.80375  0.76555  1.0000
  C   C1221     1.0  0.53437  0.78491  0.80365  1.0000
  C   C1222     1.0  0.72488  0.54115  0.77127  1.0000
  H   H2162     1.0  0.71270  0.75680  0.71502  1.0000
  H   H2163     1.0  0.70504  0.79004  0.68786  1.0000
  H   H2164     1.0  0.73579  0.72371  0.91447  1.0000
  H   H2165     1.0  0.73175  0.87838  0.88173  1.0000
  H   H2166     1.0  0.73354  0.63641  0.90899  1.0000
  H   H2167     1.0  0.52132  0.80006  0.63229  1.0000
  H   H2168     1.0  0.72705  0.65151  0.84673  1.0000
  H   H2169     1.0  0.74490  0.97138  0.82664  1.0000
  H   H2170     1.0  0.74375  0.71513  0.77770  1.0000
  H   H2171     1.0  0.73830  0.67309  0.66512  1.0000
  H   H2172     1.0  0.74291  0.68090  0.81071  1.0000
  H   H2173     1.0  0.50586  0.74306  0.68391  1.0000
  H   H2174     1.0  0.68254  0.98361  0.83431  1.0000
  H   H2175     1.0  0.73019  0.75289  0.78948  1.0000
  H   H2176     1.0  0.73349  0.74087  0.51000  1.0000
  S   S270      1.0  0.73190  0.66158  0.76756  1.0000
  N   N69       1.0  0.73996  0.81803  0.66509  1.0000
  H   H2177     1.0  0.73055  0.77274  0.67784  1.0000
  H   H2178     1.0  0.71679  0.71095  0.93709  1.0000
  H   H2179     1.0  0.73863  0.94998  0.87602  1.0000
  H   H2180     1.0  0.73369  0.51863  0.84017  1.0000
  H   H2181     1.0  0.72627  0.67238  0.92288  1.0000
  S   S271      1.0  0.73452  0.64488  0.70751  1.0000
  H   H2182     1.0  0.72218  0.63007  0.87040  1.0000
  C   C1223     1.0  0.73759  0.95551  0.83094  1.0000
  H   H2183     1.0  0.73009  0.91600  0.83784  1.0000
  H   H2184     1.0  0.73143  0.57828  0.73507  1.0000
  C   C1224     1.0  0.72590  0.57481  0.71987  1.0000
  H   H2185     1.0  0.73685  0.95007  0.81462  1.0000
  H   H2186     1.0  0.52861  0.76415  0.86110  1.0000
  C   C1225     1.0  0.74025  0.73027  0.76521  1.0000
  H   H2187     1.0  0.72284  0.73140  0.76178  1.0000
  H   H2188     1.0  0.69938  0.97223  0.81059  1.0000
  H   H2189     1.0  0.51788  0.84436  0.75348  1.0000
  C   C1226     1.0  0.73529  0.80457  0.68807  1.0000
  H   H2190     1.0  0.72930  0.79583  0.84235  1.0000
  C   C1227     1.0  0.74053  0.87544  0.86482  1.0000
  H   H2191     1.0  0.73853  0.76589  0.76130  1.0000
  H   H2192     1.0  0.74401  0.84342  0.69916  1.0000
  H   H2193     1.0  0.66999  0.50216  0.81967  1.0000
  H   H2194     1.0  0.74011  0.76296  0.71617  1.0000
  H   H2195     1.0  0.74281  0.79583  0.94949  1.0000
  C   C1228     1.0  0.73918  0.65651  0.87655  1.0000
  C   C1229     1.0  0.74338  0.57994  0.69889  1.0000
  C   C1230     1.0  0.74444  0.98052  0.77101  1.0000
  H   H2196     1.0  0.53141  0.83200  0.72883  1.0000
  H   H2197     1.0  0.74288  0.72164  0.63119  1.0000
  H   H2198     1.0  0.74491  0.78551  0.97852  1.0000
  H   H2199     1.0  0.74424  0.59820  0.69696  1.0000
  H   H2200     1.0  0.74430  0.81512  0.96823  1.0000
  C   C1231     1.0  0.51818  0.83059  0.74367  1.0000
  H   H2201     1.0  0.70780  0.99476  0.82146  1.0000
  H   H2202     1.0  0.50178  0.83251  0.73761  1.0000
  C   C1232     1.0  0.70259  0.49637  0.83072  1.0000
  C   C1233     1.0  0.76626  0.46086  0.24519  1.0000
  C   C1234     1.0  0.75849  0.29772  0.36473  1.0000
  C   C1235     1.0  0.76219  0.47357  0.28143  1.0000
  H   H2203     1.0  0.75864  0.30165  0.47173  1.0000
  H   H2204     1.0  0.76469  0.13432  0.18732  1.0000
  H   H2205     1.0  0.80197  0.22556  0.41675  1.0000
  Fe  Fe135     1.0  0.75291  0.36606  0.28091  1.0000
  S   S272      1.0  0.78721  0.11258  0.22486  1.0000
  H   H2206     1.0  0.79360  0.27053  0.49314  1.0000
  Fe  Fe136     1.0  0.92445  0.19875  0.21948  1.0000
  S   S273      1.0  0.90198  0.18635  0.25065  1.0000
  S   S274      1.0  0.96203  0.19975  0.21139  1.0000
  Fe  Fe137     1.0  0.88653  0.20813  0.19091  1.0000
  S   S275      1.0  0.86088  0.19682  0.21942  1.0000
  S   S276      1.0  0.88075  0.22424  0.15587  1.0000
  Fe  Fe138     1.0  0.87639  0.21543  0.23981  1.0000
  S   S277      1.0  0.85153  0.23368  0.26476  1.0000
  Fe  Fe139     1.0  0.88777  0.16848  0.22831  1.0000
  S   S278      1.0  0.88001  0.13343  0.24174  1.0000
  S   S279      1.0  0.89984  0.22947  0.21057  1.0000
  S   S280      1.0  0.91232  0.17816  0.19799  1.0000
  H   H2207     1.0  0.75732  0.24254  0.48902  1.0000
  C   C1236     1.0  0.75929  0.29631  0.34194  1.0000
  Fe  Fe140     1.0  0.79291  0.35587  0.24658  1.0000
  H   H2208     1.0  0.75341  0.41477  0.17754  1.0000
  S   S281      1.0  0.82841  0.33872  0.23934  1.0000
  S   S282      1.0  0.77725  0.37837  0.21866  1.0000
  S   S283      1.0  0.78425  0.38185  0.26981  1.0000
  H   H2209     1.0  0.80910  0.22857  0.05635  1.0000
  H   H2210     1.0  0.84969  0.26704  0.39830  1.0000
  C   C1237     1.0  0.85900  0.21839  0.14336  1.0000
  C   C1238     1.0  0.85248  0.23313  0.12464  1.0000
  C   C1239     1.0  0.83464  0.22983  0.11463  1.0000
  C   C1240     1.0  0.82422  0.21083  0.12221  1.0000
  C   C1241     1.0  0.83121  0.19552  0.14045  1.0000
  C   C1242     1.0  0.84819  0.19963  0.15144  1.0000
  H   H2211     1.0  0.86125  0.24719  0.11784  1.0000
  H   H2212     1.0  0.82931  0.24170  0.10064  1.0000
  H   H2213     1.0  0.82331  0.18067  0.14626  1.0000
  H   H2214     1.0  0.85329  0.18805  0.16574  1.0000
  C   C1243     1.0  0.84484  0.26261  0.25642  1.0000
  C   C1244     1.0  0.86132  0.27529  0.24514  1.0000
  C   C1245     1.0  0.85603  0.29864  0.23988  1.0000
  C   C1246     1.0  0.83419  0.30936  0.24565  1.0000
  C   C1247     1.0  0.81761  0.29659  0.25660  1.0000
  C   C1248     1.0  0.82300  0.27328  0.26226  1.0000
  H   H2215     1.0  0.87827  0.26717  0.24087  1.0000
  H   H2216     1.0  0.86893  0.30844  0.23143  1.0000
  H   H2217     1.0  0.80079  0.30467  0.26118  1.0000
  H   H2218     1.0  0.81022  0.26349  0.27103  1.0000
  C   C1249     1.0  0.81241  0.11881  0.23056  1.0000
  C   C1250     1.0  0.82220  0.13636  0.21682  1.0000
  C   C1251     1.0  0.84283  0.14111  0.22030  1.0000
  C   C1252     1.0  0.85400  0.12800  0.23722  1.0000
  C   C1253     1.0  0.84433  0.11022  0.25078  1.0000
  C   C1254     1.0  0.82334  0.10593  0.24776  1.0000
  H   H2219     1.0  0.81389  0.14629  0.20337  1.0000
  H   H2220     1.0  0.85035  0.15457  0.20950  1.0000
  H   H2221     1.0  0.85300  0.09991  0.26377  1.0000
  H   H2222     1.0  0.81576  0.09252  0.25849  1.0000
  H   H2223     1.0  0.77070  0.48659  0.21666  1.0000
  H   H2224     1.0  0.76961  0.34267  0.19530  1.0000
  H   H2225     1.0  0.76717  0.01331  0.21271  1.0000
  Fe  Fe141     1.0  0.76586  0.40310  0.24307  1.0000
  C   C1255     1.0  0.75755  0.39377  0.15129  1.0000
  H   H2226     1.0  0.80838  0.26897  0.03224  1.0000
  H   H2227     1.0  0.81355  0.18932  0.25264  1.0000
  S   S284      1.0  0.77069  0.31205  0.12625  1.0000
  H   H2228     1.0  0.81701  0.21949  0.44074  1.0000
  H   H2229     1.0  0.75075  0.10089  0.15817  1.0000
  C   C1256     1.0  0.78246  0.38885  0.15316  1.0000
  C   C1257     1.0  0.98248  0.20582  0.22585  1.0000
  H   H2230     1.0  0.86992  0.47420  0.28627  1.0000
  H   H2231     1.0  0.79367  0.19104  0.02757  1.0000
  S   S285      1.0  0.76309  0.24992  0.13901  1.0000
  C   C1258     1.0  0.97887  0.20659  0.24896  1.0000
  C   C1259     1.0  0.77614  0.19780  0.17552  1.0000
  H   H2232     1.0  0.79928  0.25761  0.44953  1.0000
  H   H2233     1.0  0.96265  0.20446  0.25853  1.0000
  C   C1260     1.0  0.81089  0.22356  0.00096  1.0000
  H   H2234     1.0  0.77267  0.16730  0.16469  1.0000
  H   H2235     1.0  0.81980  0.20246  0.04701  1.0000
  C   C1261     1.0  0.76400  0.25869  0.48577  1.0000
  C   C1262     1.0  0.75898  0.18521  0.06048  1.0000
  C   C1263     1.0  0.83968  0.22784  0.03221  1.0000
  H   H2236     1.0  0.78160  0.26238  0.42866  1.0000
  H   H2237     1.0  0.82093  0.20659  0.00042  1.0000
  H   H2238     1.0  0.83249  0.44918  0.27575  1.0000
  C   C1264     1.0  0.76144  0.18122  0.17212  1.0000
  H   H2239     1.0  0.78526  0.20428  0.15909  1.0000
  C   C1265     1.0  0.76834  0.48288  0.23476  1.0000
  H   H2240     1.0  0.83799  0.48520  0.21918  1.0000
  H   H2241     1.0  0.79387  0.25132  0.20890  1.0000
  S   S286      1.0  0.76828  0.43955  0.22835  1.0000
  H   H2242     1.0  0.77223  0.09530  0.17623  1.0000
  H   H2243     1.0  0.76133  0.33912  0.44735  1.0000
  C   C1266     1.0  0.75383  0.31583  0.32679  1.0000
  H   H2244     1.0  0.75894  0.28291  0.20694  1.0000
  H   H2245     1.0  0.78861  0.18947  0.18667  1.0000
  C   C1267     1.0  0.82216  0.48259  0.29800  1.0000
  H   H2246     1.0  0.77041  0.21130  0.02068  1.0000
  H   H2247     1.0  0.90357  0.45037  0.25148  1.0000
  C   C1268     1.0  0.80929  0.33218  0.31001  1.0000
  C   C1269     1.0  0.76307  0.45629  0.26861  1.0000
  H   H2248     1.0  0.75157  0.31972  0.38978  1.0000
  H   H2249     1.0  0.83413  0.41211  0.26387  1.0000
  N   N70       1.0  0.83685  0.48139  0.25530  1.0000
  C   C1270     1.0  0.86207  0.47815  0.25211  1.0000
  H   H2250     1.0  0.80705  0.47436  0.29944  1.0000
  S   S287      1.0  0.76910  0.21011  0.39172  1.0000
  H   H2251     1.0  0.77138  0.25025  0.01605  1.0000
  H   H2252     1.0  0.90666  0.45106  0.28012  1.0000
  C   C1271     1.0  0.75714  0.32240  0.15101  1.0000
  C   C1272     1.0  0.77262  0.20461  0.05576  1.0000
  H   H2253     1.0  0.77666  0.24894  0.04357  1.0000
  H   H2254     1.0  0.83874  0.24512  0.02306  1.0000
  H   H2255     1.0  0.84931  0.21632  0.02059  1.0000
  C   C1273     1.0  0.79754  0.26866  0.01953  1.0000
  C   C1274     1.0  0.75681  0.15741  0.33635  1.0000
  C   C1275     1.0  0.87344  0.46458  0.27193  1.0000
  H   H2256     1.0  0.77006  0.16917  0.05804  1.0000
  C   C1276     1.0  0.80634  0.22061  0.32942  1.0000
  S   S288      1.0  0.77820  0.06356  0.27875  1.0000
  C   C1277     1.0  0.81623  0.22079  0.04094  1.0000
  H   H2257     1.0  0.78487  0.20099  0.06775  1.0000
  H   H2258     1.0  0.78778  0.32771  0.16044  1.0000
  H   H2259     1.0  0.85275  0.44066  0.23686  1.0000
  H   H2260     1.0  0.76786  0.15952  0.30076  1.0000
  N   N71       1.0  0.83618  0.27144  0.33262  1.0000
  C   C1278     1.0  0.84429  0.26400  0.35505  1.0000
  C   C1279     1.0  0.85583  0.27057  0.31381  1.0000
  C   C1280     1.0  0.82512  0.29556  0.33207  1.0000
  C   C1281     1.0  0.81897  0.25788  0.32929  1.0000
  C   C1282     1.0  0.82602  0.23221  0.33124  1.0000
  H   H2261     1.0  0.76099  0.21993  0.05935  1.0000
  C   C1283     1.0  0.81761  0.30729  0.30942  1.0000
  C   C1284     1.0  0.87643  0.25232  0.31740  1.0000
  C   C1285     1.0  0.89377  0.25223  0.29623  1.0000
  H   H2262     1.0  0.76597  0.22772  0.44239  1.0000
  C   C1286     1.0  0.83682  0.25658  0.39747  1.0000
  C   C1287     1.0  0.82948  0.49384  0.23361  1.0000
  H   H2263     1.0  0.85674  0.27467  0.35682  1.0000
  H   H2264     1.0  0.85334  0.24661  0.35623  1.0000
  H   H2265     1.0  0.85020  0.26876  0.29796  1.0000
  H   H2266     1.0  0.86278  0.28670  0.31020  1.0000
  H   H2267     1.0  0.83652  0.30583  0.33671  1.0000
  H   H2268     1.0  0.80909  0.46271  0.26303  1.0000
  H   H2269     1.0  0.86780  0.44798  0.27729  1.0000
  H   H2270     1.0  0.81396  0.26321  0.31232  1.0000
  S   S289      1.0  0.77321  0.26779  0.08562  1.0000
  H   H2271     1.0  0.83940  0.22805  0.31732  1.0000
  C   C1288     1.0  0.78419  0.20764  0.03102  1.0000
  H   H2272     1.0  0.78078  0.22174  0.46625  1.0000
  C   C1289     1.0  0.83434  0.44402  0.24152  1.0000
  H   H2273     1.0  0.83149  0.30605  0.29529  1.0000
  H   H2274     1.0  0.88488  0.25578  0.33087  1.0000
  H   H2275     1.0  0.87172  0.23531  0.32215  1.0000
  H   H2276     1.0  0.90860  0.23959  0.29953  1.0000
  H   H2277     1.0  0.88676  0.24777  0.28231  1.0000
  H   H2278     1.0  0.89933  0.26893  0.29093  1.0000
  S   S290      1.0  0.80317  0.20585  0.10820  1.0000
  H   H2279     1.0  0.81133  0.20216  0.33197  1.0000
  C   C1290     1.0  0.82618  0.26442  0.37608  1.0000
  H   H2280     1.0  0.77571  0.00269  0.18638  1.0000
  H   H2281     1.0  0.82377  0.25821  0.41229  1.0000
  H   H2282     1.0  0.84461  0.23873  0.39819  1.0000
  H   H2283     1.0  0.80363  0.29977  0.30578  1.0000
  S   S291      1.0  0.76650  0.27422  0.38406  1.0000
  H   H2284     1.0  0.75536  0.44092  0.14143  1.0000
  H   H2285     1.0  0.79173  0.38095  0.13856  1.0000
  C   C1291     1.0  0.77267  0.33018  0.43446  1.0000
  N   N72       1.0  0.83435  0.13772  0.31566  1.0000
  C   C1292     1.0  0.83394  0.13798  0.34037  1.0000
  C   C1293     1.0  0.85834  0.13223  0.30510  1.0000
  C   C1294     1.0  0.82383  0.16040  0.30529  1.0000
  C   C1295     1.0  0.82138  0.12022  0.31186  1.0000
  C   C1296     1.0  0.82775  0.09613  0.32398  1.0000
  C   C1297     1.0  0.81047  0.14059  0.35472  1.0000
  C   C1298     1.0  0.82404  0.16369  0.27951  1.0000
  C   C1299     1.0  0.87347  0.15047  0.30383  1.0000
  C   C1300     1.0  0.89810  0.14142  0.29708  1.0000
  C   C1301     1.0  0.81272  0.08040  0.31948  1.0000
  C   C1302     1.0  0.81220  0.13825  0.37965  1.0000
  C   C1303     1.0  0.81286  0.18722  0.27114  1.0000
  H   H2286     1.0  0.84186  0.15217  0.34296  1.0000
  H   H2287     1.0  0.84420  0.12265  0.34795  1.0000
  H   H2288     1.0  0.86644  0.11654  0.31438  1.0000
  H   H2289     1.0  0.85922  0.12850  0.28778  1.0000
  H   H2290     1.0  0.83189  0.17393  0.30924  1.0000
  H   H2291     1.0  0.80599  0.16386  0.31278  1.0000
  H   H2292     1.0  0.80315  0.12537  0.31650  1.0000
  H   H2293     1.0  0.82351  0.11881  0.29374  1.0000
  H   H2294     1.0  0.82582  0.09562  0.34241  1.0000
  H   H2295     1.0  0.84530  0.08939  0.31789  1.0000
  H   H2296     1.0  0.80137  0.15750  0.34997  1.0000
  H   H2297     1.0  0.80031  0.12794  0.35268  1.0000
  H   H2298     1.0  0.81465  0.15171  0.27472  1.0000
  H   H2299     1.0  0.84134  0.16142  0.27043  1.0000
  H   H2300     1.0  0.86878  0.16513  0.29122  1.0000
  H   H2301     1.0  0.87213  0.15650  0.32013  1.0000
  H   H2302     1.0  0.90846  0.15489  0.29593  1.0000
  H   H2303     1.0  0.90388  0.12726  0.30971  1.0000
  H   H2304     1.0  0.90070  0.13563  0.28047  1.0000
  H   H2305     1.0  0.81391  0.08022  0.30121  1.0000
  H   H2306     1.0  0.81790  0.06308  0.32768  1.0000
  H   H2307     1.0  0.79501  0.08581  0.32636  1.0000
  H   H2308     1.0  0.79513  0.14076  0.38934  1.0000
  H   H2309     1.0  0.82061  0.12125  0.38568  1.0000
  H   H2310     1.0  0.82162  0.15108  0.38283  1.0000
  H   H2311     1.0  0.82165  0.20007  0.27522  1.0000
  H   H2312     1.0  0.82661  0.45178  0.22635  1.0000
  H   H2313     1.0  0.79506  0.18993  0.27893  1.0000
  N   N73       1.0  0.84527  0.28513  0.17236  1.0000
  C   C1304     1.0  0.84971  0.28717  0.14710  1.0000
  C   C1305     1.0  0.86732  0.27869  0.18131  1.0000
  C   C1306     1.0  0.83172  0.26612  0.18078  1.0000
  C   C1307     1.0  0.83249  0.30623  0.18076  1.0000
  C   C1308     1.0  0.83638  0.32889  0.16585  1.0000
  C   C1309     1.0  0.82874  0.28930  0.13538  1.0000
  C   C1310     1.0  0.82774  0.25897  0.20653  1.0000
  C   C1311     1.0  0.88401  0.29581  0.17474  1.0000
  C   C1312     1.0  0.90632  0.28618  0.18307  1.0000
  C   C1313     1.0  0.82795  0.34860  0.17885  1.0000
  C   C1314     1.0  0.83361  0.29765  0.11029  1.0000
  C   C1315     1.0  0.81042  0.24292  0.21329  1.0000
  H   H2314     1.0  0.86132  0.27224  0.14199  1.0000
  H   H2315     1.0  0.85878  0.30140  0.13953  1.0000
  H   H2316     1.0  0.86464  0.27591  0.19987  1.0000
  H   H2317     1.0  0.87593  0.26245  0.17615  1.0000
  H   H2318     1.0  0.83977  0.25088  0.17319  1.0000
  H   H2319     1.0  0.81485  0.27056  0.17542  1.0000
  H   H2320     1.0  0.81412  0.30596  0.18314  1.0000
  H   H2321     1.0  0.83608  0.30691  0.19787  1.0000
  H   H2322     1.0  0.82728  0.33151  0.15120  1.0000
  H   H2323     1.0  0.85419  0.32969  0.15927  1.0000
  H   H2324     1.0  0.82304  0.27271  0.13729  1.0000
  H   H2325     1.0  0.81472  0.30092  0.14291  1.0000
  H   H2326     1.0  0.82175  0.27378  0.21530  1.0000
  H   H2327     1.0  0.84345  0.24993  0.21245  1.0000
  H   H2328     1.0  0.88761  0.30049  0.15632  1.0000
  H   H2329     1.0  0.87728  0.31104  0.18272  1.0000
  H   H2330     1.0  0.90387  0.28171  0.20162  1.0000
  H   H2331     1.0  0.91417  0.27101  0.17534  1.0000
  H   H2332     1.0  0.91793  0.29883  0.17840  1.0000
  H   H2333     1.0  0.82817  0.36462  0.16721  1.0000
  H   H2334     1.0  0.81065  0.34767  0.18758  1.0000
  H   H2335     1.0  0.83906  0.34848  0.19145  1.0000
  H   H2336     1.0  0.83773  0.31498  0.10747  1.0000
  H   H2337     1.0  0.84771  0.28643  0.10215  1.0000
  H   H2338     1.0  0.81856  0.29780  0.10237  1.0000
  N   N74       1.0  0.76445  0.26872  0.46140  1.0000
  H   H2339     1.0  0.81580  0.22784  0.20474  1.0000
  H   H2340     1.0  0.84493  0.23919  0.06248  1.0000
  N   N75       1.0  0.82459  0.04541  0.20751  1.0000
  C   C1316     1.0  0.82783  0.05252  0.22904  1.0000
  C   C1317     1.0  0.81677  0.06604  0.19176  1.0000
  C   C1318     1.0  0.80604  0.03107  0.21322  1.0000
  C   C1319     1.0  0.84536  0.03198  0.19649  1.0000
  C   C1320     1.0  0.86833  0.03743  0.19984  1.0000
  C   C1321     1.0  0.83193  0.03312  0.24856  1.0000
  C   C1322     1.0  0.79747  0.02454  0.19311  1.0000
  C   C1323     1.0  0.83301  0.08356  0.18401  1.0000
  C   C1324     1.0  0.82247  0.10411  0.16930  1.0000
  H   H2341     1.0  0.84300  0.01837  0.24254  1.0000
  C   C1325     1.0  0.84233  0.04046  0.26660  1.0000
  C   C1326     1.0  0.99023  0.14577  0.27711  1.0000
  H   H2342     1.0  0.81276  0.06401  0.23527  1.0000
  H   H2343     1.0  0.84166  0.06265  0.22630  1.0000
  H   H2344     1.0  0.81350  0.06135  0.17599  1.0000
  H   H2345     1.0  0.80054  0.07471  0.19958  1.0000
  H   H2346     1.0  0.79135  0.03955  0.22351  1.0000
  H   H2347     1.0  0.81141  0.01507  0.22395  1.0000
  C   C1327     1.0  0.75212  0.31849  0.37229  1.0000
  H   H2348     1.0  0.84495  0.03356  0.17814  1.0000
  H   H2349     1.0  0.87161  0.03116  0.21727  1.0000
  H   H2350     1.0  0.86920  0.05561  0.19685  1.0000
  H   H2351     1.0  0.79027  0.30502  0.01443  1.0000
  H   H2352     1.0  0.84571  0.01371  0.20267  1.0000
  H   H2353     1.0  0.75953  0.16610  0.20693  1.0000
  H   H2354     1.0  0.78765  0.03934  0.18425  1.0000
  H   H2355     1.0  0.83777  0.08955  0.19839  1.0000
  H   H2356     1.0  0.84823  0.07631  0.17358  1.0000
  H   H2357     1.0  0.81824  0.09928  0.15400  1.0000
  H   H2358     1.0  0.80710  0.11250  0.17865  1.0000
  H   H2359     1.0  0.83447  0.11638  0.16411  1.0000
  H   H2360     1.0  0.76134  0.43944  0.27686  1.0000
  H   H2361     1.0  0.81159  0.01770  0.18107  1.0000
  H   H2362     1.0  0.84458  0.02632  0.28044  1.0000
  H   H2363     1.0  0.85893  0.04559  0.25956  1.0000
  H   H2364     1.0  0.83123  0.05467  0.27363  1.0000
  C   C1328     1.0  0.89885  0.46045  0.26550  1.0000
  H   H2365     1.0  0.99395  0.20923  0.27775  1.0000
  H   H2366     1.0  0.83606  0.46942  0.30248  1.0000
  H   H2367     1.0  0.80332  0.26126  0.34121  1.0000
  H   H2368     1.0  0.81575  0.02757  0.25662  1.0000
  H   H2369     1.0  0.77071  0.34000  0.41768  1.0000
  C   C1329     1.0  0.76988  0.32925  0.16486  1.0000
  H   H2370     1.0  0.87023  0.22995  0.04475  1.0000
  C   C1330     1.0  0.78237  0.25561  0.44661  1.0000
  H   H2371     1.0  0.77804  0.29893  0.42173  1.0000
  H   H2372     1.0  0.79551  0.33470  0.32409  1.0000
  H   H2373     1.0  0.80290  0.33963  0.29406  1.0000
  H   H2374     1.0  0.79188  0.22481  0.34239  1.0000
  H   H2375     1.0  0.80106  0.22571  0.31255  1.0000
  H   H2376     1.0  0.82315  0.34102  0.31172  1.0000
  H   H2377     1.0  0.78912  0.40454  0.15349  1.0000
  H   H2378     1.0  0.80756  0.42398  0.25457  1.0000
  H   H2379     1.0  0.79028  0.32921  0.43720  1.0000
  C   C1331     1.0  0.78520  0.24797  0.02617  1.0000
  N   N76       1.0  0.79938  0.22543  0.02462  1.0000
  C   C1332     1.0  0.78113  0.23021  0.44870  1.0000
  Fe  Fe142     1.0  0.77479  0.23456  0.10783  1.0000
  H   H2380     1.0  0.88562  0.03268  0.16637  1.0000
  H   H2381     1.0  0.80968  0.29699  0.34460  1.0000
  C   C1333     1.0  0.82598  0.42146  0.24946  1.0000
  H   H2382     1.0  0.78683  0.29240  0.46142  1.0000
  C   C1334     1.0  0.76680  0.30673  0.43540  1.0000
  C   C1335     1.0  0.76937  0.29243  0.45863  1.0000
  C   C1336     1.0  0.82771  0.45937  0.26005  1.0000
  H   H2383     1.0  0.85398  0.20957  0.06170  1.0000
  H   H2384     1.0  0.81712  0.28157  0.37734  1.0000
  H   H2385     1.0  0.77057  0.29156  0.03544  1.0000
  H   H2386     1.0  0.88778  0.00770  0.18709  1.0000
  H   H2387     1.0  0.83180  0.22510  0.34754  1.0000
  H   H2388     1.0  0.82989  0.41114  0.23562  1.0000
  H   H2389     1.0  0.81395  0.25310  0.37580  1.0000
  H   H2390     1.0  0.78527  0.37706  0.16865  1.0000
  H   H2391     1.0  0.80870  0.23742  0.23171  1.0000
  Fe  Fe143     1.0  0.75766  0.04116  0.26776  1.0000
  C   C1337     1.0  0.75411  0.09601  0.17576  1.0000
  C   C1338     1.0  0.85298  0.22649  0.05150  1.0000
  H   H2392     1.0  0.79954  0.20023  0.43632  1.0000
  C   C1339     1.0  0.80124  0.21825  0.43473  1.0000
  Fe  Fe144     1.0  0.76795  0.08885  0.24989  1.0000
  H   H2393     1.0  0.97971  0.13747  0.26892  1.0000
  S   S292      1.0  0.76285  0.33854  0.25971  1.0000
  H   H2394     1.0  0.76576  0.21228  0.18281  1.0000
  S   S293      1.0  0.75039  0.06548  0.23717  1.0000
  H   H2395     1.0  0.75524  0.40531  0.13552  1.0000
  Fe  Fe145     1.0  0.74902  0.20093  0.36805  1.0000
  S   S294      1.0  0.76286  0.18434  0.33733  1.0000
  H   H2396     1.0  0.76991  0.29136  0.00601  1.0000
  C   C1340     1.0  0.78186  0.00687  0.20099  1.0000
  H   H2397     1.0  0.90368  0.02982  0.18735  1.0000
  H   H2398     1.0  0.86911  0.47031  0.23681  1.0000
  H   H2399     1.0  0.81422  0.48873  0.33257  1.0000
  C   C1341     1.0  0.75955  0.33808  0.18442  1.0000
  H   H2400     1.0  0.76433  0.28029  0.33598  1.0000
  H   H2401     1.0  0.97999  0.16125  0.28255  1.0000
  C   C1342     1.0  0.78100  0.29043  0.01883  1.0000
  C   C1343     1.0  0.88746  0.02617  0.18416  1.0000
  S   S295      1.0  0.77388  0.00535  0.26381  1.0000
  Fe  Fe146     1.0  0.75806  0.28274  0.11691  1.0000
  H   H2402     1.0  0.90557  0.47661  0.26045  1.0000
  C   C1344     1.0  0.76119  0.14920  0.31576  1.0000
  H   H2403     1.0  0.75977  0.46988  0.29955  1.0000
  H   H2404     1.0  0.75451  0.31483  0.30920  1.0000
  H   H2405     1.0  0.79903  0.24245  0.48620  1.0000
  C   C1345     1.0  0.75707  0.12764  0.31440  1.0000
  H   H2406     1.0  0.76090  0.12138  0.29850  1.0000
  H   H2407     1.0  0.80774  0.26877  0.00275  1.0000
  H   H2408     1.0  0.86813  0.49469  0.24893  1.0000
  H   H2409     1.0  0.74824  0.27509  0.23604  1.0000
  H   H2410     1.0  0.75041  0.19005  0.15975  1.0000
  S   S296      1.0  0.74899  0.18440  0.45283  1.0000
  H   H2411     1.0  0.74936  0.30883  0.43186  1.0000
  H   H2412     1.0  0.74983  0.48193  0.13485  1.0000
  Fe  Fe147     1.0  0.74912  0.24427  0.38602  1.0000
  H   H2413     1.0  0.75210  0.37773  0.14987  1.0000
  H   H2414     1.0  0.81131  0.49378  0.23408  1.0000
  H   H2415     1.0  0.82313  0.23546  0.99540  1.0000
  H   H2416     1.0  0.75055  0.18376  0.07813  1.0000
  C   C1346     1.0  0.74859  0.11406  0.33367  1.0000
  C   C1347     1.0  0.74829  0.14389  0.35566  1.0000
  H   H2417     1.0  0.74879  0.14035  0.16479  1.0000
  C   C1348     1.0  0.74678  0.33650  0.33465  1.0000
  H   H2418     1.0  0.74949  0.07904  0.18203  1.0000
  C   C1349     1.0  0.99664  0.20925  0.25981  1.0000
  H   H2419     1.0  0.99540  0.13448  0.29217  1.0000
  C   C1350     1.0  0.74728  0.13638  0.18341  1.0000
  C   C1351     1.0  0.74750  0.17280  0.19473  1.0000
  C   C1352     1.0  0.76463  0.49551  0.27101  1.0000
  C   C1353     1.0  0.82712  0.49536  0.27383  1.0000
  C   C1354     1.0  0.84065  0.13273  0.66545  1.0000
  S   S297      1.0  0.77746  0.09714  0.74332  1.0000
  Fe  Fe148     1.0  0.86943  0.29061  0.72057  1.0000
  S   S298      1.0  0.89936  0.28160  0.69516  1.0000
  S   S299      1.0  0.85860  0.32643  0.72718  1.0000
  Fe  Fe149     1.0  0.86197  0.24223  0.73426  1.0000
  S   S300      1.0  0.89078  0.22946  0.70974  1.0000
  S   S301      1.0  0.83978  0.22168  0.75972  1.0000
  Fe  Fe150     1.0  0.90961  0.25291  0.72119  1.0000
  S   S302      1.0  0.94419  0.23820  0.73013  1.0000
  Fe  Fe151     1.0  0.87787  0.25915  0.68592  1.0000
  S   S303      1.0  0.87755  0.25922  0.64903  1.0000
  S   S304      1.0  0.88142  0.26368  0.74747  1.0000
  S   S305      1.0  0.84750  0.27010  0.70953  1.0000
  C   C1355     1.0  0.77242  0.18600  0.82924  1.0000
  H   H2420     1.0  0.81090  0.16993  0.59023  1.0000
  H   H2421     1.0  0.84006  0.17320  0.58817  1.0000
  S   S306      1.0  0.78007  0.03848  0.77870  1.0000
  C   C1356     1.0  0.76839  0.37579  0.87133  1.0000
  H   H2422     1.0  0.86172  0.16445  0.67980  1.0000
  S   S307      1.0  0.82719  0.12632  0.74255  1.0000
  H   H2423     1.0  0.77411  0.04268  0.67103  1.0000
  C   C1357     1.0  0.81771  0.18887  0.61478  1.0000
  H   H2424     1.0  0.78034  0.22912  0.79578  1.0000
  C   C1358     1.0  0.77285  0.35458  0.88382  1.0000
  C   C1359     1.0  0.80054  0.18911  0.66317  1.0000
  C   C1360     1.0  0.82255  0.15222  0.67267  1.0000
  N   N77       1.0  0.82189  0.17387  0.65648  1.0000
  H   H2425     1.0  0.96144  0.23695  0.66127  1.0000
  H   H2426     1.0  0.82477  0.15478  0.68964  1.0000
  H   H2427     1.0  0.79752  0.22890  0.94660  1.0000
  C   C1361     1.0  0.96467  0.25468  0.73217  1.0000
  H   H2428     1.0  0.75921  0.20220  0.78485  1.0000
  C   C1362     1.0  0.84215  0.18541  0.65497  1.0000
  H   H2429     1.0  0.76537  0.32244  0.77091  1.0000
  C   C1363     1.0  0.97851  0.29039  0.72743  1.0000
  C   C1364     1.0  0.96163  0.27795  0.72593  1.0000
  C   C1365     1.0  0.76358  0.07827  0.66777  1.0000
  S   S308      1.0  0.80147  0.25653  0.59131  1.0000
  H   H2430     1.0  0.77148  0.25677  0.52980  1.0000
  H   H2431     1.0  0.94629  0.28637  0.71996  1.0000
  C   C1366     1.0  0.85555  0.25673  0.63471  1.0000
  C   C1367     1.0  0.83459  0.25127  0.64542  1.0000
  C   C1368     1.0  0.81771  0.25032  0.63251  1.0000
  C   C1369     1.0  0.82188  0.25496  0.60896  1.0000
  C   C1370     1.0  0.84285  0.26018  0.59860  1.0000
  C   C1371     1.0  0.85953  0.26089  0.61131  1.0000
  H   H2432     1.0  0.83151  0.24772  0.66350  1.0000
  H   H2433     1.0  0.80143  0.24655  0.64067  1.0000
  H   H2434     1.0  0.84621  0.26389  0.58050  1.0000
  H   H2435     1.0  0.87562  0.26504  0.60287  1.0000
  C   C1372     1.0  0.83762  0.19460  0.75544  1.0000
  C   C1373     1.0  0.85085  0.18485  0.73767  1.0000
  C   C1374     1.0  0.84827  0.16335  0.73436  1.0000
  C   C1375     1.0  0.83193  0.15201  0.74831  1.0000
  C   C1376     1.0  0.81913  0.16154  0.76641  1.0000
  C   C1377     1.0  0.82222  0.18266  0.77015  1.0000
  H   H2436     1.0  0.86295  0.19386  0.72650  1.0000
  H   H2437     1.0  0.85862  0.15563  0.72078  1.0000
  H   H2438     1.0  0.80698  0.15254  0.77764  1.0000
  H   H2439     1.0  0.81245  0.18981  0.78435  1.0000
  C   C1378     1.0  0.78477  0.35733  0.73674  1.0000
  C   C1379     1.0  0.79116  0.33655  0.72902  1.0000
  C   C1380     1.0  0.81369  0.32673  0.72650  1.0000
  C   C1381     1.0  0.83004  0.33778  0.73131  1.0000
  C   C1382     1.0  0.82361  0.35850  0.73921  1.0000
  C   C1383     1.0  0.80098  0.36820  0.74209  1.0000
  H   H2440     1.0  0.77862  0.32806  0.72497  1.0000
  H   H2441     1.0  0.81843  0.31063  0.72083  1.0000
  H   H2442     1.0  0.83620  0.36716  0.74295  1.0000
  H   H2443     1.0  0.79618  0.38440  0.74773  1.0000
  C   C1384     1.0  0.77368  0.20876  0.69250  1.0000
  H   H2444     1.0  0.78528  0.24456  0.98178  1.0000
  H   H2445     1.0  0.78601  0.19345  0.81870  1.0000
  H   H2446     1.0  0.85651  0.09991  0.67924  1.0000
  C   C1385     1.0  0.98463  0.24405  0.74007  1.0000
  H   H2447     1.0  0.75614  0.44783  0.84369  1.0000
  C   C1386     1.0  0.79722  0.19612  0.68682  1.0000
  H   H2448     1.0  0.80924  0.20761  0.68735  1.0000
  H   H2449     1.0  0.77710  0.07094  0.70967  1.0000
  C   C1387     1.0  0.75585  0.22021  0.77792  1.0000
  H   H2450     1.0  0.88142  0.19232  0.68749  1.0000
  C   C1388     1.0  0.82089  0.16845  0.63350  1.0000
  H   H2451     1.0  0.86420  0.21482  0.67255  1.0000
  C   C1389     1.0  0.78366  0.24515  0.51997  1.0000
  S   S309      1.0  0.76759  0.22172  0.85205  1.0000
  H   H2452     1.0  0.85260  0.12080  0.69755  1.0000
  H   H2453     1.0  0.80320  0.37732  0.78722  1.0000
  Fe  Fe152     1.0  0.76976  0.07631  0.77684  1.0000
  S   S310      1.0  0.76954  0.20986  0.58003  1.0000
  H   H2454     1.0  0.77726  0.38553  0.68515  1.0000
  H   H2455     1.0  0.94643  0.24433  0.79209  1.0000
  H   H2456     1.0  0.83783  0.20377  0.64974  1.0000
  H   H2457     1.0  0.85557  0.17977  0.64152  1.0000
  C   C1390     1.0  0.85359  0.18206  0.67624  1.0000
  H   H2458     1.0  0.75467  0.00988  0.68050  1.0000
  H   H2459     1.0  0.75138  0.31161  0.82199  1.0000
  H   H2460     1.0  0.98709  0.22607  0.74505  1.0000
  H   H2461     1.0  0.75215  0.26960  0.49667  1.0000
  H   H2462     1.0  0.83495  0.12499  0.65265  1.0000
  H   H2463     1.0  0.80611  0.14599  0.67529  1.0000
  C   C1391     1.0  0.87180  0.19695  0.67316  1.0000
  S   S311      1.0  0.76392  0.14194  0.76877  1.0000
  S   S312      1.0  0.78927  0.09463  0.79406  1.0000
  C   C1392     1.0  0.76564  0.01672  0.77575  1.0000
  H   H2464     1.0  0.78649  0.38162  0.81387  1.0000
  Fe  Fe153     1.0  0.77102  0.23894  0.59754  1.0000
  H   H2465     1.0  0.75385  0.22198  0.76000  1.0000
  H   H2466     1.0  0.82894  0.20122  0.61499  1.0000
  H   H2467     1.0  0.82012  0.19653  0.57859  1.0000
  C   C1393     1.0  0.80905  0.22617  0.95933  1.0000
  C   C1394     1.0  0.75391  0.29133  0.62656  1.0000
  C   C1395     1.0  0.80241  0.37300  0.80568  1.0000
  H   H2468     1.0  0.77686  0.38922  0.87349  1.0000
  Fe  Fe154     1.0  0.75100  0.19649  0.61327  1.0000
  H   H2469     1.0  0.80717  0.15842  0.63428  1.0000
  C   C1396     1.0  0.84486  0.11438  0.68523  1.0000
  H   H2470     1.0  0.77311  0.46403  0.85228  1.0000
  C   C1397     1.0  0.79551  0.44704  0.81541  1.0000
  H   H2471     1.0  0.85674  0.13876  0.65803  1.0000
  C   C1398     1.0  0.75301  0.13222  0.69329  1.0000
  H   H2472     1.0  0.79934  0.18151  0.70014  1.0000
  H   H2473     1.0  0.80018  0.19744  0.61698  1.0000
  H   H2474     1.0  0.79932  0.20510  0.65140  1.0000
  H   H2475     1.0  0.92855  0.26979  0.79836  1.0000
  H   H2476     1.0  0.79992  0.24273  0.52640  1.0000
  H   H2477     1.0  0.81650  0.37922  0.81076  1.0000
  H   H2478     1.0  0.77603  0.12668  0.66324  1.0000
  H   H2479     1.0  0.76906  0.34449  0.81957  1.0000
  H   H2480     1.0  0.77089  0.09836  0.63531  1.0000
  H   H2481     1.0  0.75788  0.29693  0.60827  1.0000
  H   H2482     1.0  0.78187  0.48190  0.81084  1.0000
  H   H2483     1.0  0.78391  0.21496  0.98542  1.0000
  H   H2484     1.0  0.82896  0.10849  0.69373  1.0000
  H   H2485     1.0  0.78988  0.43031  0.81995  1.0000
  H   H2486     1.0  0.80496  0.44806  0.79817  1.0000
  H   H2487     1.0  0.80689  0.44874  0.82714  1.0000
  N   N78       1.0  0.89611  0.20454  0.79662  1.0000
  C   C1399     1.0  0.87352  0.21715  0.80465  1.0000
  C   C1400     1.0  0.91287  0.22062  0.78751  1.0000
  C   C1401     1.0  0.89326  0.19300  0.77750  1.0000
  C   C1402     1.0  0.90465  0.18678  0.81473  1.0000
  C   C1403     1.0  0.90671  0.19475  0.83687  1.0000
  C   C1404     1.0  0.85473  0.20273  0.81498  1.0000
  C   C1405     1.0  0.91497  0.18052  0.76532  1.0000
  C   C1406     1.0  0.91064  0.24199  0.79876  1.0000
  C   C1407     1.0  0.93020  0.25501  0.78958  1.0000
  C   C1408     1.0  0.79509  0.38092  0.67816  1.0000
  C   C1409     1.0  0.83296  0.21748  0.82278  1.0000
  C   C1410     1.0  0.90992  0.17013  0.74606  1.0000
  H   H2488     1.0  0.86746  0.22946  0.79054  1.0000
  H   H2489     1.0  0.87464  0.22740  0.81757  1.0000
  H   H2490     1.0  0.93030  0.21170  0.78767  1.0000
  H   H2491     1.0  0.91179  0.22714  0.76952  1.0000
  H   H2492     1.0  0.88539  0.20544  0.76450  1.0000
  H   H2493     1.0  0.88174  0.18034  0.78331  1.0000
  H   H2494     1.0  0.89412  0.17309  0.81869  1.0000
  H   H2495     1.0  0.92170  0.17850  0.80870  1.0000
  H   H2496     1.0  0.89112  0.20500  0.84364  1.0000
  H   H2497     1.0  0.92078  0.20459  0.83410  1.0000
  H   H2498     1.0  0.85094  0.19309  0.80269  1.0000
  H   H2499     1.0  0.85952  0.19081  0.82979  1.0000
  H   H2500     1.0  0.92283  0.16663  0.77692  1.0000
  H   H2501     1.0  0.92736  0.19205  0.75815  1.0000
  H   H2502     1.0  0.89511  0.25344  0.79518  1.0000
  H   H2503     1.0  0.90993  0.23804  0.81716  1.0000
  H   H2504     1.0  0.91385  0.18093  0.87045  1.0000
  H   H2505     1.0  0.78082  0.26973  0.83423  1.0000
  H   H2506     1.0  0.93024  0.26113  0.77141  1.0000
  H   H2507     1.0  0.80527  0.37928  0.69191  1.0000
  H   H2508     1.0  0.92769  0.16408  0.84925  1.0000
  H   H2509     1.0  0.80005  0.39465  0.66483  1.0000
  H   H2510     1.0  0.82690  0.22930  0.80842  1.0000
  H   H2511     1.0  0.81984  0.20680  0.83015  1.0000
  H   H2512     1.0  0.83539  0.22712  0.83577  1.0000
  H   H2513     1.0  0.92556  0.16086  0.73800  1.0000
  H   H2514     1.0  0.89766  0.15825  0.75230  1.0000
  H   H2515     1.0  0.90310  0.18337  0.73318  1.0000
  C   C1411     1.0  0.82252  0.18156  0.59155  1.0000
  N   N79       1.0  0.78613  0.31338  0.80854  1.0000
  C   C1412     1.0  0.76348  0.30780  0.80682  1.0000
  C   C1413     1.0  0.79261  0.30246  0.83105  1.0000
  C   C1414     1.0  0.78375  0.33851  0.80764  1.0000
  C   C1415     1.0  0.80412  0.30647  0.78980  1.0000
  C   C1416     1.0  0.80149  0.28584  0.77937  1.0000
  H   H2516     1.0  0.82021  0.23925  0.95487  1.0000
  C   C1417     1.0  0.80418  0.34765  0.81268  1.0000
  C   C1418     1.0  0.79619  0.27649  0.83529  1.0000
  H   H2517     1.0  0.78582  0.18117  0.66188  1.0000
  C   C1419     1.0  0.82343  0.27673  0.76601  1.0000
  S   S313      1.0  0.76182  0.16103  0.62859  1.0000
  H   H2518     1.0  0.84148  0.18599  0.69112  1.0000
  C   C1420     1.0  0.79540  0.22765  0.98252  1.0000
  H   H2519     1.0  0.80865  0.30721  0.83343  1.0000
  H   H2520     1.0  0.78971  0.27469  0.87158  1.0000
  H   H2521     1.0  0.78023  0.34720  0.79077  1.0000
  H   H2522     1.0  0.80546  0.32037  0.77550  1.0000
  H   H2523     1.0  0.82087  0.30342  0.79548  1.0000
  H   H2524     1.0  0.78892  0.29068  0.76768  1.0000
  H   H2525     1.0  0.79602  0.27186  0.79196  1.0000
  C   C1421     1.0  0.76206  0.33704  0.88122  1.0000
  H   H2526     1.0  0.75389  0.01954  0.72851  1.0000
  H   H2527     1.0  0.82007  0.33974  0.80372  1.0000
  H   H2528     1.0  0.80493  0.34430  0.83101  1.0000
  H   H2529     1.0  0.76513  0.46333  0.80371  1.0000
  H   H2530     1.0  0.81017  0.26966  0.82315  1.0000
  H   H2531     1.0  0.96236  0.25369  0.68248  1.0000
  H   H2532     1.0  0.81896  0.27239  0.85999  1.0000
  H   H2533     1.0  0.80386  0.24914  0.86177  1.0000
  H   H2534     1.0  0.81988  0.26601  0.75457  1.0000
  H   H2535     1.0  0.83198  0.29042  0.75578  1.0000
  H   H2536     1.0  0.83478  0.26661  0.77753  1.0000
  H   H2537     1.0  0.77073  0.22410  0.68010  1.0000
  C   C1422     1.0  0.75283  0.32060  0.78615  1.0000
  H   H2538     1.0  0.83655  0.15769  0.62745  1.0000
  N   N80       1.0  0.82890  0.33062  0.64888  1.0000
  C   C1423     1.0  0.81712  0.33456  0.62848  1.0000
  C   C1424     1.0  0.82321  0.35121  0.66050  1.0000
  C   C1425     1.0  0.85379  0.32774  0.64065  1.0000
  C   C1426     1.0  0.82352  0.30996  0.66502  1.0000
  C   C1427     1.0  0.79971  0.30364  0.66677  1.0000
  C   C1428     1.0  0.82462  0.31670  0.61243  1.0000
  C   C1429     1.0  0.86925  0.32734  0.65835  1.0000
  C   C1430     1.0  0.79819  0.35884  0.66868  1.0000
  C   C1431     1.0  0.76701  0.16598  0.82469  1.0000
  C   C1432     1.0  0.79442  0.28638  0.68740  1.0000
  C   C1433     1.0  0.80840  0.31872  0.59556  1.0000
  C   C1434     1.0  0.89382  0.32147  0.64857  1.0000
  H   H2539     1.0  0.81983  0.35109  0.61836  1.0000
  H   H2540     1.0  0.79875  0.33579  0.63323  1.0000
  H   H2541     1.0  0.83141  0.34852  0.67586  1.0000
  H   H2542     1.0  0.82995  0.36567  0.64931  1.0000
  H   H2543     1.0  0.85788  0.34138  0.62669  1.0000
  H   H2544     1.0  0.85924  0.31172  0.63355  1.0000
  H   H2545     1.0  0.83534  0.29482  0.66066  1.0000
  H   H2546     1.0  0.82645  0.31152  0.68208  1.0000
  H   H2547     1.0  0.79858  0.29612  0.65183  1.0000
  H   H2548     1.0  0.78638  0.31824  0.66762  1.0000
  H   H2549     1.0  0.84133  0.31889  0.60269  1.0000
  H   H2550     1.0  0.82587  0.29954  0.62189  1.0000
  H   H2551     1.0  0.86521  0.31490  0.67334  1.0000
  H   H2552     1.0  0.86747  0.34408  0.66371  1.0000
  H   H2553     1.0  0.78787  0.36157  0.65499  1.0000
  H   H2554     1.0  0.79176  0.34629  0.68245  1.0000
  Fe  Fe155     1.0  0.79442  0.11691  0.76106  1.0000
  S   S314      1.0  0.75536  0.42212  0.77417  1.0000
  C   C1435     1.0  0.80260  0.26770  0.85859  1.0000
  H   H2555     1.0  0.80715  0.27115  0.68724  1.0000
  H   H2556     1.0  0.79390  0.29353  0.70301  1.0000
  H   H2557     1.0  0.77789  0.28131  0.68747  1.0000
  H   H2558     1.0  0.80720  0.33557  0.58526  1.0000
  H   H2559     1.0  0.81446  0.30590  0.58420  1.0000
  H   H2560     1.0  0.79156  0.31578  0.60433  1.0000
  H   H2561     1.0  0.89832  0.33338  0.63325  1.0000
  H   H2562     1.0  0.90465  0.32253  0.66106  1.0000
  H   H2563     1.0  0.89718  0.30413  0.64434  1.0000
  C   C1436     1.0  0.91189  0.17480  0.85492  1.0000
  H   H2564     1.0  0.97601  0.30840  0.72265  1.0000
  C   C1437     1.0  0.77542  0.46568  0.81614  1.0000
  H   H2565     1.0  0.77176  0.21377  0.70942  1.0000
  H   H2566     1.0  0.76093  0.48304  0.76548  1.0000
  C   C1438     1.0  0.79749  0.03853  0.70762  1.0000
  H   H2567     1.0  0.76397  0.28960  0.80700  1.0000
  C   C1439     1.0  0.75197  0.18987  0.49605  1.0000
  C   C1440     1.0  0.77472  0.05306  0.71371  1.0000
  C   C1441     1.0  0.77641  0.23106  0.77842  1.0000
  C   C1442     1.0  0.81605  0.04635  0.71682  1.0000
  H   H2568     1.0  0.77813  0.08276  0.67368  1.0000
  H   H2569     1.0  0.79096  0.22300  0.76776  1.0000
  H   H2570     1.0  0.75416  0.07692  0.63523  1.0000
  C   C1443     1.0  0.75111  0.15548  0.65708  1.0000
  H   H2571     1.0  0.78469  0.35176  0.89563  1.0000
  C   C1444     1.0  0.76159  0.46453  0.83993  1.0000
  H   H2572     1.0  0.96194  0.26666  0.65366  1.0000
  H   H2573     1.0  0.77373  0.24917  0.77160  1.0000
  H   H2574     1.0  0.78022  0.00773  0.69175  1.0000
  Fe  Fe156     1.0  0.74854  0.23977  0.88051  1.0000
  H   H2575     1.0  0.77760  0.22868  0.52269  1.0000
  S   S315      1.0  0.75660  0.36965  0.73817  1.0000
  C   C1445     1.0  0.75024  0.02544  0.71104  1.0000
  H   H2576     1.0  0.77105  0.04982  0.73229  1.0000
  C   C1446     1.0  0.96838  0.25141  0.66473  1.0000
  H   H2577     1.0  0.88364  0.19482  0.65751  1.0000
  H   H2578     1.0  0.76089  0.19786  0.69261  1.0000
  C   C1447     1.0  0.75950  0.05403  0.67808  1.0000
  H   H2579     1.0  0.74791  0.27487  0.62885  1.0000
  H   H2580     1.0  0.79672  0.02085  0.71537  1.0000
  H   H2581     1.0  0.77986  0.30858  0.84480  1.0000
  H   H2582     1.0  0.81229  0.04530  0.73537  1.0000
  H   H2583     1.0  0.74864  0.09066  0.67202  1.0000
  H   H2584     1.0  0.81796  0.06392  0.70941  1.0000
  H   H2585     1.0  0.89802  0.16457  0.85897  1.0000
  H   H2586     1.0  0.77634  0.15822  0.81066  1.0000
  H   H2587     1.0  0.81923  0.20935  0.95882  1.0000
  S   S316      1.0  0.76496  0.24766  0.90790  1.0000
  H   H2588     1.0  0.80239  0.03941  0.68924  1.0000
  N   N81       1.0  0.75534  0.04917  0.70339  1.0000
  H   H2589     1.0  0.76943  0.28914  0.63419  1.0000
  H   H2590     1.0  0.75554  0.19513  0.52935  1.0000
  C   C1448     1.0  0.99394  0.24693  0.66048  1.0000
  S   S317      1.0  0.75500  0.22433  0.63118  1.0000
  H   H2591     1.0  0.78386  0.06950  0.63667  1.0000
  C   C1449     1.0  0.75340  0.37956  0.85581  1.0000
  C   C1450     1.0  0.77822  0.99602  0.77168  1.0000
  C   C1451     1.0  0.76054  0.19625  0.84744  1.0000
  H   H2592     1.0  0.83218  0.03546  0.71264  1.0000
  C   C1452     1.0  0.76144  0.13710  0.67050  1.0000
  C   C1453     1.0  0.76205  0.00727  0.69630  1.0000
  C   C1454     1.0  0.76842  0.08079  0.64219  1.0000
  Fe  Fe157     1.0  0.75709  0.11809  0.80043  1.0000
  H   H2593     1.0  0.76095  0.11790  0.70342  1.0000
  C   C1455     1.0  0.74995  0.15577  0.83864  1.0000
  S   S318      1.0  0.76855  0.31086  0.89738  1.0000
  Fe  Fe158     1.0  0.74872  0.28303  0.89836  1.0000
  H   H2594     1.0  0.76594  0.17645  0.49514  1.0000
  H   H2595     1.0  0.99641  0.28204  0.65619  1.0000
  S   S319      1.0  0.74888  0.40634  0.84016  1.0000
  C   C1456     1.0  0.78662  0.25466  0.49501  1.0000
  Fe  Fe159     1.0  0.81388  0.57571  0.25207  1.0000
  S   S320      1.0  0.80735  0.55619  0.28633  1.0000
  S   S321      1.0  0.84736  0.57074  0.23054  1.0000
  H   H2596     1.0  0.75574  0.61205  0.18474  1.0000
  C   C1457     1.0  0.88776  0.67146  0.10611  1.0000
  Fe  Fe160     1.0  0.78823  0.58864  0.29612  1.0000
  S   S322      1.0  0.79268  0.59804  0.32913  1.0000
  Fe  Fe161     1.0  0.77546  0.55065  0.27603  1.0000
  S   S323      1.0  0.79750  0.60854  0.26252  1.0000
  S   S324      1.0  0.78371  0.56753  0.24067  1.0000
  Fe  Fe162     1.0  0.79235  0.71774  0.41832  1.0000
  H   H2597     1.0  0.86842  0.76203  0.40155  1.0000
  S   S325      1.0  0.77842  0.71021  0.45538  1.0000
  Fe  Fe163     1.0  0.83402  0.70816  0.38476  1.0000
  S   S326      1.0  0.81795  0.72707  0.35551  1.0000
  S   S327      1.0  0.86964  0.69029  0.38084  1.0000
  Fe  Fe164     1.0  0.80351  0.75275  0.37802  1.0000
  S   S328      1.0  0.80411  0.78919  0.36374  1.0000
  Fe  Fe165     1.0  0.78817  0.71033  0.37075  1.0000
  H   H2598     1.0  0.79917  0.82906  0.33076  1.0000
  S   S329      1.0  0.82228  0.73536  0.40617  1.0000
  S   S330      1.0  0.80526  0.68913  0.39844  1.0000
  Fe  Fe166     1.0  0.93027  0.64923  0.24385  1.0000
  S   S331      1.0  0.90407  0.67943  0.23933  1.0000
  S   S332      1.0  0.92594  0.61298  0.25400  1.0000
  H   H2599     1.0  0.90997  0.64536  0.12254  1.0000
  S   S333      1.0  0.94708  0.70833  0.22615  1.0000
  Fe  Fe167     1.0  0.92497  0.69533  0.25716  1.0000
  S   S334      1.0  0.90843  0.72049  0.27994  1.0000
  Fe  Fe168     1.0  0.92752  0.69046  0.20862  1.0000
  S   S335      1.0  0.91591  0.70809  0.17599  1.0000
  S   S336      1.0  0.94897  0.66405  0.26485  1.0000
  S   S337      1.0  0.95225  0.65879  0.21162  1.0000
  S   S338      1.0  0.80035  0.86084  0.19225  1.0000
  H   H2600     1.0  0.80190  0.87273  0.28563  1.0000
  Fe  Fe169     1.0  0.78326  0.74943  0.08450  1.0000
  S   S339      1.0  0.77423  0.72475  0.11525  1.0000
  S   S340      1.0  0.76928  0.75237  0.05165  1.0000
  Fe  Fe170     1.0  0.80351  0.77697  0.11078  1.0000
  S   S341      1.0  0.79631  0.75487  0.14317  1.0000
  S   S342      1.0  0.81994  0.80747  0.10899  1.0000
  Fe  Fe171     1.0  0.80819  0.72647  0.12366  1.0000
  S   S343      1.0  0.82604  0.69688  0.14445  1.0000
  Fe  Fe172     1.0  0.76316  0.75462  0.13293  1.0000
  H   H2601     1.0  0.94078  0.74015  0.36159  1.0000
  S   S344      1.0  0.81853  0.74856  0.09126  1.0000
  S   S345      1.0  0.76916  0.77952  0.10203  1.0000
  C   C1458     1.0  0.76618  0.74397  0.26815  1.0000
  H   H2602     1.0  0.81900  0.70200  0.30216  1.0000
  H   H2603     1.0  0.84314  0.70223  0.31518  1.0000
  H   H2604     1.0  0.83770  0.84415  0.11874  1.0000
  C   C1459     1.0  0.82438  0.52933  0.20557  1.0000
  C   C1460     1.0  0.76227  0.90146  0.29663  1.0000
  C   C1461     1.0  0.80390  0.84647  0.16890  1.0000
  C   C1462     1.0  0.79176  0.82912  0.16846  1.0000
  C   C1463     1.0  0.79657  0.81688  0.15019  1.0000
  C   C1464     1.0  0.81310  0.82234  0.13214  1.0000
  C   C1465     1.0  0.82487  0.83987  0.13255  1.0000
  C   C1466     1.0  0.82050  0.85166  0.15093  1.0000
  H   H2605     1.0  0.77910  0.82481  0.18240  1.0000
  H   H2606     1.0  0.78761  0.80319  0.15007  1.0000
  C   C1467     1.0  0.87424  0.72383  0.45041  1.0000
  C   C1468     1.0  0.88921  0.70733  0.16925  1.0000
  C   C1469     1.0  0.87383  0.69500  0.18349  1.0000
  C   C1470     1.0  0.85360  0.69313  0.17645  1.0000
  C   C1471     1.0  0.84876  0.70341  0.15512  1.0000
  C   C1472     1.0  0.86345  0.71692  0.14156  1.0000
  C   C1473     1.0  0.88364  0.71877  0.14857  1.0000
  H   H2607     1.0  0.87781  0.68639  0.19960  1.0000
  H   H2608     1.0  0.84200  0.68318  0.18727  1.0000
  H   H2609     1.0  0.85983  0.72505  0.12516  1.0000
  H   H2610     1.0  0.89534  0.72855  0.13758  1.0000
  C   C1474     1.0  0.78765  0.79712  0.34198  1.0000
  H   H2611     1.0  0.94006  0.72822  0.31274  1.0000
  H   H2612     1.0  0.96098  0.68569  0.30508  1.0000
  H   H2613     1.0  0.85624  0.72778  0.45708  1.0000
  C   C1475     1.0  0.89194  0.64873  0.12082  1.0000
  H   H2614     1.0  0.95431  0.71698  0.27712  1.0000
  H   H2615     1.0  0.78153  0.65852  0.37477  1.0000
  H   H2616     1.0  0.74725  0.94387  0.29618  1.0000
  C   C1476     1.0  0.77421  0.82453  0.31148  1.0000
  C   C1477     1.0  0.88243  0.69892  0.35352  1.0000
  C   C1478     1.0  0.87554  0.72036  0.34269  1.0000
  C   C1479     1.0  0.88395  0.72674  0.32021  1.0000
  C   C1480     1.0  0.89909  0.71164  0.30827  1.0000
  C   C1481     1.0  0.90673  0.69037  0.31923  1.0000
  C   C1482     1.0  0.89868  0.68418  0.34205  1.0000
  H   H2617     1.0  0.86374  0.73216  0.35168  1.0000
  H   H2618     1.0  0.87832  0.74334  0.31192  1.0000
  H   H2619     1.0  0.91869  0.67877  0.31013  1.0000
  H   H2620     1.0  0.90441  0.66776  0.35059  1.0000
  C   C1483     1.0  0.78723  0.62641  0.33303  1.0000
  C   C1484     1.0  0.91609  0.68583  0.42758  1.0000
  C   C1485     1.0  0.78793  0.59731  0.16985  1.0000
  C   C1486     1.0  0.77894  0.67154  0.34020  1.0000
  C   C1487     1.0  0.77974  0.66607  0.31870  1.0000
  C   C1488     1.0  0.78415  0.64356  0.31506  1.0000
  H   H2621     1.0  0.93101  0.60306  0.32581  1.0000
  H   H2622     1.0  0.79379  0.79200  0.02178  1.0000
  C   C1489     1.0  0.77027  0.96462  0.25241  1.0000
  H   H2623     1.0  0.78522  0.63943  0.29841  1.0000
  C   C1490     1.0  0.86843  0.58325  0.23758  1.0000
  C   C1491     1.0  0.86439  0.60506  0.24314  1.0000
  C   C1492     1.0  0.88216  0.61495  0.24720  1.0000
  C   C1493     1.0  0.90361  0.60253  0.24690  1.0000
  C   C1494     1.0  0.90739  0.58063  0.24188  1.0000
  C   C1495     1.0  0.89002  0.57125  0.23665  1.0000
  H   H2624     1.0  0.84770  0.61435  0.24418  1.0000
  H   H2625     1.0  0.87917  0.63185  0.25121  1.0000
  H   H2626     1.0  0.92394  0.57098  0.24172  1.0000
  H   H2627     1.0  0.89326  0.55447  0.23232  1.0000
  H   H2628     1.0  0.75639  0.90878  0.28033  1.0000
  C   C1496     1.0  0.75947  0.78939  0.32217  1.0000
  H   H2629     1.0  0.82531  0.52881  0.24046  1.0000
  C   C1497     1.0  0.77893  0.73937  0.02729  1.0000
  C   C1498     1.0  0.79792  0.72309  0.02551  1.0000
  H   H2630     1.0  0.91872  0.73048  0.35122  1.0000
  C   C1499     1.0  0.85820  0.59371  0.31776  1.0000
  H   H2631     1.0  0.80712  0.71766  0.03956  1.0000
  H   H2632     1.0  0.80452  0.60207  0.16218  1.0000
  S   S346      1.0  0.75558  0.58185  0.28861  1.0000
  Fe  Fe173     1.0  0.76721  0.86358  0.21492  1.0000
  C   C1500     1.0  0.75863  0.94788  0.24878  1.0000
  C   C1501     1.0  0.87795  0.69477  0.48286  1.0000
  S   S347      1.0  0.76428  0.51641  0.28791  1.0000
  C   C1502     1.0  0.87081  0.68410  0.44838  1.0000
  H   H2633     1.0  0.83799  0.50811  0.27414  1.0000
  C   C1503     1.0  0.87740  0.73217  0.42492  1.0000
  H   H2634     1.0  0.83207  0.50723  0.31490  1.0000
  C   C1504     1.0  0.86716  0.75679  0.41998  1.0000
  C   C1505     1.0  0.83556  0.66942  0.44509  1.0000
  H   H2635     1.0  0.87422  0.68610  0.42981  1.0000
  C   C1506     1.0  0.81791  0.73646  0.48824  1.0000
  C   C1507     1.0  0.84497  0.68704  0.45416  1.0000
  H   H2636     1.0  0.86940  0.72226  0.41583  1.0000
  C   C1508     1.0  0.94129  0.68559  0.42086  1.0000
  C   C1509     1.0  0.78636  0.63191  0.35454  1.0000
  H   H2637     1.0  0.80249  0.51100  0.31288  1.0000
  H   H2638     1.0  0.91267  0.66837  0.42874  1.0000
  H   H2639     1.0  0.90773  0.69615  0.41380  1.0000
  H   H2640     1.0  0.87618  0.76763  0.42699  1.0000
  H   H2641     1.0  0.78117  0.58951  0.15781  1.0000
  H   H2642     1.0  0.84921  0.75937  0.42731  1.0000
  C   C1510     1.0  0.77360  0.78272  0.33855  1.0000
  H   H2643     1.0  0.84156  0.65232  0.45326  1.0000
  H   H2644     1.0  0.81700  0.67234  0.44854  1.0000
  H   H2645     1.0  0.82030  0.89369  0.27907  1.0000
  H   H2646     1.0  0.76236  0.88320  0.29765  1.0000
  H   H2647     1.0  0.77716  0.67930  0.30482  1.0000
  C   C1511     1.0  0.88725  0.62528  0.32895  1.0000
  N   N82       1.0  0.83661  0.78159  0.20736  1.0000
  C   C1512     1.0  0.84567  0.78837  0.18306  1.0000
  C   C1513     1.0  0.81842  0.76746  0.20856  1.0000
  C   C1514     1.0  0.82578  0.80265  0.21703  1.0000
  C   C1515     1.0  0.85451  0.76946  0.22115  1.0000
  C   C1516     1.0  0.87496  0.75527  0.20893  1.0000
  C   C1517     1.0  0.86125  0.80661  0.17858  1.0000
  C   C1518     1.0  0.81266  0.79911  0.24113  1.0000
  C   C1519     1.0  0.82518  0.74556  0.19813  1.0000
  C   C1520     1.0  0.80491  0.73365  0.19992  1.0000
  C   C1521     1.0  0.88940  0.74112  0.22567  1.0000
  C   C1522     1.0  0.87522  0.80706  0.15533  1.0000
  C   C1523     1.0  0.80714  0.82094  0.25114  1.0000
  H   H2648     1.0  0.83168  0.79495  0.17317  1.0000
  H   H2649     1.0  0.85471  0.77369  0.17520  1.0000
  H   H2650     1.0  0.81137  0.76219  0.22629  1.0000
  H   H2651     1.0  0.80429  0.77765  0.20033  1.0000
  H   H2652     1.0  0.81388  0.81289  0.20611  1.0000
  H   H2653     1.0  0.83853  0.81348  0.21737  1.0000
  H   H2654     1.0  0.86170  0.78154  0.22858  1.0000
  H   H2655     1.0  0.84704  0.75832  0.23586  1.0000
  H   H2656     1.0  0.88571  0.76627  0.19718  1.0000
  H   H2657     1.0  0.87013  0.74386  0.19901  1.0000
  H   H2658     1.0  0.85101  0.82338  0.17938  1.0000
  H   H2659     1.0  0.87276  0.80392  0.19126  1.0000
  H   H2660     1.0  0.82232  0.78651  0.25251  1.0000
  H   H2661     1.0  0.79648  0.79341  0.24076  1.0000
  H   H2662     1.0  0.83210  0.74879  0.18010  1.0000
  H   H2663     1.0  0.83748  0.73377  0.20735  1.0000
  H   H2664     1.0  0.79901  0.72738  0.21771  1.0000
  H   H2665     1.0  0.79101  0.74509  0.19262  1.0000
  H   H2666     1.0  0.80971  0.71921  0.19045  1.0000
  H   H2667     1.0  0.89580  0.75191  0.23526  1.0000
  H   H2668     1.0  0.87976  0.72916  0.23754  1.0000
  H   H2669     1.0  0.90389  0.73138  0.21642  1.0000
  H   H2670     1.0  0.86424  0.80930  0.14218  1.0000
  H   H2671     1.0  0.88503  0.82123  0.15201  1.0000
  H   H2672     1.0  0.88701  0.79119  0.15433  1.0000
  H   H2673     1.0  0.79804  0.83421  0.23986  1.0000
  H   H2674     1.0  0.79633  0.81830  0.26757  1.0000
  H   H2675     1.0  0.82265  0.82661  0.25370  1.0000
  C   C1524     1.0  0.84846  0.62939  0.34748  1.0000
  C   C1525     1.0  0.85082  0.64421  0.36486  1.0000
  C   C1526     1.0  0.83741  0.63696  0.38759  1.0000
  C   C1527     1.0  0.85552  0.58105  0.29916  1.0000
  H   H2676     1.0  0.83878  0.62499  0.30712  1.0000
  H   H2677     1.0  0.83062  0.63188  0.34511  1.0000
  H   H2678     1.0  0.85187  0.61168  0.35559  1.0000
  H   H2679     1.0  0.84459  0.66210  0.35935  1.0000
  H   H2680     1.0  0.86847  0.64288  0.36747  1.0000
  H   H2681     1.0  0.82557  0.66764  0.32850  1.0000
  H   H2682     1.0  0.84460  0.59033  0.33185  1.0000
  H   H2683     1.0  0.81931  0.63909  0.38626  1.0000
  C   C1528     1.0  0.75385  0.67362  0.13907  1.0000
  H   H2684     1.0  0.83980  0.64743  0.39983  1.0000
  H   H2685     1.0  0.84033  0.58871  0.29145  1.0000
  H   H2686     1.0  0.87050  0.58115  0.28614  1.0000
  C   C1529     1.0  0.95646  0.75649  0.24976  1.0000
  C   C1530     1.0  0.79238  0.71614  0.47626  1.0000
  H   H2687     1.0  0.98975  0.68181  0.27263  1.0000
  C   C1531     1.0  0.81229  0.78952  0.01766  1.0000
  C   C1532     1.0  0.74856  0.93536  0.31362  1.0000
  H   H2688     1.0  0.94064  0.60489  0.20563  1.0000
  N   N83       1.0  0.97516  0.71611  0.30253  1.0000
  H   H2689     1.0  0.84672  0.69636  0.28667  1.0000
  H   H2690     1.0  0.75731  0.78254  0.22896  1.0000
  C   C1533     1.0  0.78686  0.90563  0.29467  1.0000
  H   H2691     1.0  0.83006  0.86488  0.15121  1.0000
  H   H2692     1.0  0.78212  0.66223  0.17509  1.0000
  H   H2693     1.0  0.84320  0.61917  0.39398  1.0000
  C   C1534     1.0  0.85654  0.61933  0.30961  1.0000
  C   C1535     1.0  0.83675  0.66893  0.31226  1.0000
  N   N84       1.0  0.86323  0.63280  0.32520  1.0000
  C   C1536     1.0  0.83648  0.69389  0.30348  1.0000
  H   H2694     1.0  0.82967  0.66152  0.30019  1.0000
  H   H2695     1.0  0.94431  0.59796  0.17766  1.0000
  H   H2696     1.0  0.97901  0.75809  0.27233  1.0000
  H   H2697     1.0  0.86791  0.66710  0.32486  1.0000
  H   H2698     1.0  0.90310  0.63755  0.29479  1.0000
  H   H2699     1.0  0.76540  0.93726  0.31686  1.0000
  C   C1537     1.0  0.78430  0.74689  0.28136  1.0000
  C   C1538     1.0  0.86084  0.65717  0.31491  1.0000
  H   H2700     1.0  0.87444  0.58653  0.32355  1.0000
  H   H2701     1.0  0.95359  0.77501  0.24528  1.0000
  H   H2702     1.0  0.88334  0.56426  0.14281  1.0000
  H   H2703     1.0  0.83980  0.79551  0.03328  1.0000
  H   H2704     1.0  0.77328  0.76653  0.34880  1.0000
  H   H2705     1.0  0.78027  0.73992  0.29935  1.0000
  C   C1539     1.0  0.90460  0.62245  0.30766  1.0000
  H   H2706     1.0  0.90222  0.60784  0.30025  1.0000
  C   C1540     1.0  0.82122  0.79858  0.03566  1.0000
  C   C1541     1.0  0.76762  0.69823  0.19784  1.0000
  H   H2707     1.0  0.89283  0.63745  0.33757  1.0000
  H   H2708     1.0  0.83267  0.52021  0.19145  1.0000
  H   H2709     1.0  0.87079  0.65925  0.29790  1.0000
  H   H2710     1.0  0.86634  0.62228  0.29261  1.0000
  C   C1542     1.0  0.90777  0.69442  0.45054  1.0000
  C   C1543     1.0  0.76750  0.50016  0.24760  1.0000
  H   H2711     1.0  0.85987  0.69940  0.48898  1.0000
  H   H2712     1.0  0.78582  0.76492  0.28009  1.0000
  C   C1544     1.0  0.86566  0.63224  0.18255  1.0000
  H   H2713     1.0  0.82921  0.74881  0.48429  1.0000
  H   H2714     1.0  0.87867  0.66407  0.15054  1.0000
  H   H2715     1.0  0.79256  0.90254  0.31134  1.0000
  H   H2716     1.0  0.80068  0.73788  0.27454  1.0000
  C   C1545     1.0  0.92848  0.61832  0.31323  1.0000
  H   H2717     1.0  0.94463  0.62646  0.18194  1.0000
  H   H2718     1.0  0.88904  0.60916  0.34055  1.0000
  H   H2719     1.0  0.91577  0.70946  0.45053  1.0000
  S   S348      1.0  0.74723  0.62598  0.23198  1.0000
  H   H2720     1.0  0.74856  0.84294  0.14014  1.0000
  H   H2721     1.0  0.94678  0.67873  0.40480  1.0000
  C   C1546     1.0  0.87191  0.56733  0.15849  1.0000
  H   H2722     1.0  0.77867  0.87152  0.33197  1.0000
  H   H2723     1.0  0.75618  0.65237  0.27613  1.0000
  H   H2724     1.0  0.76566  0.72569  0.26982  1.0000
  H   H2725     1.0  0.85387  0.56335  0.30618  1.0000
  H   H2726     1.0  0.89783  0.67084  0.08927  1.0000
  H   H2727     1.0  0.80968  0.74124  0.45463  1.0000
  Fe  Fe174     1.0  0.96966  0.67564  0.23221  1.0000
  H   H2728     1.0  0.90457  0.60037  0.19493  1.0000
  C   C1547     1.0  0.76111  0.87378  0.34046  1.0000
  H   H2729     1.0  0.83758  0.70371  0.44628  1.0000
  S   S349      1.0  0.77233  0.73738  0.39174  1.0000
  C   C1548     1.0  0.80693  0.73214  0.47139  1.0000
  H   H2730     1.0  0.83505  0.65155  0.17056  1.0000
  H   H2731     1.0  0.77447  0.84062  0.30099  1.0000
  H   H2732     1.0  0.86695  0.58759  0.18445  1.0000
  H   H2733     1.0  0.86875  0.61833  0.19633  1.0000
  H   H2734     1.0  0.89543  0.73117  0.41815  1.0000
  H   H2735     1.0  0.81845  0.77127  0.01918  1.0000
  H   H2736     1.0  0.79021  0.58473  0.18501  1.0000
  C   C1549     1.0  0.87687  0.64874  0.14394  1.0000
  H   H2737     1.0  0.96952  0.74945  0.23684  1.0000
  H   H2738     1.0  0.95054  0.67487  0.43389  1.0000
  H   H2739     1.0  0.93071  0.71436  0.37487  1.0000
  N   N85       1.0  0.88269  0.69947  0.45753  1.0000
  H   H2740     1.0  0.85940  0.65109  0.14031  1.0000
  H   H2741     1.0  0.90466  0.62813  0.20069  1.0000
  H   H2742     1.0  0.89584  0.58004  0.17267  1.0000
  C   C1550     1.0  0.95201  0.71193  0.34290  1.0000
  H   H2743     1.0  0.76965  0.70066  0.16230  1.0000
  H   H2744     1.0  0.77135  0.67680  0.13269  1.0000
  H   H2745     1.0  0.84075  0.67056  0.42671  1.0000
  H   H2746     1.0  0.86979  0.67595  0.10410  1.0000
  H   H2747     1.0  0.94055  0.61579  0.29781  1.0000
  H   H2748     1.0  0.91090  0.64360  0.16223  1.0000
  C   C1551     1.0  0.84026  0.63536  0.18085  1.0000
  H   H2749     1.0  0.86900  0.64724  0.18876  1.0000
  C   C1552     1.0  0.78248  0.65442  0.35808  1.0000
  C   C1553     1.0  0.96385  0.75026  0.27294  1.0000
  C   C1554     1.0  0.75865  0.98500  0.25877  1.0000
  H   H2750     1.0  0.87288  0.55157  0.17062  1.0000
  C   C1555     1.0  0.95637  0.72583  0.31927  1.0000
  H   H2751     1.0  0.78835  0.96178  0.25021  1.0000
  C   C1556     1.0  0.80489  0.71366  0.00548  1.0000
  C   C1557     1.0  0.90560  0.62664  0.16502  1.0000
  H   H2752     1.0  0.80812  0.64077  0.20202  1.0000
  H   H2753     1.0  0.85443  0.57194  0.15485  1.0000
  C   C1558     1.0  0.76805  0.63594  0.15588  1.0000
  H   H2754     1.0  0.82752  0.54701  0.20129  1.0000
  H   H2755     1.0  0.77133  0.75034  0.25033  1.0000
  H   H2756     1.0  0.81940  0.70085  0.00430  1.0000
  H   H2757     1.0  0.85177  0.51978  0.22446  1.0000
  H   H2758     1.0  0.78485  0.63944  0.14703  1.0000
  H   H2759     1.0  0.91545  0.68112  0.46301  1.0000
  H   H2760     1.0  0.83917  0.68515  0.47245  1.0000
  C   C1559     1.0  0.87789  0.60808  0.15222  1.0000
  H   H2761     1.0  0.93208  0.63298  0.31977  1.0000
  C   C1560     1.0  0.75964  0.81029  0.30867  1.0000
  N   N86       1.0  0.88149  0.62842  0.16128  1.0000
  H   H2762     1.0  0.76370  0.76116  0.46691  1.0000
  H   H2763     1.0  0.96740  0.70693  0.35079  1.0000
  C   C1561     1.0  0.75971  0.69249  0.17745  1.0000
  C   C1562     1.0  0.76354  0.66676  0.17764  1.0000
  H   H2764     1.0  0.83102  0.64738  0.21335  1.0000
  H   H2765     1.0  0.83602  0.62168  0.17334  1.0000
  H   H2766     1.0  0.95881  0.74290  0.32146  1.0000
  H   H2767     1.0  0.91703  0.61728  0.15245  1.0000
  H   H2768     1.0  0.94549  0.70287  0.41846  1.0000
  C   C1563     1.0  0.78811  0.81799  0.32828  1.0000
  H   H2769     1.0  0.88819  0.63584  0.11183  1.0000
  C   C1564     1.0  0.93683  0.61108  0.18834  1.0000
  H   H2770     1.0  0.89082  0.60472  0.13759  1.0000
  H   H2771     1.0  0.86173  0.61133  0.14544  1.0000
  C   C1565     1.0  0.76701  0.74597  0.00898  1.0000
  H   H2772     1.0  0.74824  0.77831  0.32013  1.0000
  C   C1566     1.0  0.82602  0.63553  0.20391  1.0000
  H   H2773     1.0  0.77122  0.87183  0.37336  1.0000
  C   C1567     1.0  0.91150  0.61613  0.18859  1.0000
  C   C1568     1.0  0.96896  0.72440  0.27936  1.0000
  N   N87       1.0  0.75343  0.65761  0.16078  1.0000
  H   H2774     1.0  0.95027  0.75783  0.28503  1.0000
  H   H2775     1.0  0.79883  0.89487  0.26203  1.0000
  C   C1569     1.0  0.87862  0.58585  0.16872  1.0000
  C   C1570     1.0  0.80286  0.89074  0.27942  1.0000
  H   H2776     1.0  0.98259  0.71863  0.26639  1.0000
  H   H2777     1.0  0.82775  0.61843  0.21363  1.0000
  H   H2778     1.0  0.87741  0.66630  0.45424  1.0000
  H   H2779     1.0  0.75619  0.65166  0.11347  1.0000
  H   H2780     1.0  0.81501  0.78994  0.05250  1.0000
  H   H2781     1.0  0.76349  0.90730  0.34461  1.0000
  H   H2782     1.0  0.89276  0.68475  0.11372  1.0000
  H   H2783     1.0  0.78876  0.61869  0.36850  1.0000
  H   H2784     1.0  0.88281  0.73471  0.45790  1.0000
  C   C1571     1.0  0.99524  0.67870  0.28935  1.0000
  H   H2785     1.0  0.78828  0.92332  0.28730  1.0000
  H   H2786     1.0  0.78563  0.69159  0.19799  1.0000
  H   H2787     1.0  0.98112  0.68362  0.32314  1.0000
  H   H2788     1.0  0.94537  0.69646  0.34165  1.0000
  S   S350      1.0  0.77170  0.69967  0.34462  1.0000
  H   H2789     1.0  0.76086  0.62783  0.14437  1.0000
  Fe  Fe175     1.0  0.76651  0.59906  0.25396  1.0000
  H   H2790     1.0  0.75949  0.68983  0.09295  1.0000
  H   H2791     1.0  0.77900  0.62425  0.18920  1.0000
  C   C1572     1.0  0.93450  0.72511  0.35856  1.0000
  H   H2792     1.0  0.76915  0.51703  0.23941  1.0000
  H   H2793     1.0  0.75791  0.69088  0.21358  1.0000
  S   S351      1.0  0.76411  0.87351  0.24932  1.0000
  H   H2794     1.0  0.76775  0.93235  0.24373  1.0000
  H   H2795     1.0  0.75200  0.75812  0.01048  1.0000
  C   C1573     1.0  0.97733  0.69084  0.30608  1.0000
  H   H2796     1.0  0.94056  0.75011  0.24973  1.0000
  H   H2797     1.0  0.88204  0.67643  0.48862  1.0000
  H   H2798     1.0  0.90812  0.70714  0.48917  1.0000
  S   S352      1.0  0.74911  0.83426  0.22706  1.0000
  H   H2799     1.0  0.98255  0.64664  0.29851  1.0000
  H   H2800     1.0  0.76516  0.71672  0.19711  1.0000
  H   H2801     1.0  0.99426  0.74272  0.30277  1.0000
  H   H2802     1.0  0.80603  0.52927  0.20771  1.0000
  H   H2803     1.0  0.76886  0.84524  0.36575  1.0000
  C   C1574     1.0  0.76124  0.86316  0.36495  1.0000
  H   H2804     1.0  0.81533  0.81684  0.03525  1.0000
  C   C1575     1.0  0.83364  0.51860  0.22723  1.0000
  H   H2805     1.0  0.75170  0.86405  0.33271  1.0000
  H   H2806     1.0  0.75404  0.97130  0.33445  1.0000
  H   H2807     1.0  0.79077  0.99128  0.20960  1.0000
  H   H2808     1.0  0.81068  0.50520  0.27046  1.0000
  H   H2809     1.0  0.75784  0.65885  0.19496  1.0000
  C   C1576     1.0  0.81751  0.49843  0.31557  1.0000
  C   C1577     1.0  0.75127  0.89911  0.33848  1.0000
  H   H2810     1.0  0.75411  0.68259  0.27423  1.0000
  C   C1578     1.0  0.77177  0.61781  0.17658  1.0000
  H   H2811     1.0  0.74908  0.81573  0.15732  1.0000
  H   H2812     1.0  0.74908  0.78979  0.19040  1.0000
  H   H2813     1.0  0.74788  0.75922  0.22129  1.0000
  Fe  Fe176     1.0  0.80105  0.77326  0.89560  1.0000
  S   S353      1.0  0.82875  0.75002  0.91102  1.0000
  S   S354      1.0  0.79937  0.80990  0.89769  1.0000
  Fe  Fe177     1.0  0.78212  0.73531  0.88269  1.0000
  S   S355      1.0  0.80790  0.70928  0.89760  1.0000
  C   C1579     1.0  0.96534  0.74089  0.83379  1.0000
  Fe  Fe178     1.0  0.80211  0.72878  0.92665  1.0000
  S   S356      1.0  0.80296  0.70916  0.96179  1.0000
  Fe  Fe179     1.0  0.83186  0.73277  0.88091  1.0000
  S   S357      1.0  0.86302  0.71854  0.86004  1.0000
  S   S358      1.0  0.77399  0.75315  0.91320  1.0000
  S   S359      1.0  0.80651  0.75783  0.86411  1.0000
  H   H2814     1.0  0.83607  0.73299  0.81889  1.0000
  H   H2815     1.0  0.75321  0.50911  0.81800  1.0000
  C   C1580     1.0  0.82079  0.76933  0.97358  1.0000
  S   S360      1.0  0.78458  0.86326  0.76236  1.0000
  C   C1581     1.0  0.79352  0.72108  0.98681  1.0000
  Fe  Fe180     1.0  0.78352  0.89364  0.73612  1.0000
  S   S361      1.0  0.80416  0.89561  0.70198  1.0000
  S   S362      1.0  0.78713  0.91697  0.75927  1.0000
  Fe  Fe181     1.0  0.91625  0.78752  0.75754  1.0000
  S   S363      1.0  0.94031  0.80796  0.73489  1.0000
  S   S364      1.0  0.90672  0.79467  0.79294  1.0000
  Fe  Fe182     1.0  0.90663  0.76569  0.71963  1.0000
  S   S365      1.0  0.93013  0.78446  0.69390  1.0000
  S   S366      1.0  0.88193  0.74459  0.71364  1.0000
  Fe  Fe183     1.0  0.95344  0.77645  0.72005  1.0000
  Fe  Fe184     1.0  0.91482  0.81412  0.71138  1.0000
  S   S367      1.0  0.90488  0.84888  0.69343  1.0000
  S   S368      1.0  0.93091  0.75525  0.74458  1.0000
  S   S369      1.0  0.88995  0.79589  0.73515  1.0000
  Fe  Fe185     1.0  0.83021  0.74457  0.60791  1.0000
  S   S370      1.0  0.84235  0.71308  0.59276  1.0000
  S   S371      1.0  0.85437  0.76467  0.61629  1.0000
  Fe  Fe186     1.0  0.78170  0.74333  0.60377  1.0000
  S   S372      1.0  0.78964  0.71129  0.58880  1.0000
  C   C1582     1.0  0.76770  0.97801  0.76944  1.0000
  Fe  Fe187     1.0  0.81265  0.70057  0.61508  1.0000
  S   S373      1.0  0.81848  0.66757  0.63754  1.0000
  Fe  Fe188     1.0  0.81853  0.72669  0.56779  1.0000
  S   S374      1.0  0.82994  0.72997  0.53012  1.0000
  S   S375      1.0  0.80202  0.73135  0.63187  1.0000
  S   S376      1.0  0.80903  0.75943  0.58121  1.0000
  C   C1583     1.0  0.81437  0.72499  0.51015  1.0000
  C   C1584     1.0  0.78613  0.59505  0.66934  1.0000
  H   H2816     1.0  0.82795  0.64236  0.86152  1.0000
  H   H2817     1.0  0.78585  0.53731  0.84872  1.0000
  C   C1585     1.0  0.79953  0.70925  0.51520  1.0000
  H   H2818     1.0  0.80244  0.54517  0.72574  1.0000
  H   H2819     1.0  0.95343  0.81708  0.78271  1.0000
  H   H2820     1.0  0.79694  0.70007  0.53195  1.0000
  C   C1586     1.0  0.75238  0.50683  0.69843  1.0000
  H   H2821     1.0  0.79183  0.66570  0.90928  1.0000
  H   H2822     1.0  0.78096  0.72407  0.69751  1.0000
  H   H2823     1.0  0.77978  0.96635  0.81334  1.0000
  C   C1587     1.0  0.77987  0.57105  0.67641  1.0000
  C   C1588     1.0  0.77359  0.67157  0.65310  1.0000
  C   C1589     1.0  0.79515  0.66221  0.65739  1.0000
  C   C1590     1.0  0.79816  0.64811  0.67759  1.0000
  C   C1591     1.0  0.77962  0.64358  0.69361  1.0000
  H   H2824     1.0  0.82048  0.92952  0.81666  1.0000
  H   H2825     1.0  0.81486  0.64078  0.68083  1.0000
  H   H2826     1.0  0.78202  0.63271  0.70913  1.0000
  C   C1592     1.0  0.87445  0.75008  0.68650  1.0000
  C   C1593     1.0  0.88929  0.75799  0.66805  1.0000
  C   C1594     1.0  0.88310  0.76202  0.64650  1.0000
  C   C1595     1.0  0.86215  0.75797  0.64326  1.0000
  C   C1596     1.0  0.84730  0.75000  0.66170  1.0000
  C   C1597     1.0  0.85337  0.74629  0.68329  1.0000
  H   H2827     1.0  0.90566  0.76071  0.67030  1.0000
  H   H2828     1.0  0.89468  0.76808  0.63226  1.0000
  H   H2829     1.0  0.83102  0.74710  0.65937  1.0000
  H   H2830     1.0  0.84171  0.74054  0.69756  1.0000
  H   H2831     1.0  0.79347  0.95641  0.83767  1.0000
  C   C1598     1.0  0.83216  0.88312  0.70165  1.0000
  C   C1599     1.0  0.83787  0.86228  0.71439  1.0000
  C   C1600     1.0  0.86022  0.85169  0.71226  1.0000
  C   C1601     1.0  0.87692  0.86205  0.69775  1.0000
  C   C1602     1.0  0.87115  0.88309  0.68542  1.0000
  C   C1603     1.0  0.84883  0.89347  0.68717  1.0000
  H   H2832     1.0  0.82499  0.85400  0.72528  1.0000
  H   H2833     1.0  0.86435  0.83532  0.72141  1.0000
  H   H2834     1.0  0.88392  0.89120  0.67410  1.0000
  H   H2835     1.0  0.84447  0.90955  0.67721  1.0000
  H   H2836     1.0  0.80177  0.57298  0.75138  1.0000
  C   C1604     1.0  0.77700  0.57393  0.71701  1.0000
  H   H2837     1.0  0.76519  0.74260  0.97471  1.0000
  H   H2838     1.0  0.77260  0.77754  0.74016  1.0000
  C   C1605     1.0  0.87475  0.73979  0.84119  1.0000
  C   C1606     1.0  0.88849  0.73463  0.82145  1.0000
  C   C1607     1.0  0.89790  0.75157  0.80623  1.0000
  C   C1608     1.0  0.89410  0.77353  0.81109  1.0000
  C   C1609     1.0  0.88040  0.77868  0.83085  1.0000
  C   C1610     1.0  0.87044  0.76188  0.84574  1.0000
  H   H2839     1.0  0.89169  0.71757  0.81786  1.0000
  H   H2840     1.0  0.90844  0.74751  0.79101  1.0000
  H   H2841     1.0  0.87737  0.79567  0.83463  1.0000
  H   H2842     1.0  0.85978  0.76593  0.86096  1.0000
  C   C1611     1.0  0.80229  0.82916  0.87287  1.0000
  H   H2843     1.0  0.85367  0.82918  0.56926  1.0000
  H   H2844     1.0  0.94143  0.73928  0.86442  1.0000
  N   N88       1.0  0.76646  0.56665  0.69941  1.0000
  C   C1612     1.0  0.79706  0.84240  0.83395  1.0000
  C   C1613     1.0  0.79597  0.82566  0.85291  1.0000
  H   H2845     1.0  0.89583  0.70778  0.52994  1.0000
  C   C1614     1.0  0.78762  0.70018  0.83822  1.0000
  N   N89       1.0  0.81266  0.79391  0.97446  1.0000
  H   H2846     1.0  0.80752  0.78266  0.63847  1.0000
  C   C1615     1.0  0.82037  0.80792  0.95249  1.0000
  C   C1616     1.0  0.76279  0.79058  0.82329  1.0000
  H   H2847     1.0  0.78271  0.49820  0.84500  1.0000
  H   H2848     1.0  0.78714  0.64908  0.86575  1.0000
  C   C1617     1.0  0.76500  0.70825  0.84413  1.0000
  C   C1618     1.0  0.77589  0.79436  0.95821  1.0000
  C   C1619     1.0  0.84318  0.81654  0.95002  1.0000
  C   C1620     1.0  0.85051  0.82650  0.92574  1.0000
  C   C1621     1.0  0.84642  0.76218  0.96976  1.0000
  S   S377      1.0  0.80747  0.88359  0.81180  1.0000
  H   H2849     1.0  0.78072  0.81449  0.98233  1.0000
  S   S378      1.0  0.75612  0.72571  0.86519  1.0000
  H   H2850     1.0  0.75107  0.79836  0.69522  1.0000
  H   H2851     1.0  0.82074  0.79858  0.93826  1.0000
  H   H2852     1.0  0.80815  0.82347  0.94939  1.0000
  H   H2853     1.0  0.79460  0.79109  0.74559  1.0000
  H   H2854     1.0  0.77026  0.77031  0.64861  1.0000
  H   H2855     1.0  0.81200  0.59245  0.72752  1.0000
  H   H2856     1.0  0.81451  0.76370  0.95979  1.0000
  H   H2857     1.0  0.77722  0.69255  0.50222  1.0000
  H   H2858     1.0  0.79556  0.55884  0.67477  1.0000
  H   H2859     1.0  0.78981  0.81031  0.85231  1.0000
  H   H2860     1.0  0.77583  0.78555  0.66857  1.0000
  H   H2861     1.0  0.78102  0.77738  0.95339  1.0000
  H   H2862     1.0  0.78002  0.80678  0.94332  1.0000
  H   H2863     1.0  0.84161  0.82998  0.96058  1.0000
  H   H2864     1.0  0.85669  0.80324  0.95522  1.0000
  H   H2865     1.0  0.85265  0.81358  0.91447  1.0000
  H   H2866     1.0  0.83789  0.84073  0.92011  1.0000
  H   H2867     1.0  0.86673  0.83273  0.92436  1.0000
  H   H2868     1.0  0.77380  0.87285  0.66517  1.0000
  C   C1622     1.0  0.76008  0.51659  0.77282  1.0000
  H   H2869     1.0  0.96307  0.77974  0.77087  1.0000
  H   H2870     1.0  0.87075  0.69699  0.52827  1.0000
  C   C1623     1.0  0.98928  0.71090  0.76949  1.0000
  H   H2871     1.0  0.78097  0.53461  0.82120  1.0000
  H   H2872     1.0  0.82907  0.56623  0.73571  1.0000
  H   H2873     1.0  0.76288  0.60242  0.96331  1.0000
  N   N90       1.0  0.85815  0.83367  0.64515  1.0000
  C   C1624     1.0  0.88129  0.84037  0.64074  1.0000
  C   C1625     1.0  0.84046  0.85407  0.64747  1.0000
  C   C1626     1.0  0.85628  0.81813  0.66720  1.0000
  C   C1627     1.0  0.85433  0.82124  0.62721  1.0000
  C   C1628     1.0  0.85531  0.83435  0.60317  1.0000
  C   C1629     1.0  0.90133  0.82102  0.64010  1.0000
  C   C1630     1.0  0.83298  0.81075  0.67618  1.0000
  C   C1631     1.0  0.84573  0.87671  0.63345  1.0000
  C   C1632     1.0  0.82497  0.89457  0.63428  1.0000
  C   C1633     1.0  0.74899  0.70169  0.83365  1.0000
  C   C1634     1.0  0.92358  0.83019  0.63374  1.0000
  C   C1635     1.0  0.83155  0.80040  0.70087  1.0000
  H   H2874     1.0  0.88312  0.85018  0.65388  1.0000
  H   H2875     1.0  0.88387  0.85181  0.62473  1.0000
  H   H2876     1.0  0.82430  0.85086  0.64359  1.0000
  H   H2877     1.0  0.83694  0.85744  0.66519  1.0000
  H   H2878     1.0  0.86144  0.82589  0.68031  1.0000
  H   H2879     1.0  0.86802  0.80228  0.66601  1.0000
  H   H2880     1.0  0.86631  0.80549  0.62671  1.0000
  H   H2881     1.0  0.83761  0.81565  0.63129  1.0000
  H   H2882     1.0  0.87116  0.84141  0.59771  1.0000
  H   H2883     1.0  0.84092  0.84805  0.60236  1.0000
  H   H2884     1.0  0.90177  0.81067  0.65682  1.0000
  H   H2885     1.0  0.90057  0.81010  0.62763  1.0000
  H   H2886     1.0  0.83018  0.79790  0.66655  1.0000
  H   H2887     1.0  0.81905  0.82485  0.67487  1.0000
  H   H2888     1.0  0.85875  0.88295  0.64034  1.0000
  H   H2889     1.0  0.85201  0.87523  0.61564  1.0000
  H   H2890     1.0  0.81816  0.89690  0.65189  1.0000
  H   H2891     1.0  0.82943  0.91082  0.62503  1.0000
  H   H2892     1.0  0.81828  0.67086  0.86621  1.0000
  C   C1636     1.0  0.82004  0.80170  0.99384  1.0000
  C   C1637     1.0  0.79495  0.64730  0.88118  1.0000
  H   H2893     1.0  0.82016  0.95797  0.80255  1.0000
  H   H2894     1.0  0.92541  0.84106  0.64593  1.0000
  H   H2895     1.0  0.93761  0.81604  0.63401  1.0000
  H   H2896     1.0  0.92474  0.83996  0.61663  1.0000
  H   H2897     1.0  0.83118  0.81348  0.71153  1.0000
  H   H2898     1.0  0.81610  0.79258  0.70607  1.0000
  H   H2899     1.0  0.84613  0.78727  0.70368  1.0000
  N   N91       1.0  0.83312  0.67712  0.72189  1.0000
  C   C1638     1.0  0.85470  0.67107  0.70666  1.0000
  C   C1639     1.0  0.82474  0.65604  0.73477  1.0000
  C   C1640     1.0  0.81600  0.68924  0.70714  1.0000
  C   C1641     1.0  0.83551  0.69278  0.73765  1.0000
  C   C1642     1.0  0.85292  0.68432  0.75387  1.0000
  C   C1643     1.0  0.86489  0.69089  0.69157  1.0000
  C   C1644     1.0  0.79121  0.69264  0.71861  1.0000
  C   C1645     1.0  0.84261  0.63606  0.74221  1.0000
  C   C1646     1.0  0.83238  0.61910  0.76071  1.0000
  C   C1647     1.0  0.85506  0.70270  0.76714  1.0000
  C   C1648     1.0  0.88663  0.68276  0.67705  1.0000
  H   H2900     1.0  0.75064  0.80501  0.85397  1.0000
  H   H2901     1.0  0.85209  0.65942  0.69547  1.0000
  H   H2902     1.0  0.86803  0.66182  0.71629  1.0000
  H   H2903     1.0  0.81263  0.66013  0.74978  1.0000
  H   H2904     1.0  0.81512  0.64898  0.72442  1.0000
  H   H2905     1.0  0.81655  0.68028  0.69260  1.0000
  H   H2906     1.0  0.82005  0.70623  0.69969  1.0000
  H   H2907     1.0  0.83936  0.70918  0.72810  1.0000
  H   H2908     1.0  0.81938  0.69683  0.74858  1.0000
  H   H2909     1.0  0.86972  0.67901  0.74476  1.0000
  H   H2910     1.0  0.84738  0.67022  0.76636  1.0000
  H   H2911     1.0  0.85333  0.70027  0.67995  1.0000
  H   H2912     1.0  0.86891  0.70234  0.70202  1.0000
  H   H2913     1.0  0.78921  0.70111  0.73360  1.0000
  H   H2914     1.0  0.78483  0.67636  0.72392  1.0000
  H   H2915     1.0  0.85010  0.62726  0.72762  1.0000
  H   H2916     1.0  0.85645  0.64129  0.74854  1.0000
  H   H2917     1.0  0.84518  0.60434  0.76449  1.0000
  H   H2918     1.0  0.82635  0.62674  0.77627  1.0000
  H   H2919     1.0  0.81819  0.61333  0.75546  1.0000
  H   H2920     1.0  0.86080  0.71741  0.75568  1.0000
  H   H2921     1.0  0.83877  0.70811  0.77723  1.0000
  H   H2922     1.0  0.89344  0.69744  0.66653  1.0000
  H   H2923     1.0  0.89930  0.67373  0.68768  1.0000
  H   H2924     1.0  0.88353  0.67155  0.66575  1.0000
  H   H2925     1.0  0.80616  0.76574  0.77261  1.0000
  Fe  Fe189     1.0  0.78449  0.88730  0.78611  1.0000
  H   H2926     1.0  0.79566  0.74753  0.82274  1.0000
  N   N92       1.0  0.86916  0.86333  0.78140  1.0000
  C   C1649     1.0  0.87091  0.87458  0.80105  1.0000
  C   C1650     1.0  0.85495  0.87888  0.76555  1.0000
  C   C1651     1.0  0.85779  0.84291  0.79070  1.0000
  C   C1652     1.0  0.89190  0.85555  0.76901  1.0000
  C   C1653     1.0  0.90630  0.87407  0.75808  1.0000
  C   C1654     1.0  0.88259  0.85962  0.82016  1.0000
  C   C1655     1.0  0.84929  0.83164  0.77356  1.0000
  C   C1656     1.0  0.85616  0.90441  0.76276  1.0000
  C   C1657     1.0  0.84916  0.91652  0.74047  1.0000
  C   C1658     1.0  0.92924  0.86418  0.74698  1.0000
  C   C1659     1.0  0.88405  0.87319  0.83851  1.0000
  C   C1660     1.0  0.84019  0.81009  0.78478  1.0000
  H   H2927     1.0  0.85387  0.88142  0.80875  1.0000
  H   H2928     1.0  0.87979  0.88929  0.79572  1.0000
  H   H2929     1.0  0.85873  0.87343  0.74870  1.0000
  H   H2930     1.0  0.83688  0.87772  0.77110  1.0000
  H   H2931     1.0  0.84311  0.84717  0.80347  1.0000
  H   H2932     1.0  0.86930  0.82965  0.79963  1.0000
  H   H2933     1.0  0.90184  0.84289  0.78013  1.0000
  H   H2934     1.0  0.89024  0.84661  0.75515  1.0000
  H   H2935     1.0  0.90912  0.88397  0.77064  1.0000
  H   H2936     1.0  0.89815  0.88529  0.74460  1.0000
  H   H2937     1.0  0.87303  0.84581  0.82829  1.0000
  H   H2938     1.0  0.89983  0.85229  0.81373  1.0000
  H   H2939     1.0  0.86298  0.82722  0.76021  1.0000
  H   H2940     1.0  0.83562  0.84284  0.76574  1.0000
  H   H2941     1.0  0.84467  0.91176  0.77664  1.0000
  H   H2942     1.0  0.87301  0.90824  0.76328  1.0000
  H   H2943     1.0  0.86192  0.91152  0.72630  1.0000
  H   H2944     1.0  0.83288  0.91236  0.73817  1.0000
  H   H2945     1.0  0.84759  0.93494  0.74000  1.0000
  H   H2946     1.0  0.92738  0.85610  0.73260  1.0000
  H   H2947     1.0  0.93957  0.87775  0.74042  1.0000
  H   H2948     1.0  0.93810  0.85173  0.75916  1.0000
  H   H2949     1.0  0.86704  0.88039  0.84587  1.0000
  H   H2950     1.0  0.89224  0.86207  0.85206  1.0000
  H   H2951     1.0  0.89410  0.88694  0.83165  1.0000
  H   H2952     1.0  0.85358  0.79773  0.79195  1.0000
  H   H2953     1.0  0.82612  0.81366  0.79835  1.0000
  H   H2954     1.0  0.83408  0.80255  0.77213  1.0000
  C   C1661     1.0  0.77340  0.53370  0.83911  1.0000
  C   C1662     1.0  0.94290  0.73561  0.84702  1.0000
  C   C1663     1.0  0.78852  0.70490  0.49830  1.0000
  H   H2955     1.0  0.79490  0.81162  0.63659  1.0000
  H   H2956     1.0  0.76290  0.91711  0.88952  1.0000
  H   H2957     1.0  0.84714  0.72931  0.99027  1.0000
  C   C1664     1.0  0.77613  0.70704  0.70248  1.0000
  H   H2958     1.0  0.77728  0.69916  0.68718  1.0000
  C   C1665     1.0  0.75696  0.83294  0.66595  1.0000
  C   C1666     1.0  0.81166  0.57447  0.73433  1.0000
  H   H2959     1.0  0.79626  0.99386  0.77035  1.0000
  H   H2960     1.0  0.80055  0.78350  0.79344  1.0000
  C   C1667     1.0  0.77203  0.78741  0.65126  1.0000
  H   H2961     1.0  0.77739  0.51376  0.77551  1.0000
  H   H2962     1.0  0.78988  0.79416  0.61739  1.0000
  H   H2963     1.0  0.92887  0.74617  0.83915  1.0000
  H   H2964     1.0  0.76792  0.97947  0.72309  1.0000
  H   H2965     1.0  0.81183  0.88971  0.62641  1.0000
  H   H2966     1.0  0.78723  0.92572  0.87108  1.0000
  H   H2967     1.0  0.77047  0.56818  0.66337  1.0000
  H   H2968     1.0  0.77610  0.81359  0.71525  1.0000
  C   C1668     1.0  0.78735  0.79734  0.97812  1.0000
  H   H2969     1.0  0.81502  0.85191  0.88900  1.0000
  H   H2970     1.0  0.78580  0.61626  0.96641  1.0000
  H   H2971     1.0  0.76216  0.69048  0.56292  1.0000
  C   C1669     1.0  0.88849  0.69742  0.52066  1.0000
  H   H2972     1.0  0.85327  0.76857  0.95229  1.0000
  N   N93       1.0  0.75930  0.65603  0.91052  1.0000
  H   H2973     1.0  0.78096  0.78554  0.99271  1.0000
  S   S379      1.0  0.76944  0.61809  0.75727  1.0000
  H   H2974     1.0  0.80447  0.73175  0.79975  1.0000
  H   H2975     1.0  0.78475  0.79685  0.55000  1.0000
  C   C1670     1.0  0.77084  0.93173  0.88053  1.0000
  C   C1671     1.0  0.77621  0.79184  0.74721  1.0000
  H   H2976     1.0  0.78637  0.93308  0.90953  1.0000
  H   H2977     1.0  0.77033  0.82832  0.73913  1.0000
  S   S380      1.0  0.75941  0.55862  0.78326  1.0000
  C   C1672     1.0  0.77973  0.60644  0.95557  1.0000
  H   H2978     1.0  0.97228  0.74470  0.76504  1.0000
  H   H2979     1.0  0.81168  0.67894  0.81805  1.0000
  H   H2980     1.0  0.78405  0.95895  0.89036  1.0000
  H   H2981     1.0  0.79172  0.83994  0.81868  1.0000
  H   H2982     1.0  0.77250  0.82282  0.67140  1.0000
  C   C1673     1.0  0.76811  0.86430  0.68220  1.0000
  H   H2983     1.0  0.83805  0.81159  0.59079  1.0000
  C   C1674     1.0  0.81219  0.86527  0.85458  1.0000
  H   H2984     1.0  0.77345  0.60875  0.92186  1.0000
  H   H2985     1.0  0.82781  0.65016  0.88869  1.0000
  H   H2986     1.0  0.77110  0.92669  0.81430  1.0000
  C   C1675     1.0  0.78865  0.95139  0.82278  1.0000
  H   H2987     1.0  0.86827  0.80564  0.58556  1.0000
  S   S381      1.0  0.78680  0.65839  0.79343  1.0000
  H   H2988     1.0  0.74915  0.81423  0.73269  1.0000
  H   H2989     1.0  0.77036  0.80639  0.77752  1.0000
  H   H2990     1.0  0.83158  0.76316  0.81448  1.0000
  H   H2991     1.0  0.84036  0.74793  0.79082  1.0000
  H   H2992     1.0  0.75841  0.54674  0.84071  1.0000
  H   H2993     1.0  0.80660  0.78981  0.52751  1.0000
  H   H2994     1.0  0.80012  0.70539  0.84594  1.0000
  C   C1676     1.0  0.99046  0.70745  0.74513  1.0000
  S   S382      1.0  0.74859  0.76593  0.60641  1.0000
  C   C1677     1.0  0.75802  0.65235  0.68899  1.0000
  H   H2995     1.0  0.76727  0.69458  0.92575  1.0000
  H   H2996     1.0  0.86753  0.69621  0.77879  1.0000
  C   C1678     1.0  0.79414  0.68521  0.82238  1.0000
  H   H2997     1.0  0.77758  0.67970  0.88694  1.0000
  H   H2998     1.0  0.95302  0.77828  0.80037  1.0000
  H   H2999     1.0  0.77769  0.96226  0.76633  1.0000
  H   H3000     1.0  0.79138  0.59047  0.95464  1.0000
  H   H3001     1.0  0.81860  0.88049  0.85532  1.0000
  H   H3002     1.0  0.98296  0.81153  0.77273  1.0000
  H   H3003     1.0  0.76190  0.50946  0.86638  1.0000
  C   C1679     1.0  0.78818  0.79319  0.53246  1.0000
  C   C1680     1.0  0.81024  0.84907  0.87363  1.0000
  C   C1681     1.0  0.81023  0.94390  0.80766  1.0000
  C   C1682     1.0  0.78087  0.66306  0.89748  1.0000
  H   H3004     1.0  0.89777  0.68011  0.52263  1.0000
  C   C1683     1.0  0.79615  0.76797  0.78923  1.0000
  H   H3005     1.0  0.78492  0.91794  0.83805  1.0000
  C   C1684     1.0  0.85370  0.81922  0.58623  1.0000
  H   H3006     1.0  0.80640  0.93888  0.79229  1.0000
  C   C1685     1.0  0.80531  0.74768  0.80571  1.0000
  H   H3007     1.0  0.74925  0.77551  0.85671  1.0000
  H   H3008     1.0  0.78010  0.78649  0.82735  1.0000
  C   C1686     1.0  0.80530  0.86218  0.83484  1.0000
  C   C1687     1.0  0.76738  0.81333  0.73271  1.0000
  C   C1688     1.0  0.82981  0.74806  0.80748  1.0000
  C   C1689     1.0  0.77807  0.67791  0.81260  1.0000
  H   H3009     1.0  0.79642  0.62943  0.88858  1.0000
  H   H3010     1.0  0.76156  0.74487  0.50782  1.0000
  C   C1690     1.0  0.96726  0.78188  0.78721  1.0000
  H   H3011     1.0  0.76076  0.80753  0.81332  1.0000
  H   H3012     1.0  0.95295  0.74135  0.80224  1.0000
  H   H3013     1.0  0.78272  0.53227  0.70434  1.0000
  C   C1691     1.0  0.79226  0.79454  0.63493  1.0000
  C   C1692     1.0  0.81866  0.65307  0.87401  1.0000
  C   C1693     1.0  0.74923  0.85107  0.68173  1.0000
  H   H3014     1.0  0.77121  0.68242  0.63749  1.0000
  C   C1694     1.0  0.77785  0.77272  0.53052  1.0000
  H   H3015     1.0  0.96570  0.75897  0.83353  1.0000
  C   C1695     1.0  0.75235  0.77602  0.53900  1.0000
  C   C1696     1.0  0.74988  0.80336  0.64732  1.0000
  H   H3016     1.0  0.77120  0.65157  0.94263  1.0000
  C   C1697     1.0  0.75471  0.89389  0.85462  1.0000
  C   C1698     1.0  0.77899  0.61955  0.93201  1.0000
  H   H3017     1.0  0.78805  0.59549  0.63330  1.0000
  H   H3018     1.0  0.80298  0.61526  0.64097  1.0000
  H   H3019     1.0  0.78253  0.85312  0.68883  1.0000
  H   H3020     1.0  0.96922  0.71605  0.81212  1.0000
  H   H3021     1.0  0.77097  0.60788  0.66989  1.0000
  H   H3022     1.0  0.75937  0.62796  0.89295  1.0000
  C   C1699     1.0  0.75042  0.79794  0.96409  1.0000
  H   H3023     1.0  0.97418  0.70425  0.77910  1.0000
  N   N94       1.0  0.77148  0.77062  0.78787  1.0000
  H   H3024     1.0  0.75848  0.70868  0.71076  1.0000
  H   H3025     1.0  0.79634  0.62258  0.92511  1.0000
  C   C1700     1.0  0.96850  0.73457  0.80981  1.0000
  H   H3026     1.0  0.79719  0.59859  0.68047  1.0000
  C   C1701     1.0  0.96944  0.80653  0.78624  1.0000
  C   C1702     1.0  0.80162  0.56323  0.71875  1.0000
  H   H3027     1.0  0.81242  0.56477  0.70226  1.0000
  Fe  Fe190     1.0  0.76073  0.64137  0.78333  1.0000
  C   C1703     1.0  0.77408  0.93226  0.82984  1.0000
  C   C1704     1.0  0.79865  0.59798  0.64544  1.0000
  H   H3028     1.0  0.75238  0.81388  0.63056  1.0000
  H   H3029     1.0  0.97303  0.80965  0.80254  1.0000
  C   C1705     1.0  0.76726  0.51033  0.84802  1.0000
  H   H3030     1.0  0.77584  0.59252  0.71459  1.0000
  H   H3031     1.0  0.78635  0.75805  0.54074  1.0000
  C   C1706     1.0  0.76332  0.64219  0.93278  1.0000
  H   H3032     1.0  0.81441  0.58592  0.64403  1.0000
  H   H3033     1.0  0.78137  0.80808  0.52118  1.0000
  C   C1707     1.0  0.76552  0.54184  0.70532  1.0000
  C   C1708     1.0  0.75501  0.66631  0.66873  1.0000
  H   H3034     1.0  0.84447  0.72944  0.96118  1.0000
  H   H3035     1.0  0.83851  0.80011  0.99205  1.0000
  H   H3036     1.0  0.75787  0.53768  0.72312  1.0000
  H   H3037     1.0  0.94138  0.71766  0.84777  1.0000
  C   C1709     1.0  0.77541  0.94442  0.89835  1.0000
  H   H3038     1.0  0.76753  0.56964  0.73395  1.0000
  H   H3039     1.0  0.76192  0.53329  0.67269  1.0000
  C   C1710     1.0  0.76538  0.79175  0.77206  1.0000
  H   H3040     1.0  0.75145  0.66706  0.86690  1.0000
  H   H3041     1.0  0.76200  0.87728  0.69338  1.0000
  H   H3042     1.0  0.76597  0.73057  0.54506  1.0000
  C   C1711     1.0  0.75896  0.98371  0.70827  1.0000
  H   H3043     1.0  0.81392  0.81995  0.99377  1.0000
  H   H3044     1.0  0.78164  0.77011  0.51271  1.0000
  C   C1712     1.0  0.75316  0.53174  0.69019  1.0000
  C   C1713     1.0  0.85251  0.73668  0.97269  1.0000
  C   C1714     1.0  0.77446  0.73724  0.98870  1.0000
  H   H3045     1.0  0.99114  0.68938  0.74422  1.0000
  H   H3046     1.0  0.76600  0.97121  0.69676  1.0000
  H   H3047     1.0  0.76749  0.89331  0.86551  1.0000
  S   S383      1.0  0.99025  0.76231  0.71259  1.0000
  H   H3048     1.0  0.99378  0.77061  0.80774  1.0000
  H   H3049     1.0  0.97548  0.71688  0.73800  1.0000
  C   C1715     1.0  0.76673  0.75019  0.77978  1.0000
  C   C1716     1.0  0.75754  0.77271  0.81049  1.0000
  H   H3050     1.0  0.77896  0.74610  0.76486  1.0000
  H   H3051     1.0  0.97878  0.73116  0.84310  1.0000
  H   H3052     1.0  0.76344  0.88965  0.83815  1.0000
  H   H3053     1.0  0.76924  0.73517  0.79277  1.0000
  C   C1717     1.0  0.75546  0.68633  0.81819  1.0000
  H   H3054     1.0  0.75004  0.63082  0.85471  1.0000
  H   H3055     1.0  0.75882  0.75634  0.82172  1.0000
  H   H3056     1.0  0.87091  0.73207  0.96876  1.0000
  C   C1718     1.0  0.75076  0.49908  0.76734  1.0000
  H   H3057     1.0  0.75954  0.95047  0.90875  1.0000
  Fe  Fe191     1.0  0.74981  0.92302  0.76543  1.0000
  H   H3058     1.0  0.76954  0.49735  0.69842  1.0000
  H   H3059     1.0  0.76216  0.84181  0.64883  1.0000
  H   H3060     1.0  0.74793  0.73983  0.56832  1.0000
  C   C1719     1.0  0.74984  0.69115  0.93111  1.0000
  H   H3061     1.0  0.75185  0.72842  0.74937  1.0000
  H   H3062     1.0  0.85480  0.76832  0.98169  1.0000
  H   H3063     1.0  0.76063  0.96355  0.86024  1.0000
  H   H3064     1.0  0.75153  0.85897  0.86651  1.0000
  C   C1720     1.0  0.75496  0.94681  0.86513  1.0000
  H   H3065     1.0  0.81366  0.75905  0.98902  1.0000
  H   H3066     1.0  0.99224  0.80147  0.73335  1.0000
  H   H3067     1.0  0.75065  0.77778  0.55704  1.0000
  C   C1721     1.0  0.98918  0.76640  0.79229  1.0000
  N   N95       1.0  0.98877  0.74154  0.79424  1.0000
  C   C1722     1.0  0.74812  0.73649  0.55094  1.0000
  N   N96       1.0  0.75204  0.93764  0.84461  1.0000
  C   C1723     1.0  0.98796  0.73609  0.77129  1.0000
  H   H3068     1.0  0.74838  0.68240  0.94865  1.0000
  C   C1724     1.0  0.74808  0.64303  0.89791  1.0000
  H   H3069     1.0  0.74703  0.63889  0.94301  1.0000
  C   C1725     1.0  0.74716  0.53765  0.77501  1.0000
  C   C1726     1.0  0.74829  0.50559  0.83642  1.0000
  H   H3070     1.0  0.74690  0.79588  0.77272  1.0000
  Fe  Fe192     1.0  0.74716  0.87271  0.76819  1.0000
  S   S384      1.0  0.74724  0.89473  0.79417  1.0000
  H   H3071     1.0  0.88216  0.72534  0.49504  1.0000
  C   C1727     1.0  0.89012  0.70753  0.49589  1.0000
  C   C1728     1.0  0.74699  0.79173  0.84541  1.0000
  H   H3072     1.0  0.74962  0.78697  0.49474  1.0000
