data_image0
_chemical_formula_structural       H2C2HCHSHCH10CH2C2H3CFeS2NCH3CH4CH2C2H2CH2C4HCH3CSH4CSHC2HCHCSH5C2H2CHCHNH2C2HCH3CHFeCHCH2CFeHC2SHFeH5C2H4CH3CHC3HCH4FeH2FeS2FeSHSH3CFeS2H3NHCHC2H3C2H2CHC2H2CHCHSC2HC3NH2C2H2CH2C3SH4CHCH2C2FeH3CH3C2HFeH2CHC2H6CH4CNCHCH2C2H3C2H8CH2CH7SH2CH2CH3CHC2HSHCH2CH2C2FeHCHC4H4CH2FeCH3C3H3CH7FeCSFeS2FeS2HCHC2HC2H2CSCH3SH3C2HCHCHCHCHCSC2H2CH3CHC3HCHSH3NHCH5CHC2HCH2C2H2CH4CHCSCHNC3H2SHCH7CH5C3FeC4HCNCH5CH2NCH5CH7CH5CHC2H6CH5CH6CHCH3CH2SHCH3CH2S2H2FeS2H2FeS2FeSCFeHFeS3FeS2FeS2FeSFeS3FeS2FeS2FeSFeS3HCHFeSCFeS2FeSFeCS2HC6H4C6HNH2C6H4C6H5C2H7C6H4SC2H2CH3C6H5C3H8CH2CH3CHC2H3C2HCH9C2HNC11H25NCHCNHCHC4H3CH11CH3C3HCSHCHC4H8CH5CH3C2SHCH2CHC2H2NH2CHCH3CHCH5CH2C3H3NC7H9CHCH4NHCSH3NC3HCH9CHC2H3NH4SH3CH2CH3C2HCH2CH2C2H6CH2CHCHCH4CH3CHCH3CH2CH2CHC2H2C2H4CH4C3H3CHCH2CH4NHCH2C3H2SH2CH2CH2CH4C2H3CH9S2HCHFeS2FeS2FeHFeS3FeSHFeCHFeSFeS3FeS2FeS2FeSFeS3H2FeS2FeS2FeSFeS3C2H2C7H3C7HCH2C6H4C2H4C6H11C7H7C6H2CH5C2SH2NC3H2CHC2HCH6C2H9CH10C5H2CH3CHCSCHCHCH6CH2C2HC2H6CHCHC2H5C3H4CHCHCH6C2H3NH9CHCH10CHCH2C2HC2H6CH2C2NCH3CH2CH2SCHC2HCHCH2CHCH6CH3CH3CHCHCH9NCH2CHC4HC3H3CHCH4NH4CHFeCH2CH2CHC3NH2CH2C3NHCH2C2H2CHCHC2HCHNH2CHCH5C2H3CHCHCH3CH2C2H7CH3C2H4CH3CHC3H2CH6NH2CH2CHCHCHFeH16C2HFeHFeS2FeSFeSHSFeS2FeS2FeHCHCFeS3C6H6C7H5C2SH2CH2CH2CH4FeHCH4FeSHC2H2NH3CHCFeH4C2H2NH3CHCH2CHCH2CH2CNC4HC3HSH9FeH5SCH4C3H4C2H5CH2CHC2HSHCH2CH4C3H3CH2CH2CH3CH7CHC2H2CHCH2C3HSH5SFeS2FeHFeS3FeSFeS2FeSFeS2FeS2CH3SHC2HCH2CSCHC6H4C6H4C3HCHCH5C2HSH2CSH3CN2H2CH4CHCH3CH2C2H3CH3C3HCH3CHCH3SH5CHCHCH6CHCH4C3H4C2H4C4H7FeC3SH2NH2C2H3NH2CH3C2H2CH11CS2CH2CH2FeS2FeS2FeSFeS3FeS2H2CFeCH2SH6C2H2C2HC8H4CH2SHCHCHC6H4CHCH2SCFeHC3H2CHSCH2CHCH9CH2CH2C2H3CH4CH3CH2CH2NCH5NHCH5C5H4C2H2CHCSHCH5C2H2CH2CHFeHFeCH2CFeH3C3H5C2HSH4NH3CHCHC3HCH3CH3CHNFeS2FeS2C3H2FeS3FeS2FeS2FeHFeS3C6H4C2H7CH2CH4C6H7FeHCH3C2HCSH5CHCH2NC10HCH11CH6CHCH3CH3NC5HC4HC2H20C2HCH3SHCFeH2CH7CH2CSHNH3C2H5C3H9CH3CHCH5SNC2H4CHCH6CHC2H2C2SCH2FeS2FeS2FeSFeHS2FeS2FeS2FeHFeCS2FeS2FeS2FeSFeS3FeS2FeS2FeSFeS3FeS2H2CH3C8H4C6H4C4H4C2H3CH6C6H6C2H5C6H4C6H5NC12H28NC9HC2H17C2H2CH4CH2NH7C2H2C2HCH3C2H2C7H2C2H2CH11C2H12C2SH2CH2CH3C2H2CHC2HCHSNHC2H2CH3C4HCHFeH2C4H3CHCH3NHC2H6NCHCH2CH2NH5CH2CHC2HCH4CHCHCH4NC2H2CH9CHC2H11CH6C2H4CH2C2HCH2C3H2C2SH2C2H3CHSHSHCHCHC2H3CHFeCH3C2H5CHCHSHFeS2FeS2FeSFeHS2FeS2FeS2FeSFeS3FeS2FeS2FeSFeS3FeS2FeS2FeSHFeSFeCS2C6H6CHC2HC6H4C4H3C6H4C6H4C3H3CHC6H4CH5CHNC7H17C2H5CHNC6H2CH3CH4C2H4CH2SCSHNH7CSCHCHC2HC2H3C2H3C2HCH3CH10CHCHCH5SHCHCH2NCHCH2CH3CH2CH6NH2CH5CH4C5HCHCH8NHC2H2CH5CHCHCH7CH2C2H7CH4C2HCH4CH6CH5C3H2CH2NH4NC2H4C2HCHCH5C2H3CHNCHCHCHCHCH4CH7C3HC3H3CHCHC2HCH8FeH2CHC2H6SHCH4CH5FeS2FeS2HCHCHFeS2HC2H5C2H5C2H3SHC3H7CH3C2H3CH11C3SCNHC2SH2CH7CH7CH2CH2SHCHC2SHC3HCFeH6FeHC2H4FeCNC5HCH11SCNHNC4H2C2H3C3H2CH4CH4CH4CH3C3SHCH2CHSH2C2HCH2CH4C4H2CHC2H5CHSH2SHC2S2FeS2HS2CHCHC3H5C2H4C2HC5H2CFeHCHCH2C3H3SH3NHFeSH5C2H4CHFeHC4H3CH2C3HC2H5CH5CH2CSH3CHCH4C2H3CHC2H2CSNCHC2HC2HC2H2C3H4FeH2CNSCH2CH3SHCH5CH5C2H2C2H3CFeH2CHC2H4CH3SH2CHC2HCH4CHCNH6NHC3H3CFeS2HCHSH2CHC3HC2H3CH3C2H3C2H3NHC3H2CH5CH2CHCH3CSCH2CH2C2SC2HCH3CSHCHNH6CH2CHSHFeHCHCS2CH3CHC3H3CHCH5C2H2NC3HCH5CSCHCH3CHCH2C2FeCHCH2CHCH3C2HFeH3SCH3CH3
_chemical_formula_sum              "H2304 C1296 S288 Fe144 N72"
_cell_length_a       69.5599
_cell_length_b       69.9387
_cell_length_c       53.8642
_cell_angle_alpha    90.0342
_cell_angle_beta     90.0699
_cell_angle_gamma    116.548

_space_group_name_H-M_alt    "P 1"
_space_group_IT_number       1

loop_
  _space_group_symop_operation_xyz
  'x, y, z'

loop_
  _atom_site_type_symbol
  _atom_site_label
  _atom_site_symmetry_multiplicity
  _atom_site_fract_x
  _atom_site_fract_y
  _atom_site_fract_z
  _atom_site_occupancy
  H   H1        1.0  0.47330  0.06279  0.21950  1.0000
  H   H2        1.0  0.41537  0.13864  0.43336  1.0000
  C   C1        1.0  0.47594  0.16922  0.36270  1.0000
  C   C2        1.0  0.47528  0.19055  0.40066  1.0000
  H   H3        1.0  0.42313  0.00452  0.38229  1.0000
  C   C3        1.0  0.42491  0.04181  0.40026  1.0000
  H   H4        1.0  0.46338  0.06304  0.18865  1.0000
  S   S1        1.0  0.45341  0.09097  0.48535  1.0000
  H   H5        1.0  0.45900  0.15554  0.39624  1.0000
  C   C4        1.0  0.45508  0.17488  0.43976  1.0000
  H   H6        1.0  0.39432  0.04197  0.46416  1.0000
  H   H7        1.0  0.39662  0.01279  0.40767  1.0000
  H   H8        1.0  0.46175  0.19209  0.39155  1.0000
  H   H9        1.0  0.45544  0.17648  0.46021  1.0000
  H   H10       1.0  0.39904  0.15258  0.43578  1.0000
  H   H11       1.0  0.43159  0.17318  0.41107  1.0000
  H   H12       1.0  0.44230  0.04988  0.40498  1.0000
  H   H13       1.0  0.44850  0.21240  0.41242  1.0000
  H   H14       1.0  0.46982  0.21382  0.45458  1.0000
  H   H15       1.0  0.49139  0.18233  0.35632  1.0000
  C   C5        1.0  0.46494  0.22402  0.41782  1.0000
  H   H16       1.0  0.47610  0.10664  0.37638  1.0000
  H   H17       1.0  0.46235  0.17107  0.35409  1.0000
  C   C6        1.0  0.41459  0.15295  0.44128  1.0000
  C   C7        1.0  0.47441  0.16925  0.39099  1.0000
  H   H18       1.0  0.47448  0.22977  0.40049  1.0000
  H   H19       1.0  0.41516  0.15242  0.46187  1.0000
  H   H20       1.0  0.49179  0.11406  0.22485  1.0000
  C   C8        1.0  0.47607  0.21435  0.43538  1.0000
  Fe  Fe1       1.0  0.45237  0.11637  0.46112  1.0000
  S   S2        1.0  0.42142  0.11397  0.47691  1.0000
  S   S3        1.0  0.45831  0.11652  0.41993  1.0000
  N   N1        1.0  0.47474  0.19278  0.42852  1.0000
  C   C9        1.0  0.41397  0.01970  0.41224  1.0000
  H   H21       1.0  0.48787  0.16654  0.39837  1.0000
  H   H22       1.0  0.45508  0.15915  0.43654  1.0000
  H   H23       1.0  0.48640  0.18855  0.47912  1.0000
  C   C10       1.0  0.43312  0.17334  0.43155  1.0000
  H   H24       1.0  0.42301  0.04055  0.37975  1.0000
  H   H25       1.0  0.41749  0.05191  0.40728  1.0000
  H   H26       1.0  0.48259  0.01616  0.31800  1.0000
  H   H27       1.0  0.43101  0.18694  0.43944  1.0000
  C   C11       1.0  0.49667  0.01507  0.31110  1.0000
  H   H28       1.0  0.44142  0.01387  0.40739  1.0000
  H   H29       1.0  0.41592  0.02210  0.43261  1.0000
  C   C12       1.0  0.38740  0.02786  0.47572  1.0000
  C   C13       1.0  0.47079  0.07300  0.20533  1.0000
  H   H30       1.0  0.49011  0.20392  0.39310  1.0000
  H   H31       1.0  0.45949  0.07886  0.21276  1.0000
  C   C14       1.0  0.48498  0.12288  0.41162  1.0000
  H   H32       1.0  0.45300  0.23789  0.44660  1.0000
  H   H33       1.0  0.37489  0.00600  0.44479  1.0000
  C   C15       1.0  0.42400  0.00514  0.40295  1.0000
  C   C16       1.0  0.46347  0.24310  0.42992  1.0000
  C   C17       1.0  0.37648  0.00734  0.46472  1.0000
  C   C18       1.0  0.48924  0.11598  0.38873  1.0000
  H   H34       1.0  0.47521  0.15376  0.35644  1.0000
  C   C19       1.0  0.49220  0.09174  0.19828  1.0000
  H   H35       1.0  0.48891  0.10089  0.18339  1.0000
  H   H36       1.0  0.49237  0.17477  0.43774  1.0000
  H   H37       1.0  0.40264  0.21072  0.48344  1.0000
  C   C20       1.0  0.49429  0.19144  0.43905  1.0000
  S   S4        1.0  0.47345  0.14299  0.48601  1.0000
  H   H38       1.0  0.49316  0.22672  0.43579  1.0000
  H   H39       1.0  0.45634  0.25031  0.41665  1.0000
  H   H40       1.0  0.49741  0.07948  0.46440  1.0000
  H   H41       1.0  0.49900  0.14058  0.44499  1.0000
  C   C21       1.0  0.49989  0.19824  0.46667  1.0000
  S   S5        1.0  0.44757  0.17536  0.51083  1.0000
  H   H42       1.0  0.40978  0.17928  0.49016  1.0000
  C   C22       1.0  0.38839  0.03013  0.50162  1.0000
  C   C23       1.0  0.42960  0.06067  0.60608  1.0000
  H   H43       1.0  0.37861  0.01284  0.53603  1.0000
  C   C24       1.0  0.43731  0.05855  0.57969  1.0000
  H   H44       1.0  0.43230  0.03398  0.53455  1.0000
  C   C25       1.0  0.42808  0.08172  0.60878  1.0000
  S   S6        1.0  0.40044  0.05574  0.51687  1.0000
  H   H45       1.0  0.45172  0.02575  0.54533  1.0000
  H   H46       1.0  0.41616  0.08233  0.59545  1.0000
  H   H47       1.0  0.48108  0.04614  0.51636  1.0000
  H   H48       1.0  0.41775  0.24822  0.54708  1.0000
  H   H49       1.0  0.44133  0.23145  0.55144  1.0000
  C   C26       1.0  0.42930  0.22831  0.56625  1.0000
  C   C27       1.0  0.47304  0.05656  0.51342  1.0000
  H   H50       1.0  0.47754  0.06671  0.59651  1.0000
  H   H51       1.0  0.42079  0.23395  0.61657  1.0000
  C   C28       1.0  0.44207  0.19771  0.50341  1.0000
  H   H52       1.0  0.48514  0.04964  0.57789  1.0000
  C   C29       1.0  0.49029  0.11437  0.57788  1.0000
  H   H53       1.0  0.48269  0.11293  0.61699  1.0000
  N   N2        1.0  0.43844  0.03790  0.57413  1.0000
  H   H54       1.0  0.46031  0.04942  0.49906  1.0000
  H   H55       1.0  0.45630  0.07078  0.53394  1.0000
  C   C30       1.0  0.45240  0.03349  0.59251  1.0000
  C   C31       1.0  0.42230  0.19519  0.49387  1.0000
  H   H56       1.0  0.42290  0.08310  0.62791  1.0000
  C   C32       1.0  0.46352  0.05974  0.53768  1.0000
  H   H57       1.0  0.44110  0.06053  0.62031  1.0000
  H   H58       1.0  0.47690  0.06790  0.55082  1.0000
  H   H59       1.0  0.48439  0.00386  0.67452  1.0000
  C   C33       1.0  0.44601  0.03819  0.54775  1.0000
  H   H60       1.0  0.45295  0.01826  0.58797  1.0000
  Fe  Fe2       1.0  0.47174  0.11740  0.51221  1.0000
  C   C34       1.0  0.42193  0.24625  0.56663  1.0000
  H   H61       1.0  0.44520  0.03094  0.61140  1.0000
  C   C35       1.0  0.41056  0.20651  0.56074  1.0000
  H   H62       1.0  0.41664  0.24273  0.65958  1.0000
  H   H63       1.0  0.47748  0.11815  0.57214  1.0000
  C   C36       1.0  0.43392  0.23421  0.49536  1.0000
  Fe  Fe3       1.0  0.42390  0.08971  0.50332  1.0000
  H   H64       1.0  0.41080  0.01705  0.59605  1.0000
  C   C37       1.0  0.37873  0.01141  0.51611  1.0000
  C   C38       1.0  0.48716  0.04633  0.61709  1.0000
  S   S7        1.0  0.44256  0.11583  0.53157  1.0000
  H   H65       1.0  0.40273  0.20695  0.54290  1.0000
  Fe  Fe4       1.0  0.44286  0.14041  0.50332  1.0000
  H   H66       1.0  0.41661  0.19429  0.55908  1.0000
  H   H67       1.0  0.41344  0.04760  0.61007  1.0000
  H   H68       1.0  0.39851  0.20170  0.57591  1.0000
  H   H69       1.0  0.45313  0.07262  0.57731  1.0000
  H   H70       1.0  0.43690  0.22735  0.58399  1.0000
  C   C39       1.0  0.45791  0.21878  0.50819  1.0000
  C   C40       1.0  0.45404  0.23683  0.50387  1.0000
  H   H71       1.0  0.47331  0.22117  0.51551  1.0000
  H   H72       1.0  0.42656  0.06093  0.56591  1.0000
  H   H73       1.0  0.48521  0.07232  0.50670  1.0000
  H   H74       1.0  0.44394  0.09554  0.60533  1.0000
  C   C41       1.0  0.47613  0.05042  0.59454  1.0000
  H   H75       1.0  0.40423  0.02444  0.56692  1.0000
  H   H76       1.0  0.47962  0.04810  0.63456  1.0000
  H   H77       1.0  0.48629  0.03009  0.61629  1.0000
  C   C42       1.0  0.41824  0.21318  0.49015  1.0000
  H   H78       1.0  0.40648  0.24009  0.57676  1.0000
  C   C43       1.0  0.41589  0.01991  0.57628  1.0000
  C   C44       1.0  0.49330  0.11149  0.60326  1.0000
  C   C45       1.0  0.42418  0.25069  0.62071  1.0000
  H   H79       1.0  0.48425  0.00312  0.75320  1.0000
  C   C46       1.0  0.49908  0.00213  0.67413  1.0000
  H   H80       1.0  0.45971  0.00371  0.74342  1.0000
  H   H81       1.0  0.45747  0.42531  0.44277  1.0000
  H   H82       1.0  0.19373  0.39547  0.32990  1.0000
  H   H83       1.0  0.03911  0.46218  0.44499  1.0000
  Fe  Fe5       1.0  0.34115  0.41808  0.48619  1.0000
  H   H84       1.0  0.20103  0.42360  0.33414  1.0000
  H   H85       1.0  0.35926  0.49273  0.42486  1.0000
  Fe  Fe6       1.0  0.34084  0.44593  0.44278  1.0000
  S   S8        1.0  0.35222  0.45232  0.40297  1.0000
  S   S9        1.0  0.31654  0.41360  0.45644  1.0000
  Fe  Fe7       1.0  0.47268  0.33665  0.47209  1.0000
  S   S10       1.0  0.44064  0.31274  0.45749  1.0000
  H   H86       1.0  0.30882  0.48835  0.31639  1.0000
  S   S11       1.0  0.40342  0.34288  0.46348  1.0000
  H   H87       1.0  0.44299  0.44746  0.40140  1.0000
  H   H88       1.0  0.06369  0.45043  0.30477  1.0000
  H   H89       1.0  0.41844  0.38320  0.42946  1.0000
  C   C47       1.0  0.04244  0.46525  0.38021  1.0000
  Fe  Fe8       1.0  0.12042  0.45598  0.46760  1.0000
  S   S12       1.0  0.12352  0.42787  0.45133  1.0000
  S   S13       1.0  0.11364  0.48181  0.44979  1.0000
  H   H90       1.0  0.08796  0.47522  0.30226  1.0000
  H   H91       1.0  0.06316  0.47340  0.28985  1.0000
  H   H92       1.0  0.39528  0.49209  0.28695  1.0000
  N   N3        1.0  0.16985  0.39967  0.40149  1.0000
  H   H93       1.0  0.13518  0.39550  0.43241  1.0000
  C   C48       1.0  0.12008  0.49111  0.41898  1.0000
  H   H94       1.0  0.04370  0.48672  0.41039  1.0000
  C   C49       1.0  0.13132  0.38147  0.42036  1.0000
  C   C50       1.0  0.40755  0.41494  0.42023  1.0000
  H   H95       1.0  0.19326  0.46606  0.41428  1.0000
  H   H96       1.0  0.43457  0.42621  0.37972  1.0000
  H   H97       1.0  0.44471  0.39478  0.41740  1.0000
  C   C51       1.0  0.17131  0.43718  0.39453  1.0000
  C   C52       1.0  0.17622  0.45811  0.40806  1.0000
  H   H98       1.0  0.47609  0.44299  0.41089  1.0000
  H   H99       1.0  0.15781  0.38615  0.34873  1.0000
  C   C53       1.0  0.46608  0.43522  0.39440  1.0000
  H   H100      1.0  0.01826  0.46285  0.40819  1.0000
  C   C54       1.0  0.01139  0.49009  0.28875  1.0000
  C   C55       1.0  0.18215  0.40087  0.37790  1.0000
  H   H101      1.0  0.46768  0.49670  0.20352  1.0000
  H   H102      1.0  0.00177  0.43230  0.37307  1.0000
  C   C56       1.0  0.31651  0.49096  0.37990  1.0000
  H   H103      1.0  0.38017  0.46466  0.29649  1.0000
  C   C57       1.0  0.44254  0.43153  0.39801  1.0000
  H   H104      1.0  0.18203  0.44141  0.37811  1.0000
  S   S14       1.0  0.06897  0.37698  0.47093  1.0000
  C   C58       1.0  0.37348  0.41268  0.40029  1.0000
  C   C59       1.0  0.41921  0.38302  0.38990  1.0000
  H   H105      1.0  0.47945  0.47730  0.30620  1.0000
  C   C60       1.0  0.18741  0.40748  0.33141  1.0000
  C   C61       1.0  0.38594  0.48311  0.37736  1.0000
  C   C62       1.0  0.37108  0.47884  0.39671  1.0000
  N   N4        1.0  0.42987  0.41623  0.41837  1.0000
  H   H106      1.0  0.43646  0.36345  0.38944  1.0000
  H   H107      1.0  0.38645  0.46998  0.36721  1.0000
  C   C63       1.0  0.48710  0.38776  0.40203  1.0000
  C   C64       1.0  0.42989  0.41241  0.46639  1.0000
  H   H108      1.0  0.39619  0.39940  0.42844  1.0000
  H   H109      1.0  0.40214  0.37977  0.38829  1.0000
  C   C65       1.0  0.48615  0.37364  0.42106  1.0000
  H   H110      1.0  0.06142  0.46511  0.42576  1.0000
  H   H111      1.0  0.47137  0.36490  0.43124  1.0000
  C   C66       1.0  0.03593  0.46935  0.40637  1.0000
  C   C67       1.0  0.13366  0.48604  0.40416  1.0000
  C   C68       1.0  0.42862  0.39429  0.41481  1.0000
  S   S15       1.0  0.32706  0.46427  0.46470  1.0000
  H   H112      1.0  0.39795  0.40828  0.38053  1.0000
  H   H113      1.0  0.03610  0.44116  0.42369  1.0000
  H   H114      1.0  0.17922  0.40753  0.31370  1.0000
  H   H115      1.0  0.35598  0.48114  0.29083  1.0000
  C   C69       1.0  0.41969  0.36139  0.38849  1.0000
  H   H116      1.0  0.47030  0.48627  0.24816  1.0000
  C   C70       1.0  0.44135  0.42502  0.44266  1.0000
  H   H117      1.0  0.46674  0.41993  0.39081  1.0000
  H   H118      1.0  0.40546  0.43524  0.39029  1.0000
  C   C71       1.0  0.39712  0.41821  0.39610  1.0000
  C   C72       1.0  0.01030  0.46451  0.35816  1.0000
  Fe  Fe9       1.0  0.30397  0.43229  0.48060  1.0000
  H   H119      1.0  0.20935  0.39610  0.40809  1.0000
  H   H120      1.0  0.42844  0.39269  0.37387  1.0000
  H   H121      1.0  0.39589  0.48464  0.31892  1.0000
  C   C73       1.0  0.14595  0.38721  0.39701  1.0000
  H   H122      1.0  0.40748  0.42732  0.43327  1.0000
  H   H123      1.0  0.47300  0.38972  0.39748  1.0000
  H   H124      1.0  0.16915  0.38849  0.43924  1.0000
  C   C74       1.0  0.17564  0.42172  0.41154  1.0000
  C   C75       1.0  0.37776  0.36362  0.45848  1.0000
  H   H125      1.0  0.17334  0.46911  0.39543  1.0000
  Fe  Fe10      1.0  0.09888  0.40852  0.48057  1.0000
  H   H126      1.0  0.29406  0.36782  0.47707  1.0000
  H   H127      1.0  0.14013  0.39577  0.38400  1.0000
  C   C76       1.0  0.37066  0.49586  0.40993  1.0000
  H   H128      1.0  0.19502  0.48273  0.22632  1.0000
  C   C77       1.0  0.47650  0.44987  0.37222  1.0000
  C   C78       1.0  0.04363  0.45878  0.42633  1.0000
  H   H129      1.0  0.10261  0.35805  0.40147  1.0000
  H   H130      1.0  0.33557  0.48435  0.34140  1.0000
  H   H131      1.0  0.16728  0.42060  0.42934  1.0000
  H   H132      1.0  0.44416  0.44192  0.44502  1.0000
  H   H133      1.0  0.15431  0.43024  0.38844  1.0000
  H   H134      1.0  0.22209  0.38786  0.44765  1.0000
  C   C79       1.0  0.49617  0.30525  0.16142  1.0000
  H   H135      1.0  0.03741  0.44781  0.37818  1.0000
  H   H136      1.0  0.16920  0.37046  0.41577  1.0000
  H   H137      1.0  0.11110  0.49915  0.25336  1.0000
  H   H138      1.0  0.49351  0.45278  0.37046  1.0000
  C   C80       1.0  0.02922  0.34332  0.46250  1.0000
  N   N5        1.0  0.03451  0.47347  0.35854  1.0000
  C   C81       1.0  0.36691  0.37550  0.46651  1.0000
  H   H139      1.0  0.03851  0.33609  0.45412  1.0000
  C   C82       1.0  0.04114  0.46628  0.33494  1.0000
  H   H140      1.0  0.32660  0.48661  0.39251  1.0000
  H   H141      1.0  0.26609  0.35011  0.47170  1.0000
  C   C83       1.0  0.03993  0.36392  0.47268  1.0000
  C   C84       1.0  0.06574  0.47555  0.33024  1.0000
  H   H142      1.0  0.47626  0.46554  0.37465  1.0000
  H   H143      1.0  0.01281  0.47693  0.27979  1.0000
  H   H144      1.0  0.40565  0.49081  0.15477  1.0000
  C   C85       1.0  0.49400  0.49220  0.30714  1.0000
  C   C86       1.0  0.07031  0.46812  0.30523  1.0000
  H   H145      1.0  0.42992  0.39655  0.46670  1.0000
  H   H146      1.0  0.30527  0.47645  0.36967  1.0000
  H   H147      1.0  0.19609  0.38009  0.46145  1.0000
  H   H148      1.0  0.13319  0.36903  0.43150  1.0000
  H   H149      1.0  0.03392  0.47039  0.31851  1.0000
  H   H150      1.0  0.03492  0.44861  0.33465  1.0000
  H   H151      1.0  0.41030  0.35086  0.40398  1.0000
  H   H152      1.0  0.06031  0.47276  0.38042  1.0000
  C   C87       1.0  0.00428  0.36105  0.48404  1.0000
  H   H153      1.0  0.32423  0.47756  0.30037  1.0000
  H   H154      1.0  0.26114  0.45350  0.46104  1.0000
  C   C88       1.0  0.04485  0.49769  0.35857  1.0000
  H   H155      1.0  0.07364  0.47022  0.34470  1.0000
  H   H156      1.0  0.19902  0.36492  0.43574  1.0000
  H   H157      1.0  0.16568  0.45509  0.42455  1.0000
  H   H158      1.0  0.36668  0.41629  0.38327  1.0000
  H   H159      1.0  0.18011  0.48210  0.25391  1.0000
  H   H160      1.0  0.14009  0.47563  0.41133  1.0000
  H   H161      1.0  0.36407  0.39543  0.40464  1.0000
  S   S16       1.0  0.36591  0.44911  0.47082  1.0000
  H   H162      1.0  0.22926  0.46044  0.45524  1.0000
  H   H163      1.0  0.35747  0.37958  0.45349  1.0000
  C   C89       1.0  0.17148  0.40196  0.35290  1.0000
  H   H164      1.0  0.49594  0.29981  0.18083  1.0000
  H   H165      1.0  0.18492  0.38640  0.37604  1.0000
  C   C90       1.0  0.22793  0.44734  0.46693  1.0000
  H   H166      1.0  0.09757  0.36818  0.43026  1.0000
  H   H167      1.0  0.20790  0.41204  0.43341  1.0000
  H   H168      1.0  0.41251  0.35338  0.37067  1.0000
  C   C91       1.0  0.38990  0.35774  0.47506  1.0000
  H   H169      1.0  0.29333  0.47460  0.27542  1.0000
  C   C92       1.0  0.20807  0.43455  0.47856  1.0000
  C   C93       1.0  0.20058  0.39575  0.42539  1.0000
  H   H170      1.0  0.16511  0.41388  0.35315  1.0000
  S   S17       1.0  0.18524  0.43996  0.47303  1.0000
  H   H171      1.0  0.19302  0.43015  0.41620  1.0000
  C   C94       1.0  0.17608  0.38774  0.42081  1.0000
  H   H172      1.0  0.37661  0.35880  0.43923  1.0000
  H   H173      1.0  0.49484  0.49481  0.23063  1.0000
  C   C95       1.0  0.20459  0.38120  0.44366  1.0000
  H   H174      1.0  0.14247  0.37175  0.38772  1.0000
  H   H175      1.0  0.46804  0.44231  0.35471  1.0000
  C   C96       1.0  0.24500  0.42648  0.48512  1.0000
  C   C97       1.0  0.13931  0.49489  0.38020  1.0000
  Fe  Fe11      1.0  0.42693  0.33113  0.48041  1.0000
  H   H176      1.0  0.47964  0.25553  0.43543  1.0000
  C   C98       1.0  0.02723  0.37281  0.48350  1.0000
  H   H177      1.0  0.19846  0.41471  0.37883  1.0000
  C   C99       1.0  0.10761  0.37256  0.41320  1.0000
  C   C100      1.0  0.24617  0.44342  0.47018  1.0000
  C   C101      1.0  0.00665  0.33178  0.46299  1.0000
  C   C102      1.0  0.36603  0.48540  0.30783  1.0000
  H   H178      1.0  0.07356  0.49324  0.33002  1.0000
  H   H179      1.0  0.00438  0.46981  0.37460  1.0000
  H   H180      1.0  0.37178  0.42228  0.41582  1.0000
  H   H181      1.0  0.41300  0.40988  0.46756  1.0000
  C   C103      1.0  0.38557  0.48155  0.30219  1.0000
  H   H182      1.0  0.14265  0.49683  0.23549  1.0000
  H   H183      1.0  0.15009  0.49121  0.36895  1.0000
  Fe  Fe12      1.0  0.14967  0.43402  0.48038  1.0000
  C   C104      1.0  0.19326  0.49267  0.24141  1.0000
  H   H184      1.0  0.35719  0.47439  0.32312  1.0000
  H   H185      1.0  0.30694  0.49677  0.39138  1.0000
  H   H186      1.0  0.10457  0.38478  0.40306  1.0000
  C   C105      1.0  0.30788  0.49022  0.27675  1.0000
  C   C106      1.0  0.32007  0.49107  0.30068  1.0000
  C   C107      1.0  0.27737  0.36417  0.48255  1.0000
  H   H187      1.0  0.48125  0.30689  0.15773  1.0000
  H   H188      1.0  0.42733  0.49642  0.19400  1.0000
  H   H189      1.0  0.49649  0.29286  0.14872  1.0000
  C   C108      1.0  0.48334  0.50011  0.23872  1.0000
  H   H190      1.0  0.00525  0.47097  0.34180  1.0000
  H   H191      1.0  0.10624  0.48961  0.22182  1.0000
  H   H192      1.0  0.31814  0.49193  0.26029  1.0000
  H   H193      1.0  0.44288  0.49875  0.23373  1.0000
  H   H194      1.0  0.27418  0.37798  0.47790  1.0000
  H   H195      1.0  0.43430  0.49560  0.41231  1.0000
  H   H196      1.0  0.20858  0.50007  0.25202  1.0000
  Fe  Fe13      1.0  0.43931  0.29335  0.49188  1.0000
  C   C109      1.0  0.48902  0.36403  0.57327  1.0000
  S   S18       1.0  0.32702  0.43441  0.51166  1.0000
  Fe  Fe14      1.0  0.45601  0.33397  0.52431  1.0000
  S   S19       1.0  0.42263  0.30972  0.51340  1.0000
  S   S20       1.0  0.46241  0.34743  0.56343  1.0000
  Fe  Fe15      1.0  0.12248  0.44178  0.52049  1.0000
  S   S21       1.0  0.12522  0.41229  0.50814  1.0000
  S   S22       1.0  0.12265  0.45004  0.56117  1.0000
  H   H197      1.0  0.16417  0.44238  0.55096  1.0000
  C   C110      1.0  0.42986  0.28389  0.57229  1.0000
  H   H198      1.0  0.41399  0.44645  0.55469  1.0000
  C   C111      1.0  0.23452  0.38394  0.56007  1.0000
  C   C112      1.0  0.00782  0.49176  0.67005  1.0000
  H   H199      1.0  0.43088  0.47469  0.55017  1.0000
  C   C113      1.0  0.45861  0.27433  0.56231  1.0000
  C   C114      1.0  0.42798  0.46877  0.67380  1.0000
  H   H200      1.0  0.43247  0.27086  0.65377  1.0000
  H   H201      1.0  0.48495  0.46738  0.59214  1.0000
  C   C115      1.0  0.46522  0.43443  0.63979  1.0000
  S   S23       1.0  0.47227  0.31666  0.50507  1.0000
  C   C116      1.0  0.39091  0.36390  0.49998  1.0000
  H   H202      1.0  0.42719  0.28475  0.55203  1.0000
  H   H203      1.0  0.02944  0.47886  0.68117  1.0000
  H   H204      1.0  0.41730  0.45578  0.63752  1.0000
  S   S24       1.0  0.45941  0.35598  0.49260  1.0000
  H   H205      1.0  0.43543  0.42834  0.62053  1.0000
  H   H206      1.0  0.22368  0.40041  0.50807  1.0000
  H   H207      1.0  0.39548  0.29324  0.55776  1.0000
  C   C117      1.0  0.26433  0.37236  0.56081  1.0000
  C   C118      1.0  0.18196  0.44878  0.55061  1.0000
  H   H208      1.0  0.46213  0.44013  0.65786  1.0000
  C   C119      1.0  0.00288  0.44400  0.61915  1.0000
  H   H209      1.0  0.48726  0.40403  0.49636  1.0000
  C   C120      1.0  0.38234  0.47704  0.55274  1.0000
  H   H210      1.0  0.45746  0.43287  0.60110  1.0000
  C   C121      1.0  0.44283  0.26653  0.60419  1.0000
  H   H211      1.0  0.37239  0.46191  0.54390  1.0000
  C   C122      1.0  0.07027  0.48333  0.59972  1.0000
  H   H212      1.0  0.29423  0.33329  0.61764  1.0000
  C   C123      1.0  0.37963  0.37534  0.50814  1.0000
  S   S25       1.0  0.35238  0.39442  0.50329  1.0000
  C   C124      1.0  0.12845  0.48248  0.59341  1.0000
  C   C125      1.0  0.12560  0.47573  0.56855  1.0000
  H   H213      1.0  0.27674  0.34495  0.51362  1.0000
  H   H214      1.0  0.47942  0.38197  0.59871  1.0000
  C   C126      1.0  0.44696  0.45773  0.56802  1.0000
  H   H215      1.0  0.12845  0.47171  0.60783  1.0000
  H   H216      1.0  0.28914  0.39315  0.51924  1.0000
  H   H217      1.0  0.47311  0.30946  0.56022  1.0000
  C   C127      1.0  0.40916  0.28071  0.58612  1.0000
  H   H218      1.0  0.46513  0.47320  0.65252  1.0000
  C   C128      1.0  0.06212  0.46919  0.55766  1.0000
  C   C129      1.0  0.38509  0.49610  0.54142  1.0000
  C   C130      1.0  0.43047  0.45864  0.54985  1.0000
  H   H219      1.0  0.42551  0.45155  0.59899  1.0000
  C   C131      1.0  0.45858  0.41054  0.64233  1.0000
  H   H220      1.0  0.38017  0.37948  0.52756  1.0000
  S   S26       1.0  0.42715  0.25623  0.49166  1.0000
  H   H221      1.0  0.47925  0.29971  0.58854  1.0000
  H   H222      1.0  0.18775  0.44744  0.56944  1.0000
  H   H223      1.0  0.46311  0.46947  0.56165  1.0000
  N   N6        1.0  0.05799  0.46318  0.58482  1.0000
  H   H224      1.0  0.07971  0.47878  0.55435  1.0000
  C   C132      1.0  0.05873  0.45872  0.51212  1.0000
  H   H225      1.0  0.43413  0.45537  0.53071  1.0000
  H   H226      1.0  0.08884  0.46060  0.62131  1.0000
  H   H227      1.0  0.16938  0.47871  0.56291  1.0000
  H   H228      1.0  0.48431  0.40432  0.52958  1.0000
  H   H229      1.0  0.41205  0.45897  0.68235  1.0000
  C   C133      1.0  0.05395  0.45038  0.53877  1.0000
  H   H230      1.0  0.05415  0.43063  0.58479  1.0000
  C   C134      1.0  0.06634  0.44697  0.59020  1.0000
  C   C135      1.0  0.39237  0.47759  0.57567  1.0000
  H   H231      1.0  0.46646  0.25273  0.50783  1.0000
  C   C136      1.0  0.32285  0.49445  0.75162  1.0000
  H   H232      1.0  0.12311  0.48449  0.53081  1.0000
  H   H233      1.0  0.08765  0.49034  0.59491  1.0000
  C   C137      1.0  0.44136  0.42424  0.48991  1.0000
  C   C138      1.0  0.44249  0.46285  0.59479  1.0000
  H   H234      1.0  0.26307  0.37326  0.58133  1.0000
  H   H235      1.0  0.44596  0.44148  0.56684  1.0000
  C   C139      1.0  0.40119  0.29669  0.57726  1.0000
  H   H236      1.0  0.02764  0.43396  0.62248  1.0000
  H   H237      1.0  0.43278  0.41478  0.50644  1.0000
  H   H238      1.0  0.18662  0.47204  0.52276  1.0000
  H   H239      1.0  0.19195  0.40756  0.50267  1.0000
  C   C140      1.0  0.22512  0.41370  0.49670  1.0000
  H   H240      1.0  0.46555  0.26296  0.56545  1.0000
  C   C141      1.0  0.07899  0.42694  0.62022  1.0000
  S   S27       1.0  0.41757  0.49743  0.61616  1.0000
  C   C142      1.0  0.07387  0.44590  0.61709  1.0000
  H   H241      1.0  0.42831  0.44156  0.65598  1.0000
  N   N7        1.0  0.28678  0.37627  0.55372  1.0000
  C   C143      1.0  0.42995  0.25459  0.64824  1.0000
  C   C144      1.0  0.03408  0.45382  0.58923  1.0000
  C   C145      1.0  0.47688  0.29693  0.56825  1.0000
  H   H242      1.0  0.46201  0.40409  0.62492  1.0000
  H   H243      1.0  0.45409  0.48711  0.63492  1.0000
  S   S28       1.0  0.26740  0.42018  0.48971  1.0000
  H   H244      1.0  0.39000  0.46282  0.58449  1.0000
  C   C146      1.0  0.45276  0.47085  0.63835  1.0000
  H   H245      1.0  0.08487  0.42685  0.63937  1.0000
  H   H246      1.0  0.30147  0.41072  0.55717  1.0000
  H   H247      1.0  0.08072  0.45024  0.57854  1.0000
  H   H248      1.0  0.40005  0.35950  0.51307  1.0000
  H   H249      1.0  0.26777  0.40491  0.55364  1.0000
  H   H250      1.0  0.22946  0.39561  0.55206  1.0000
  H   H251      1.0  0.19409  0.48545  0.57787  1.0000
  C   C147      1.0  0.36759  0.38132  0.49151  1.0000
  H   H252      1.0  0.31397  0.48649  0.73448  1.0000
  H   H253      1.0  0.42901  0.48466  0.66908  1.0000
  H   H254      1.0  0.44275  0.47887  0.59444  1.0000
  H   H255      1.0  0.28299  0.32049  0.58848  1.0000
  H   H256      1.0  0.25711  0.35514  0.51456  1.0000
  C   C148      1.0  0.29028  0.35753  0.56226  1.0000
  C   C149      1.0  0.30256  0.39681  0.56585  1.0000
  C   C150      1.0  0.48053  0.47479  0.60804  1.0000
  Fe  Fe16      1.0  0.35055  0.46499  0.49409  1.0000
  C   C151      1.0  0.28993  0.37847  0.52597  1.0000
  C   C152      1.0  0.32661  0.40161  0.56464  1.0000
  C   C153      1.0  0.28975  0.35408  0.59077  1.0000
  C   C154      1.0  0.29487  0.33557  0.59719  1.0000
  H   H257      1.0  0.06961  0.48001  0.61990  1.0000
  C   C155      1.0  0.34085  0.42266  0.57769  1.0000
  N   N8        1.0  0.45720  0.46182  0.61482  1.0000
  C   C156      1.0  0.48764  0.49871  0.60230  1.0000
  H   H258      1.0  0.41416  0.31335  0.57857  1.0000
  H   H259      1.0  0.30570  0.35866  0.55478  1.0000
  H   H260      1.0  0.06439  0.41164  0.61701  1.0000
  H   H261      1.0  0.49674  0.29751  0.53662  1.0000
  H   H262      1.0  0.48913  0.47583  0.68595  1.0000
  C   C157      1.0  0.49278  0.37982  0.59134  1.0000
  H   H263      1.0  0.03582  0.46183  0.62939  1.0000
  H   H264      1.0  0.44889  0.28276  0.61260  1.0000
  N   N9        1.0  0.43803  0.26750  0.57695  1.0000
  C   C158      1.0  0.45293  0.43884  0.61816  1.0000
  H   H265      1.0  0.33208  0.40302  0.54518  1.0000
  H   H266      1.0  0.32956  0.38894  0.57368  1.0000
  H   H267      1.0  0.30160  0.36847  0.60058  1.0000
  H   H268      1.0  0.25241  0.35582  0.55581  1.0000
  H   H269      1.0  0.31127  0.33901  0.59072  1.0000
  C   C159      1.0  0.18709  0.48643  0.55972  1.0000
  H   H270      1.0  0.45621  0.26203  0.60657  1.0000
  H   H271      1.0  0.02549  0.43859  0.57881  1.0000
  H   H272      1.0  0.22223  0.36756  0.55524  1.0000
  H   H273      1.0  0.33891  0.43614  0.56910  1.0000
  H   H274      1.0  0.33680  0.42177  0.59773  1.0000
  H   H275      1.0  0.35796  0.42596  0.57591  1.0000
  H   H276      1.0  0.44120  0.40166  0.64677  1.0000
  C   C160      1.0  0.43046  0.45765  0.65043  1.0000
  H   H277      1.0  0.46791  0.40795  0.65761  1.0000
  H   H278      1.0  0.29840  0.39732  0.58571  1.0000
  H   H279      1.0  0.05454  0.47955  0.55209  1.0000
  H   H280      1.0  0.18608  0.43886  0.53755  1.0000
  H   H281      1.0  0.41260  0.28365  0.60627  1.0000
  C   C161      1.0  0.12555  0.48966  0.55000  1.0000
  H   H282      1.0  0.45525  0.27377  0.54197  1.0000
  C   C162      1.0  0.19242  0.47201  0.54186  1.0000
  C   C163      1.0  0.49826  0.30001  0.55704  1.0000
  H   H283      1.0  0.49921  0.40277  0.85779  1.0000
  H   H284      1.0  0.38751  0.29536  0.58896  1.0000
  H   H285      1.0  0.44478  0.25286  0.65226  1.0000
  H   H286      1.0  0.32442  0.48225  0.76353  1.0000
  H   H287      1.0  0.21004  0.47744  0.54110  1.0000
  H   H288      1.0  0.30633  0.38075  0.52093  1.0000
  C   C164      1.0  0.49610  0.40998  0.51411  1.0000
  H   H289      1.0  0.39587  0.26451  0.58323  1.0000
  H   H290      1.0  0.07630  0.46849  0.50939  1.0000
  H   H291      1.0  0.03635  0.44046  0.54029  1.0000
  H   H292      1.0  0.02764  0.46460  0.58157  1.0000
  H   H293      1.0  0.40901  0.25186  0.61785  1.0000
  C   C165      1.0  0.02822  0.49285  0.67444  1.0000
  H   H294      1.0  0.27354  0.35013  0.59825  1.0000
  H   H295      1.0  0.00080  0.45846  0.61458  1.0000
  H   H296      1.0  0.27765  0.34238  0.55445  1.0000
  H   H297      1.0  0.06173  0.44447  0.63111  1.0000
  H   H298      1.0  0.44069  0.47087  0.68757  1.0000
  H   H299      1.0  0.23536  0.38592  0.58057  1.0000
  C   C166      1.0  0.40539  0.49718  0.58723  1.0000
  H   H300      1.0  0.25463  0.38612  0.52911  1.0000
  C   C167      1.0  0.25643  0.38805  0.54956  1.0000
  H   H301      1.0  0.44200  0.30012  0.57788  1.0000
  H   H302      1.0  0.05308  0.44503  0.49897  1.0000
  H   H303      1.0  0.09173  0.42815  0.60696  1.0000
  C   C168      1.0  0.27408  0.35924  0.51026  1.0000
  H   H304      1.0  0.48280  0.44239  0.63637  1.0000
  H   H305      1.0  0.49106  0.47472  0.62359  1.0000
  S   S29       1.0  0.37252  0.49623  0.51292  1.0000
  H   H306      1.0  0.45816  0.42633  0.49031  1.0000
  C   C169      1.0  0.20693  0.41770  0.49359  1.0000
  H   H307      1.0  0.04611  0.49541  0.60371  1.0000
  H   H308      1.0  0.05032  0.46856  0.50767  1.0000
  H   H309      1.0  0.06194  0.43991  0.54165  1.0000
  C   C170      1.0  0.02644  0.44857  0.61649  1.0000
  H   H310      1.0  0.16459  0.49805  0.53117  1.0000
  H   H311      1.0  0.44138  0.44011  0.49093  1.0000
  S   S30       1.0  0.14765  0.46356  0.49430  1.0000
  S   S31       1.0  0.09500  0.43649  0.49524  1.0000
  H   H312      1.0  0.17657  0.50072  0.60337  1.0000
  H   H313      1.0  0.03505  0.38864  0.49150  1.0000
  Fe  Fe17      1.0  0.14288  0.69134  0.44967  1.0000
  S   S32       1.0  0.13731  0.71956  0.46097  1.0000
  S   S33       1.0  0.14664  0.68325  0.40971  1.0000
  H   H314      1.0  0.43658  0.66775  0.18780  1.0000
  H   H315      1.0  0.37978  0.55777  0.47814  1.0000
  Fe  Fe18      1.0  0.44630  0.57104  0.28830  1.0000
  S   S34       1.0  0.43134  0.53864  0.30657  1.0000
  S   S35       1.0  0.42546  0.57483  0.25722  1.0000
  Fe  Fe19      1.0  0.48299  0.58774  0.32697  1.0000
  S   S36       1.0  0.47078  0.55658  0.34749  1.0000
  C   C171      1.0  0.13266  0.58557  0.42159  1.0000
  Fe  Fe20      1.0  0.46481  0.54181  0.30951  1.0000
  H   H316      1.0  0.04711  0.67767  0.34022  1.0000
  Fe  Fe21      1.0  0.43842  0.55584  0.34297  1.0000
  S   S37       1.0  0.41521  0.54809  0.37511  1.0000
  S   S38       1.0  0.47958  0.57297  0.28876  1.0000
  S   S39       1.0  0.45090  0.58819  0.32500  1.0000
  Fe  Fe22      1.0  0.40256  0.60308  0.05830  1.0000
  S   S40       1.0  0.39582  0.57699  0.08667  1.0000
  S   S41       1.0  0.41371  0.59939  0.01937  1.0000
  Fe  Fe23      1.0  0.39147  0.62963  0.09496  1.0000
  S   S42       1.0  0.38365  0.60584  0.12577  1.0000
  S   S43       1.0  0.38353  0.65681  0.10300  1.0000
  Fe  Fe24      1.0  0.41330  0.60316  0.11461  1.0000
  S   S44       1.0  0.43855  0.60425  0.14301  1.0000
  Fe  Fe25      1.0  0.36676  0.58180  0.09602  1.0000
  S   S45       1.0  0.33391  0.55520  0.10358  1.0000
  S   S46       1.0  0.42257  0.62908  0.08542  1.0000
  S   S47       1.0  0.37212  0.60568  0.06596  1.0000
  Fe  Fe26      1.0  0.23272  0.60307  0.07380  1.0000
  S   S48       1.0  0.21783  0.62339  0.08873  1.0000
  S   S49       1.0  0.23331  0.59106  0.03447  1.0000
  Fe  Fe27      1.0  0.25284  0.60217  0.12394  1.0000
  S   S50       1.0  0.24074  0.62351  0.14258  1.0000
  S   S51       1.0  0.26999  0.58835  0.14810  1.0000
  Fe  Fe28      1.0  0.20964  0.60304  0.12351  1.0000
  S   S52       1.0  0.17742  0.59056  0.14401  1.0000
  Fe  Fe29      1.0  0.24997  0.64223  0.10708  1.0000
  S   S53       1.0  0.26544  0.67813  0.10280  1.0000
  S   S54       1.0  0.22125  0.58058  0.10664  1.0000
  S   S55       1.0  0.26530  0.62307  0.09043  1.0000
  H   H317      1.0  0.48965  0.55325  0.23444  1.0000
  C   C172      1.0  0.41631  0.53845  0.46072  1.0000
  H   H318      1.0  0.17486  0.51993  0.48057  1.0000
  Fe  Fe30      1.0  0.08601  0.53888  0.29731  1.0000
  S   S56       1.0  0.11686  0.53853  0.28570  1.0000
  C   C173      1.0  0.49468  0.71665  0.14229  1.0000
  Fe  Fe31      1.0  0.10845  0.57499  0.33450  1.0000
  S   S57       1.0  0.14107  0.57715  0.32621  1.0000
  S   S58       1.0  0.09761  0.58879  0.36685  1.0000
  Fe  Fe32      1.0  0.13109  0.57431  0.28576  1.0000
  S   S59       1.0  0.15829  0.59541  0.25949  1.0000
  Fe  Fe33      1.0  0.12481  0.54128  0.32628  1.0000
  C   C174      1.0  0.38574  0.54840  0.46657  1.0000
  S   S60       1.0  0.09928  0.57469  0.29419  1.0000
  S   S61       1.0  0.09317  0.53920  0.33775  1.0000
  H   H319      1.0  0.47067  0.65146  0.13044  1.0000
  C   C175      1.0  0.17273  0.59081  0.17651  1.0000
  C   C176      1.0  0.15171  0.57912  0.18571  1.0000
  C   C177      1.0  0.14702  0.57988  0.21111  1.0000
  C   C178      1.0  0.16326  0.59275  0.22754  1.0000
  C   C179      1.0  0.18432  0.60423  0.21839  1.0000
  C   C180      1.0  0.18911  0.60297  0.19318  1.0000
  H   H320      1.0  0.13891  0.56959  0.17304  1.0000
  H   H321      1.0  0.13075  0.57095  0.21781  1.0000
  H   H322      1.0  0.19705  0.61408  0.23096  1.0000
  H   H323      1.0  0.20544  0.61157  0.18663  1.0000
  C   C181      1.0  0.29059  0.69303  0.11707  1.0000
  C   C182      1.0  0.29515  0.68716  0.14030  1.0000
  C   C183      1.0  0.31474  0.70005  0.15214  1.0000
  C   C184      1.0  0.33022  0.71832  0.14043  1.0000
  C   C185      1.0  0.32575  0.72413  0.11709  1.0000
  C   C186      1.0  0.30580  0.71169  0.10563  1.0000
  H   H324      1.0  0.28336  0.67301  0.14940  1.0000
  N   N10       1.0  0.32951  0.64166  0.15574  1.0000
  H   H325      1.0  0.15713  0.58413  0.44480  1.0000
  H   H326      1.0  0.30222  0.71647  0.08781  1.0000
  C   C187      1.0  0.40299  0.68339  0.10583  1.0000
  C   C188      1.0  0.39708  0.69762  0.11793  1.0000
  C   C189      1.0  0.41143  0.71924  0.11967  1.0000
  C   C190      1.0  0.43145  0.72710  0.10820  1.0000
  C   C191      1.0  0.43766  0.71291  0.09622  1.0000
  C   C192      1.0  0.42347  0.69091  0.09531  1.0000
  H   H327      1.0  0.38122  0.69209  0.12574  1.0000
  H   H328      1.0  0.40677  0.72990  0.12969  1.0000
  H   H329      1.0  0.45314  0.71901  0.08716  1.0000
  H   H330      1.0  0.42792  0.67997  0.08554  1.0000
  C   C193      1.0  0.31564  0.56417  0.11501  1.0000
  C   C194      1.0  0.30855  0.55957  0.13955  1.0000
  C   C195      1.0  0.29404  0.56653  0.14915  1.0000
  C   C196      1.0  0.28604  0.57769  0.13414  1.0000
  C   C197      1.0  0.29238  0.58154  0.10921  1.0000
  C   C198      1.0  0.30751  0.57515  0.09979  1.0000
  H   H331      1.0  0.31458  0.55088  0.15126  1.0000
  H   H332      1.0  0.28915  0.56343  0.16837  1.0000
  H   H333      1.0  0.28613  0.58999  0.09743  1.0000
  H   H334      1.0  0.31268  0.57842  0.08066  1.0000
  H   H335      1.0  0.41890  0.72436  0.04857  1.0000
  C   C199      1.0  0.23147  0.60168  0.00508  1.0000
  C   C200      1.0  0.31017  0.64483  0.16324  1.0000
  H   H336      1.0  0.37762  0.68218  0.05492  1.0000
  H   H337      1.0  0.46301  0.51134  0.41712  1.0000
  H   H338      1.0  0.04711  0.50391  0.33920  1.0000
  H   H339      1.0  0.49456  0.61377  0.42684  1.0000
  H   H340      1.0  0.20680  0.65858  0.44957  1.0000
  H   H341      1.0  0.14383  0.56361  0.40549  1.0000
  H   H342      1.0  0.39165  0.62488  0.00441  1.0000
  C   C201      1.0  0.42958  0.58319  0.22551  1.0000
  C   C202      1.0  0.41176  0.58085  0.21104  1.0000
  C   C203      1.0  0.41414  0.58709  0.18582  1.0000
  C   C204      1.0  0.43442  0.59566  0.17463  1.0000
  C   C205      1.0  0.45221  0.59788  0.18907  1.0000
  C   C206      1.0  0.44985  0.59187  0.21435  1.0000
  H   H343      1.0  0.39598  0.57421  0.21941  1.0000
  H   H344      1.0  0.40027  0.58525  0.17506  1.0000
  H   H345      1.0  0.46799  0.60460  0.18069  1.0000
  H   H346      1.0  0.46376  0.59433  0.22534  1.0000
  S   S62       1.0  0.13933  0.52031  0.34119  1.0000
  C   C207      1.0  0.34254  0.71041  0.06147  1.0000
  C   C208      1.0  0.38797  0.69594  0.01736  1.0000
  H   H347      1.0  0.03317  0.64893  0.34173  1.0000
  H   H348      1.0  0.48798  0.52323  0.21056  1.0000
  C   C209      1.0  0.43277  0.53167  0.22481  1.0000
  H   H349      1.0  0.01924  0.59642  0.38558  1.0000
  H   H350      1.0  0.49361  0.59102  0.20201  1.0000
  H   H351      1.0  0.39107  0.68693  0.17809  1.0000
  C   C210      1.0  0.13371  0.65674  0.39834  1.0000
  C   C211      1.0  0.13953  0.65184  0.37509  1.0000
  C   C212      1.0  0.12898  0.63096  0.36532  1.0000
  C   C213      1.0  0.11214  0.61501  0.37850  1.0000
  C   C214      1.0  0.10620  0.62000  0.40159  1.0000
  C   C215      1.0  0.11719  0.64065  0.41166  1.0000
  H   H352      1.0  0.15227  0.66423  0.36460  1.0000
  H   H353      1.0  0.13362  0.62732  0.34743  1.0000
  H   H354      1.0  0.09316  0.60773  0.41181  1.0000
  H   H355      1.0  0.11282  0.64419  0.42965  1.0000
  H   H356      1.0  0.27927  0.64184  0.21584  1.0000
  C   C216      1.0  0.32753  0.63643  0.12835  1.0000
  C   C217      1.0  0.32567  0.65311  0.11069  1.0000
  C   C218      1.0  0.32408  0.64593  0.08362  1.0000
  H   H357      1.0  0.31320  0.62100  0.12508  1.0000
  H   H358      1.0  0.34148  0.63416  0.12173  1.0000
  H   H359      1.0  0.34136  0.60661  0.14341  1.0000
  H   H360      1.0  0.34002  0.66883  0.11196  1.0000
  H   H361      1.0  0.31121  0.65536  0.11503  1.0000
  H   H362      1.0  0.32156  0.65742  0.07146  1.0000
  H   H363      1.0  0.33915  0.64533  0.07790  1.0000
  H   H364      1.0  0.31041  0.62983  0.08102  1.0000
  C   C219      1.0  0.18104  0.55571  0.28766  1.0000
  H   H365      1.0  0.21161  0.57861  0.21807  1.0000
  H   H366      1.0  0.36369  0.66053  0.15030  1.0000
  C   C220      1.0  0.10920  0.69331  0.36860  1.0000
  H   H367      1.0  0.01571  0.58659  0.35422  1.0000
  H   H368      1.0  0.17718  0.53411  0.20334  1.0000
  H   H369      1.0  0.36233  0.62904  0.15885  1.0000
  C   C221      1.0  0.37812  0.68965  0.18705  1.0000
  H   H370      1.0  0.17972  0.70516  0.18565  1.0000
  C   C222      1.0  0.21190  0.56364  0.18341  1.0000
  C   C223      1.0  0.34843  0.60022  0.18040  1.0000
  H   H371      1.0  0.39933  0.69497  0.00354  1.0000
  H   H372      1.0  0.48760  0.60130  0.38308  1.0000
  H   H373      1.0  0.37398  0.53124  0.46784  1.0000
  C   C224      1.0  0.08335  0.72231  0.42468  1.0000
  C   C225      1.0  0.39891  0.52130  0.38349  1.0000
  H   H374      1.0  0.05108  0.54025  0.35526  1.0000
  C   C226      1.0  0.39552  0.51951  0.24324  1.0000
  H   H375      1.0  0.34888  0.67557  0.15040  1.0000
  H   H376      1.0  0.38680  0.55385  0.44703  1.0000
  H   H377      1.0  0.04427  0.57512  0.35997  1.0000
  H   H378      1.0  0.45734  0.54423  0.42145  1.0000
  H   H379      1.0  0.03750  0.54024  0.38372  1.0000
  H   H380      1.0  0.45327  0.56861  0.44968  1.0000
  H   H381      1.0  0.33370  0.52487  0.30633  1.0000
  H   H382      1.0  0.01810  0.50626  0.36069  1.0000
  H   H383      1.0  0.32576  0.56884  0.01038  1.0000
  C   C227      1.0  0.11728  0.51328  0.38551  1.0000
  C   C228      1.0  0.44088  0.52296  0.45304  1.0000
  H   H384      1.0  0.35026  0.69001  0.03832  1.0000
  N   N11       1.0  0.20084  0.66488  0.14983  1.0000
  C   C229      1.0  0.21225  0.65688  0.16777  1.0000
  C   C230      1.0  0.17835  0.64741  0.14553  1.0000
  C   C231      1.0  0.21270  0.66899  0.12539  1.0000
  C   C232      1.0  0.20044  0.68533  0.15834  1.0000
  C   C233      1.0  0.20014  0.68889  0.18682  1.0000
  C   C234      1.0  0.23677  0.67133  0.17064  1.0000
  C   C235      1.0  0.20193  0.67430  0.10296  1.0000
  C   C236      1.0  0.16350  0.63946  0.16850  1.0000
  C   C237      1.0  0.14174  0.62113  0.16154  1.0000
  C   C238      1.0  0.24548  0.66641  0.19457  1.0000
  C   C239      1.0  0.21718  0.68206  0.08076  1.0000
  H   H385      1.0  0.21030  0.64089  0.16167  1.0000
  H   H386      1.0  0.20482  0.65407  0.18646  1.0000
  H   H387      1.0  0.16955  0.65274  0.13215  1.0000
  H   H388      1.0  0.17911  0.63326  0.13685  1.0000
  H   H389      1.0  0.21529  0.65494  0.12007  1.0000
  H   H390      1.0  0.22909  0.68253  0.12722  1.0000
  H   H391      1.0  0.21476  0.69957  0.15128  1.0000
  H   H392      1.0  0.18643  0.68665  0.14995  1.0000
  H   H393      1.0  0.21592  0.69224  0.19517  1.0000
  H   H394      1.0  0.18786  0.67483  0.19653  1.0000
  H   H395      1.0  0.24543  0.66852  0.15483  1.0000
  H   H396      1.0  0.24072  0.68855  0.17057  1.0000
  H   H397      1.0  0.19703  0.68691  0.10782  1.0000
  H   H398      1.0  0.18753  0.65978  0.09679  1.0000
  H   H399      1.0  0.17053  0.63346  0.18324  1.0000
  H   H400      1.0  0.16018  0.65243  0.17599  1.0000
  H   H401      1.0  0.14383  0.60781  0.15279  1.0000
  H   H402      1.0  0.13183  0.61492  0.17852  1.0000
  H   H403      1.0  0.13300  0.62673  0.14843  1.0000
  H   H404      1.0  0.24186  0.64926  0.19518  1.0000
  H   H405      1.0  0.26316  0.67630  0.19538  1.0000
  H   H406      1.0  0.23821  0.67024  0.21102  1.0000
  H   H407      1.0  0.22212  0.66964  0.07498  1.0000
  H   H408      1.0  0.20898  0.68540  0.06484  1.0000
  H   H409      1.0  0.23179  0.69695  0.08548  1.0000
  N   N12       1.0  0.35585  0.51493  0.32405  1.0000
  C   C240      1.0  0.45642  0.51435  0.22861  1.0000
  H   H410      1.0  0.20006  0.67851  0.46263  1.0000
  C   C241      1.0  0.36703  0.53799  0.33247  1.0000
  N   N13       1.0  0.44884  0.52651  0.21122  1.0000
  H   H411      1.0  0.49045  0.73608  0.11308  1.0000
  C   C242      1.0  0.44808  0.51173  0.41044  1.0000
  H   H412      1.0  0.45150  0.51085  0.17770  1.0000
  C   C243      1.0  0.03258  0.50876  0.37171  1.0000
  C   C244      1.0  0.28556  0.64710  0.19683  1.0000
  C   C245      1.0  0.07724  0.73044  0.44829  1.0000
  C   C246      1.0  0.41645  0.73065  0.03047  1.0000
  H   H413      1.0  0.40231  0.52852  0.26062  1.0000
  H   H414      1.0  0.47776  0.66360  0.22223  1.0000
  H   H415      1.0  0.45005  0.51602  0.39041  1.0000
  C   C247      1.0  0.48203  0.56156  0.22368  1.0000
  H   H416      1.0  0.25188  0.67232  0.03318  1.0000
  H   H417      1.0  0.37694  0.53952  0.34930  1.0000
  H   H418      1.0  0.35507  0.54364  0.33823  1.0000
  H   H419      1.0  0.46184  0.52295  0.24664  1.0000
  H   H420      1.0  0.20272  0.53337  0.25863  1.0000
  H   H421      1.0  0.43931  0.53748  0.16255  1.0000
  H   H422      1.0  0.42742  0.50655  0.45521  1.0000
  H   H423      1.0  0.34069  0.52283  0.37299  1.0000
  H   H424      1.0  0.38221  0.73774  0.04488  1.0000
  H   H425      1.0  0.39214  0.52991  0.23012  1.0000
  H   H426      1.0  0.41447  0.52394  0.17920  1.0000
  C   C248      1.0  0.47431  0.50900  0.21834  1.0000
  H   H427      1.0  0.22075  0.62421  0.01869  1.0000
  H   H428      1.0  0.18282  0.57203  0.25310  1.0000
  H   H429      1.0  0.20909  0.54781  0.17588  1.0000
  C   C249      1.0  0.34014  0.51300  0.30363  1.0000
  C   C250      1.0  0.47662  0.67648  0.17340  1.0000
  C   C251      1.0  0.18292  0.54768  0.21656  1.0000
  H   H430      1.0  0.47054  0.60494  0.46610  1.0000
  C   C252      1.0  0.41123  0.51224  0.23178  1.0000
  S   S63       1.0  0.17012  0.69931  0.47640  1.0000
  H   H431      1.0  0.41871  0.56911  0.47383  1.0000
  C   C253      1.0  0.38914  0.72846  0.99901  1.0000
  H   H432      1.0  0.43979  0.54021  0.24249  1.0000
  C   C254      1.0  0.47362  0.67413  0.10166  1.0000
  C   C255      1.0  0.28188  0.68464  0.01227  1.0000
  C   C256      1.0  0.02800  0.52633  0.30449  1.0000
  C   C257      1.0  0.42770  0.52181  0.17017  1.0000
  H   H433      1.0  0.20829  0.72277  0.18383  1.0000
  H   H434      1.0  0.29317  0.66483  0.19622  1.0000
  H   H435      1.0  0.49447  0.68524  0.17237  1.0000
  H   H436      1.0  0.48289  0.69144  0.09766  1.0000
  H   H437      1.0  0.37184  0.68739  0.00857  1.0000
  H   H438      1.0  0.18338  0.54213  0.29519  1.0000
  H   H439      1.0  0.11704  0.58619  0.42279  1.0000
  H   H440      1.0  0.41401  0.50196  0.24556  1.0000
  C   C258      1.0  0.00352  0.56115  0.38267  1.0000
  H   H441      1.0  0.12198  0.56508  0.38911  1.0000
  H   H442      1.0  0.10183  0.57762  0.46349  1.0000
  H   H443      1.0  0.42901  0.54311  0.21392  1.0000
  H   H444      1.0  0.47211  0.68517  0.18778  1.0000
  H   H445      1.0  0.47266  0.56645  0.23655  1.0000
  C   C259      1.0  0.00759  0.52425  0.31101  1.0000
  H   H446      1.0  0.20165  0.56941  0.17315  1.0000
  H   H447      1.0  0.40102  0.58853  0.30857  1.0000
  H   H448      1.0  0.10127  0.50856  0.42084  1.0000
  C   C260      1.0  0.01956  0.58375  0.37343  1.0000
  C   C261      1.0  0.47118  0.65383  0.18341  1.0000
  S   S64       1.0  0.35477  0.73352  0.15575  1.0000
  H   H449      1.0  0.06784  0.69808  0.37662  1.0000
  C   C262      1.0  0.44378  0.52824  0.42488  1.0000
  H   H450      1.0  0.34914  0.71218  0.02247  1.0000
  H   H451      1.0  0.37281  0.71801  0.99165  1.0000
  C   C263      1.0  0.12863  0.56500  0.40785  1.0000
  H   H452      1.0  0.20510  0.56688  0.25898  1.0000
  C   C264      1.0  0.40781  0.55184  0.47597  1.0000
  C   C265      1.0  0.38189  0.55437  0.31311  1.0000
  H   H453      1.0  0.13131  0.72430  0.35324  1.0000
  H   H454      1.0  0.27557  0.68889  0.05072  1.0000
  N   N14       1.0  0.39325  0.71898  0.02246  1.0000
  H   H455      1.0  0.17904  0.62089  0.44637  1.0000
  H   H456      1.0  0.49461  0.67557  0.13196  1.0000
  C   C266      1.0  0.35006  0.66187  0.15953  1.0000
  H   H457      1.0  0.35901  0.65697  0.19746  1.0000
  C   C267      1.0  0.19585  0.70804  0.19255  1.0000
  H   H458      1.0  0.46344  0.70554  0.15833  1.0000
  H   H459      1.0  0.26475  0.70109  0.02899  1.0000
  H   H460      1.0  0.38402  0.71663  0.06120  1.0000
  C   C268      1.0  0.32956  0.62292  0.16960  1.0000
  H   H461      1.0  0.02556  0.66468  0.36239  1.0000
  C   C269      1.0  0.19372  0.66344  0.45172  1.0000
  H   H462      1.0  0.45574  0.52194  0.45879  1.0000
  H   H463      1.0  0.21176  0.57956  0.30220  1.0000
  H   H464      1.0  0.35960  0.59405  0.17340  1.0000
  H   H465      1.0  0.20120  0.51935  0.21711  1.0000
  H   H466      1.0  0.05386  0.60290  0.36752  1.0000
  C   C270      1.0  0.41798  0.50661  0.14825  1.0000
  H   H467      1.0  0.38326  0.53006  0.41269  1.0000
  H   H468      1.0  0.29598  0.63499  0.15140  1.0000
  C   C271      1.0  0.35680  0.66926  0.18653  1.0000
  C   C272      1.0  0.37938  0.72081  0.04292  1.0000
  C   C273      1.0  0.04262  0.58641  0.37334  1.0000
  H   H469      1.0  0.11164  0.51680  0.22848  1.0000
  H   H470      1.0  0.35761  0.50133  0.35945  1.0000
  H   H471      1.0  0.19203  0.58939  0.29651  1.0000
  N   N15       1.0  0.08304  0.68800  0.40542  1.0000
  C   C274      1.0  0.08371  0.66769  0.41372  1.0000
  C   C275      1.0  0.08153  0.69957  0.42853  1.0000
  C   C276      1.0  0.06406  0.68395  0.38877  1.0000
  C   C277      1.0  0.05557  0.66366  0.37204  1.0000
  C   C278      1.0  0.06505  0.65330  0.43113  1.0000
  C   C279      1.0  0.03936  0.66382  0.35297  1.0000
  C   C280      1.0  0.06195  0.63028  0.43178  1.0000
  H   H472      1.0  0.09898  0.67162  0.42393  1.0000
  H   H473      1.0  0.08426  0.65800  0.39770  1.0000
  H   H474      1.0  0.06595  0.69018  0.43817  1.0000
  H   H475      1.0  0.04996  0.68242  0.39994  1.0000
  H   H476      1.0  0.41014  0.51339  0.13535  1.0000
  H   H477      1.0  0.04726  0.64903  0.38342  1.0000
  H   H478      1.0  0.06856  0.66205  0.36185  1.0000
  H   H479      1.0  0.06882  0.65975  0.45030  1.0000
  H   H480      1.0  0.04959  0.65311  0.42564  1.0000
  C   C281      1.0  0.13975  0.51060  0.23000  1.0000
  H   H481      1.0  0.13478  0.70189  0.34148  1.0000
  C   C282      1.0  0.12821  0.61051  0.46478  1.0000
  H   H482      1.0  0.05909  0.62329  0.41282  1.0000
  H   H483      1.0  0.07632  0.62972  0.43994  1.0000
  H   H484      1.0  0.04788  0.62049  0.44357  1.0000
  H   H485      1.0  0.18921  0.57250  0.32287  1.0000
  N   N16       1.0  0.46686  0.67718  0.14861  1.0000
  H   H486      1.0  0.38618  0.51395  0.32854  1.0000
  C   C283      1.0  0.44292  0.66303  0.14841  1.0000
  S   S65       1.0  0.11790  0.66829  0.47501  1.0000
  H   H487      1.0  0.47202  0.64455  0.08626  1.0000
  H   H488      1.0  0.17641  0.51431  0.26620  1.0000
  H   H489      1.0  0.34858  0.51731  0.28541  1.0000
  N   N17       1.0  0.43709  0.53860  0.46933  1.0000
  C   C284      1.0  0.42989  0.66750  0.16906  1.0000
  C   C285      1.0  0.40666  0.65028  0.16928  1.0000
  C   C286      1.0  0.38998  0.57728  0.32252  1.0000
  H   H490      1.0  0.13117  0.57151  0.45795  1.0000
  C   C287      1.0  0.33060  0.50844  0.36180  1.0000
  H   H491      1.0  0.40328  0.52167  0.46014  1.0000
  H   H492      1.0  0.43576  0.66449  0.13046  1.0000
  H   H493      1.0  0.43939  0.64588  0.14937  1.0000
  H   H494      1.0  0.35446  0.58454  0.00620  1.0000
  H   H495      1.0  0.10018  0.73381  0.42024  1.0000
  H   H496      1.0  0.47837  0.66577  0.06410  1.0000
  H   H497      1.0  0.06038  0.71977  0.45371  1.0000
  H   H498      1.0  0.16218  0.65201  0.46693  1.0000
  H   H499      1.0  0.45654  0.66964  0.09778  1.0000
  C   C288      1.0  0.18725  0.55950  0.25976  1.0000
  H   H500      1.0  0.14404  0.71189  0.37219  1.0000
  C   C289      1.0  0.18806  0.50990  0.23021  1.0000
  C   C290      1.0  0.35477  0.70733  0.03952  1.0000
  H   H501      1.0  0.42959  0.68303  0.16577  1.0000
  H   H502      1.0  0.39754  0.65381  0.18398  1.0000
  H   H503      1.0  0.39903  0.64992  0.15109  1.0000
  N   N18       1.0  0.14737  0.60592  0.46308  1.0000
  H   H504      1.0  0.31329  0.66154  0.15971  1.0000
  H   H505      1.0  0.08543  0.60232  0.45680  1.0000
  H   H506      1.0  0.02725  0.50241  0.39058  1.0000
  H   H507      1.0  0.06142  0.53641  0.38469  1.0000
  S   S66       1.0  0.46763  0.51157  0.30081  1.0000
  H   H508      1.0  0.40591  0.63433  0.17306  1.0000
  H   H509      1.0  0.12467  0.61542  0.44644  1.0000
  H   H510      1.0  0.17412  0.55697  0.21102  1.0000
  C   C291      1.0  0.47078  0.69982  0.14357  1.0000
  H   H511      1.0  0.36595  0.65155  0.02560  1.0000
  H   H512      1.0  0.33169  0.62615  0.18980  1.0000
  C   C292      1.0  0.38281  0.65965  0.03237  1.0000
  H   H513      1.0  0.38888  0.74400  0.00294  1.0000
  H   H514      1.0  0.40529  0.68940  0.04785  1.0000
  H   H515      1.0  0.31803  0.69594  0.17047  1.0000
  C   C293      1.0  0.15344  0.53024  0.24633  1.0000
  C   C294      1.0  0.45580  0.56056  0.46637  1.0000
  H   H516      1.0  0.10438  0.71759  0.38725  1.0000
  C   C295      1.0  0.08916  0.59889  0.47583  1.0000
  H   H517      1.0  0.16401  0.55232  0.29031  1.0000
  H   H518      1.0  0.47091  0.55927  0.46246  1.0000
  C   C296      1.0  0.13128  0.50869  0.37088  1.0000
  H   H519      1.0  0.37652  0.70284  0.17718  1.0000
  H   H520      1.0  0.14369  0.59913  0.41000  1.0000
  C   C297      1.0  0.11181  0.50462  0.40948  1.0000
  C   C298      1.0  0.38883  0.68267  0.04002  1.0000
  H   H521      1.0  0.47748  0.54418  0.18906  1.0000
  H   H522      1.0  0.11687  0.55083  0.41810  1.0000
  H   H523      1.0  0.08810  0.73123  0.46383  1.0000
  H   H524      1.0  0.46251  0.70058  0.12620  1.0000
  H   H525      1.0  0.33256  0.58636  0.18373  1.0000
  H   H526      1.0  0.41791  0.54471  0.44148  1.0000
  C   C299      1.0  0.49279  0.51167  0.30559  1.0000
  H   H527      1.0  0.38055  0.51825  0.29753  1.0000
  H   H528      1.0  0.00736  0.50304  0.21218  1.0000
  C   C300      1.0  0.10728  0.59221  0.47512  1.0000
  H   H529      1.0  0.21748  0.55615  0.22071  1.0000
  C   C301      1.0  0.48268  0.65514  0.20802  1.0000
  H   H530      1.0  0.39636  0.55196  0.30960  1.0000
  C   C302      1.0  0.14231  0.58614  0.44778  1.0000
  H   H531      1.0  0.29379  0.62125  0.19245  1.0000
  H   H532      1.0  0.39901  0.57947  0.34019  1.0000
  H   H533      1.0  0.49261  0.59923  0.47470  1.0000
  H   H534      1.0  0.28399  0.67021  0.01681  1.0000
  C   C303      1.0  0.26756  0.68688  0.03241  1.0000
  H   H535      1.0  0.42909  0.52797  0.41690  1.0000
  H   H536      1.0  0.11099  0.52383  0.37853  1.0000
  H   H537      1.0  0.04747  0.58361  0.39212  1.0000
  C   C304      1.0  0.30193  0.63893  0.19033  1.0000
  H   H538      1.0  0.49211  0.51272  0.25269  1.0000
  C   C305      1.0  0.47698  0.66915  0.12896  1.0000
  H   H539      1.0  0.18877  0.66660  0.43314  1.0000
  H   H540      1.0  0.14318  0.51399  0.20997  1.0000
  H   H541      1.0  0.38429  0.65067  0.04863  1.0000
  C   C306      1.0  0.34635  0.61539  0.16132  1.0000
  H   H542      1.0  0.47837  0.63877  0.21494  1.0000
  H   H543      1.0  0.09412  0.70096  0.44217  1.0000
  C   C307      1.0  0.33869  0.58503  0.00611  1.0000
  H   H544      1.0  0.34473  0.67324  0.19551  1.0000
  H   H545      1.0  0.07268  0.72248  0.40944  1.0000
  C   C308      1.0  0.19443  0.57556  0.30317  1.0000
  H   H546      1.0  0.00618  0.53769  0.31915  1.0000
  C   C309      1.0  0.48115  0.66210  0.08346  1.0000
  C   C310      1.0  0.16549  0.62470  0.45074  1.0000
  H   H547      1.0  0.33751  0.73839  0.10810  1.0000
  H   H548      1.0  0.39380  0.65924  0.01767  1.0000
  C   C311      1.0  0.46723  0.54719  0.20284  1.0000
  C   C312      1.0  0.20708  0.56214  0.21123  1.0000
  H   H549      1.0  0.31502  0.64546  0.20418  1.0000
  H   H550      1.0  0.16016  0.62808  0.43247  1.0000
  H   H551      1.0  0.10952  0.67780  0.37178  1.0000
  H   H552      1.0  0.09728  0.69149  0.35398  1.0000
  C   C313      1.0  0.22467  0.61763  0.00238  1.0000
  H   H553      1.0  0.37337  0.55289  0.29525  1.0000
  H   H554      1.0  0.33888  0.59613  0.02097  1.0000
  H   H555      1.0  0.22899  0.57506  0.18012  1.0000
  H   H556      1.0  0.00645  0.54954  0.37103  1.0000
  C   C314      1.0  0.10399  0.70211  0.39272  1.0000
  C   C315      1.0  0.38427  0.51700  0.40304  1.0000
  C   C316      1.0  0.18623  0.52463  0.25073  1.0000
  H   H557      1.0  0.32007  0.51242  0.34956  1.0000
  H   H558      1.0  0.38284  0.69472  0.20656  1.0000
  H   H559      1.0  0.19635  0.71058  0.21295  1.0000
  C   C317      1.0  0.49667  0.73795  0.13240  1.0000
  H   H560      1.0  0.32499  0.70058  0.05877  1.0000
  C   C318      1.0  0.02991  0.50937  0.29295  1.0000
  H   H561      1.0  0.00835  0.55903  0.40178  1.0000
  H   H562      1.0  0.11767  0.70610  0.40588  1.0000
  C   C319      1.0  0.47728  0.59887  0.48114  1.0000
  H   H563      1.0  0.45368  0.64445  0.18679  1.0000
  H   H564      1.0  0.35488  0.60870  0.19820  1.0000
  H   H565      1.0  0.29775  0.69886  0.01359  1.0000
  H   H566      1.0  0.31360  0.60885  0.16772  1.0000
  N   N19       1.0  0.17753  0.54008  0.24305  1.0000
  H   H567      1.0  0.14771  0.54263  0.24309  1.0000
  C   C320      1.0  0.13117  0.70885  0.35833  1.0000
  H   H568      1.0  0.04218  0.54125  0.30767  1.0000
  H   H569      1.0  0.27190  0.64056  0.18361  1.0000
  C   C321      1.0  0.34520  0.50138  0.34647  1.0000
  C   C322      1.0  0.04655  0.53287  0.37394  1.0000
  C   C323      1.0  0.39759  0.62053  0.98789  1.0000
  H   H570      1.0  0.13189  0.62450  0.47700  1.0000
  H   H571      1.0  0.14895  0.52457  0.26573  1.0000
  S   S67       1.0  0.05509  0.51184  0.28312  1.0000
  H   H572      1.0  0.42704  0.72773  0.01710  1.0000
  H   H573      1.0  0.34728  0.70536  0.07908  1.0000
  C   C324      1.0  0.17454  0.64615  0.46525  1.0000
  H   H574      1.0  0.46099  0.55716  0.19275  1.0000
  H   H575      1.0  0.47623  0.64487  0.17005  1.0000
  C   C325      1.0  0.37300  0.50911  0.31462  1.0000
  H   H576      1.0  0.37637  0.58124  0.32551  1.0000
  H   H577      1.0  0.34584  0.72746  0.06310  1.0000
  C   C326      1.0  0.43896  0.51293  0.18858  1.0000
  H   H578      1.0  0.30273  0.50315  0.27654  1.0000
  H   H579      1.0  0.17425  0.58695  0.48039  1.0000
  H   H580      1.0  0.38015  0.50539  0.24769  1.0000
  H   H581      1.0  0.06130  0.50420  0.36667  1.0000
  C   C327      1.0  0.40018  0.50431  0.37112  1.0000
  C   C328      1.0  0.11575  0.50369  0.23370  1.0000
  H   H582      1.0  0.41183  0.50752  0.35646  1.0000
  H   H583      1.0  0.48749  0.74401  0.14423  1.0000
  H   H584      1.0  0.40314  0.50238  0.21535  1.0000
  C   C329      1.0  0.40831  0.60778  0.99006  1.0000
  H   H585      1.0  0.43067  0.50445  0.13787  1.0000
  H   H586      1.0  0.49857  0.66694  0.08594  1.0000
  H   H587      1.0  0.07446  0.58575  0.48374  1.0000
  H   H588      1.0  0.00097  0.58279  0.42310  1.0000
  H   H589      1.0  0.07875  0.74674  0.44512  1.0000
  H   H590      1.0  0.17317  0.50182  0.21917  1.0000
  H   H591      1.0  0.18868  0.61537  0.48533  1.0000
  H   H592      1.0  0.17998  0.64459  0.48415  1.0000
  H   H593      1.0  0.03798  0.65679  0.57992  1.0000
  S   S68       1.0  0.13915  0.70547  0.51832  1.0000
  S   S69       1.0  0.14515  0.64917  0.52037  1.0000
  H   H594      1.0  0.15092  0.60903  0.59149  1.0000
  C   C330      1.0  0.07714  0.52083  0.61182  1.0000
  H   H595      1.0  0.14643  0.61472  0.54703  1.0000
  Fe  Fe34      1.0  0.10347  0.56110  0.65885  1.0000
  S   S70       1.0  0.12021  0.54001  0.66067  1.0000
  S   S71       1.0  0.06849  0.55517  0.65828  1.0000
  Fe  Fe35      1.0  0.14512  0.60074  0.64519  1.0000
  S   S72       1.0  0.16521  0.58300  0.64590  1.0000
  S   S73       1.0  0.15592  0.63536  0.63472  1.0000
  Fe  Fe36      1.0  0.13749  0.55671  0.62588  1.0000
  H   H596      1.0  0.47078  0.60991  0.62950  1.0000
  Fe  Fe37      1.0  0.14685  0.56798  0.68096  1.0000
  S   S74       1.0  0.16286  0.56157  0.71514  1.0000
  S   S75       1.0  0.11907  0.57580  0.62295  1.0000
  S   S76       1.0  0.12858  0.58766  0.68148  1.0000
  Fe  Fe38      1.0  0.44291  0.52955  0.62951  1.0000
  S   S77       1.0  0.44084  0.56053  0.62756  1.0000
  H   H597      1.0  0.24877  0.70242  0.90399  1.0000
  Fe  Fe39      1.0  0.48892  0.55071  0.64816  1.0000
  C   C331      1.0  0.28663  0.65955  0.97051  1.0000
  H   H598      1.0  0.42742  0.66793  0.97773  1.0000
  Fe  Fe40      1.0  0.45748  0.56800  0.66488  1.0000
  S   S78       1.0  0.44513  0.58690  0.68954  1.0000
  Fe  Fe41      1.0  0.47390  0.57399  0.61121  1.0000
  S   S79       1.0  0.48215  0.59303  0.57568  1.0000
  S   S80       1.0  0.45708  0.53552  0.66819  1.0000
  S   S81       1.0  0.47459  0.54241  0.61017  1.0000
  Fe  Fe42      1.0  0.37103  0.59240  0.83650  1.0000
  S   S82       1.0  0.37290  0.62196  0.85435  1.0000
  S   S83       1.0  0.34146  0.56109  0.83149  1.0000
  Fe  Fe43      1.0  0.41863  0.61242  0.82529  1.0000
  S   S84       1.0  0.42472  0.64398  0.84337  1.0000
  S   S85       1.0  0.44255  0.60299  0.80626  1.0000
  Fe  Fe44      1.0  0.40231  0.62410  0.87396  1.0000
  S   S86       1.0  0.40168  0.63479  0.91410  1.0000
  Fe  Fe45      1.0  0.39471  0.63951  0.82313  1.0000
  S   S87       1.0  0.38769  0.66413  0.80345  1.0000
  S   S88       1.0  0.39900  0.59305  0.85788  1.0000
  S   S89       1.0  0.39023  0.60965  0.80333  1.0000
  H   H599      1.0  0.43746  0.68158  0.89407  1.0000
  H   H600      1.0  0.35974  0.64208  0.90358  1.0000
  Fe  Fe46      1.0  0.23656  0.61673  0.83468  1.0000
  S   S90       1.0  0.21986  0.59130  0.86361  1.0000
  S   S91       1.0  0.22353  0.62474  0.79911  1.0000
  Fe  Fe47      1.0  0.27875  0.63572  0.86409  1.0000
  S   S92       1.0  0.26603  0.61161  0.89459  1.0000
  S   S93       1.0  0.31372  0.65929  0.86548  1.0000
  Fe  Fe48      1.0  0.25073  0.58808  0.86394  1.0000
  S   S94       1.0  0.25220  0.55667  0.86473  1.0000
  Fe  Fe49      1.0  0.23667  0.61697  0.89236  1.0000
  S   S95       1.0  0.22236  0.62394  0.92720  1.0000
  S   S96       1.0  0.26613  0.61156  0.83329  1.0000
  S   S97       1.0  0.25057  0.64294  0.86352  1.0000
  C   C332      1.0  0.22659  0.61559  0.95703  1.0000
  C   C333      1.0  0.23410  0.60020  0.95979  1.0000
  H   H601      1.0  0.12991  0.52148  0.54165  1.0000
  H   H602      1.0  0.23755  0.59320  0.94352  1.0000
  C   C334      1.0  0.40845  0.51622  0.57564  1.0000
  C   C335      1.0  0.33655  0.73139  0.86729  1.0000
  C   C336      1.0  0.31508  0.71762  0.87304  1.0000
  C   C337      1.0  0.30761  0.69534  0.87195  1.0000
  C   C338      1.0  0.32165  0.68688  0.86517  1.0000
  C   C339      1.0  0.34284  0.70064  0.85871  1.0000
  C   C340      1.0  0.35036  0.72284  0.85995  1.0000
  H   H603      1.0  0.30432  0.72421  0.87857  1.0000
  H   H604      1.0  0.29119  0.68473  0.87677  1.0000
  H   H605      1.0  0.35343  0.69406  0.85262  1.0000
  C   C341      1.0  0.30230  0.57393  0.93549  1.0000
  C   C342      1.0  0.40276  0.68994  0.81524  1.0000
  C   C343      1.0  0.39317  0.70365  0.81835  1.0000
  C   C344      1.0  0.40515  0.72432  0.82788  1.0000
  C   C345      1.0  0.42684  0.73141  0.83368  1.0000
  C   C346      1.0  0.43659  0.71796  0.82984  1.0000
  C   C347      1.0  0.42447  0.69709  0.82106  1.0000
  H   H606      1.0  0.37635  0.69810  0.81406  1.0000
  C   C348      1.0  0.18966  0.53322  0.61611  1.0000
  H   H607      1.0  0.32946  0.53876  0.88004  1.0000
  H   H608      1.0  0.43201  0.68668  0.81827  1.0000
  C   C349      1.0  0.31689  0.56045  0.84078  1.0000
  C   C350      1.0  0.31514  0.57920  0.84601  1.0000
  C   C351      1.0  0.29534  0.57824  0.85340  1.0000
  C   C352      1.0  0.27724  0.55843  0.85571  1.0000
  C   C353      1.0  0.27908  0.53967  0.85078  1.0000
  C   C354      1.0  0.29878  0.54068  0.84314  1.0000
  H   H609      1.0  0.32900  0.59444  0.84420  1.0000
  H   H610      1.0  0.29407  0.59278  0.85738  1.0000
  H   H611      1.0  0.26514  0.52433  0.85255  1.0000
  H   H612      1.0  0.29999  0.52610  0.83916  1.0000
  C   C355      1.0  0.40299  0.62275  0.94274  1.0000
  C   C356      1.0  0.41292  0.60931  0.94478  1.0000
  H   H613      1.0  0.36507  0.56419  0.72727  1.0000
  H   H614      1.0  0.41917  0.60513  0.92836  1.0000
  H   H615      1.0  0.31839  0.62547  0.83341  1.0000
  H   H616      1.0  0.20050  0.54153  0.51383  1.0000
  C   C357      1.0  0.44498  0.59123  0.72208  1.0000
  C   C358      1.0  0.43450  0.60305  0.73094  1.0000
  C   C359      1.0  0.43356  0.60671  0.75656  1.0000
  C   C360      1.0  0.44340  0.59886  0.77371  1.0000
  C   C361      1.0  0.45408  0.58722  0.76484  1.0000
  C   C362      1.0  0.45472  0.58325  0.73920  1.0000
  H   H617      1.0  0.42689  0.60929  0.71790  1.0000
  H   H618      1.0  0.42542  0.61581  0.76304  1.0000
  H   H619      1.0  0.46177  0.58109  0.77792  1.0000
  H   H620      1.0  0.46285  0.57414  0.73272  1.0000
  H   H621      1.0  0.38967  0.51896  0.69921  1.0000
  H   H622      1.0  0.32059  0.69558  0.79752  1.0000
  H   H623      1.0  0.42274  0.72192  0.88427  1.0000
  H   H624      1.0  0.11200  0.67002  0.55448  1.0000
  H   H625      1.0  0.47435  0.66929  0.71564  1.0000
  H   H626      1.0  0.21612  0.63621  0.97650  1.0000
  H   H627      1.0  0.24972  0.62233  0.74188  1.0000
  C   C363      1.0  0.42136  0.71087  0.89981  1.0000
  C   C364      1.0  0.18101  0.57987  0.73710  1.0000
  C   C365      1.0  0.18561  0.60150  0.73767  1.0000
  C   C366      1.0  0.19901  0.61506  0.75644  1.0000
  C   C367      1.0  0.20796  0.60721  0.77492  1.0000
  C   C368      1.0  0.20390  0.58575  0.77392  1.0000
  C   C369      1.0  0.19049  0.57220  0.75516  1.0000
  H   H628      1.0  0.17864  0.60773  0.72380  1.0000
  H   H629      1.0  0.20220  0.63168  0.75683  1.0000
  H   H630      1.0  0.21089  0.57951  0.78775  1.0000
  H   H631      1.0  0.18723  0.55555  0.75478  1.0000
  H   H632      1.0  0.26041  0.56107  0.95202  1.0000
  H   H633      1.0  0.11110  0.63954  0.58316  1.0000
  H   H634      1.0  0.01902  0.66643  0.59019  1.0000
  C   C370      1.0  0.14991  0.64670  0.55201  1.0000
  C   C371      1.0  0.15359  0.66300  0.56917  1.0000
  C   C372      1.0  0.15599  0.65965  0.59455  1.0000
  C   C373      1.0  0.15467  0.64003  0.60276  1.0000
  C   C374      1.0  0.15153  0.62402  0.58543  1.0000
  C   C375      1.0  0.14919  0.62737  0.56018  1.0000
  H   H635      1.0  0.15432  0.67802  0.56298  1.0000
  H   H636      1.0  0.15855  0.67213  0.60789  1.0000
  C   C376      1.0  0.38284  0.68884  0.88602  1.0000
  H   H637      1.0  0.40961  0.68488  0.87229  1.0000
  H   H638      1.0  0.37504  0.68895  0.90395  1.0000
  H   H639      1.0  0.18707  0.50192  0.51248  1.0000
  H   H640      1.0  0.37213  0.67440  0.87532  1.0000
  H   H641      1.0  0.10966  0.58814  0.49441  1.0000
  C   C377      1.0  0.33038  0.63218  0.81827  1.0000
  C   C378      1.0  0.12821  0.58096  0.82983  1.0000
  S   S98       1.0  0.07831  0.69087  0.49478  1.0000
  H   H642      1.0  0.05024  0.56978  0.60888  1.0000
  H   H643      1.0  0.26008  0.54198  0.92909  1.0000
  N   N20       1.0  0.14808  0.58822  0.81397  1.0000
  C   C379      1.0  0.16718  0.60654  0.82572  1.0000
  C   C380      1.0  0.15330  0.56980  0.80847  1.0000
  C   C381      1.0  0.14359  0.59617  0.78957  1.0000
  H   H644      1.0  0.40667  0.71738  0.97288  1.0000
  H   H645      1.0  0.40093  0.52894  0.83034  1.0000
  C   C382      1.0  0.16450  0.62685  0.83202  1.0000
  H   H646      1.0  0.08908  0.56603  0.53974  1.0000
  C   C383      1.0  0.16894  0.56631  0.82643  1.0000
  C   C384      1.0  0.16971  0.54520  0.82112  1.0000
  H   H647      1.0  0.39670  0.54743  0.85024  1.0000
  C   C385      1.0  0.18475  0.64365  0.84459  1.0000
  H   H648      1.0  0.27119  0.66924  0.80106  1.0000
  H   H649      1.0  0.18124  0.61153  0.81317  1.0000
  H   H650      1.0  0.17222  0.60167  0.84316  1.0000
  H   H651      1.0  0.13828  0.55452  0.80696  1.0000
  H   H652      1.0  0.16115  0.57201  0.78999  1.0000
  H   H653      1.0  0.15873  0.60430  0.77869  1.0000
  C   C386      1.0  0.47479  0.68309  0.88056  1.0000
  C   C387      1.0  0.33173  0.61090  0.90305  1.0000
  H   H654      1.0  0.30569  0.62239  0.79089  1.0000
  H   H655      1.0  0.36201  0.67699  0.73719  1.0000
  H   H656      1.0  0.46543  0.52083  0.54088  1.0000
  H   H657      1.0  0.16188  0.63428  0.81498  1.0000
  H   H658      1.0  0.15085  0.62308  0.84490  1.0000
  H   H659      1.0  0.25863  0.68380  0.89432  1.0000
  H   H660      1.0  0.48688  0.50715  0.61943  1.0000
  H   H661      1.0  0.18547  0.57935  0.82389  1.0000
  H   H662      1.0  0.16457  0.56629  0.84616  1.0000
  C   C388      1.0  0.09069  0.56276  0.55962  1.0000
  H   H663      1.0  0.30575  0.53691  0.91502  1.0000
  H   H664      1.0  0.16555  0.58159  0.52564  1.0000
  H   H665      1.0  0.28224  0.70790  0.79873  1.0000
  H   H666      1.0  0.34733  0.52603  0.78147  1.0000
  H   H667      1.0  0.19933  0.53930  0.56861  1.0000
  H   H668      1.0  0.19893  0.64821  0.83224  1.0000
  H   H669      1.0  0.18269  0.65818  0.84868  1.0000
  H   H670      1.0  0.18788  0.63742  0.86235  1.0000
  H   H671      1.0  0.27608  0.65705  0.76260  1.0000
  H   H672      1.0  0.19407  0.59533  0.52003  1.0000
  C   C389      1.0  0.46454  0.62200  0.62966  1.0000
  C   C390      1.0  0.02518  0.52917  0.65791  1.0000
  C   C391      1.0  0.00595  0.64009  0.56362  1.0000
  C   C392      1.0  0.26625  0.69479  0.93265  1.0000
  C   C393      1.0  0.09457  0.66049  0.55064  1.0000
  H   H673      1.0  0.45350  0.72363  0.83386  1.0000
  H   H674      1.0  0.25508  0.53442  0.96132  1.0000
  C   C394      1.0  0.22205  0.62438  0.97844  1.0000
  H   H675      1.0  0.25462  0.60560  0.76406  1.0000
  H   H676      1.0  0.27632  0.67058  0.92554  1.0000
  H   H677      1.0  0.11462  0.56710  0.82105  1.0000
  C   C395      1.0  0.03998  0.65137  0.49152  1.0000
  H   H678      1.0  0.32398  0.65729  0.75005  1.0000
  C   C396      1.0  0.39826  0.51566  0.55290  1.0000
  S   S99       1.0  0.49056  0.58352  0.64788  1.0000
  C   C397      1.0  0.48365  0.64473  0.62851  1.0000
  H   H679      1.0  0.47723  0.65599  0.62246  1.0000
  C   C398      1.0  0.29532  0.62946  0.95688  1.0000
  H   H680      1.0  0.47452  0.69779  0.91544  1.0000
  C   C399      1.0  0.38965  0.54419  0.74029  1.0000
  H   H681      1.0  0.25990  0.60406  0.73156  1.0000
  H   H682      1.0  0.34992  0.57650  0.91298  1.0000
  H   H683      1.0  0.32581  0.57117  0.89661  1.0000
  H   H684      1.0  0.20532  0.51479  0.60319  1.0000
  H   H685      1.0  0.35341  0.50466  0.73389  1.0000
  H   H686      1.0  0.29184  0.54104  0.94999  1.0000
  C   C400      1.0  0.28366  0.63239  0.75020  1.0000
  H   H687      1.0  0.13934  0.59673  0.73801  1.0000
  H   H688      1.0  0.11186  0.57656  0.73626  1.0000
  C   C401      1.0  0.30528  0.68409  0.78868  1.0000
  C   C402      1.0  0.28489  0.64852  0.77066  1.0000
  H   H689      1.0  0.07606  0.62459  0.63558  1.0000
  C   C403      1.0  0.00389  0.64898  0.49856  1.0000
  C   C404      1.0  0.03640  0.68305  0.50236  1.0000
  H   H690      1.0  0.31906  0.59342  0.98169  1.0000
  H   H691      1.0  0.27501  0.69828  0.83006  1.0000
  H   H692      1.0  0.06263  0.51281  0.67455  1.0000
  H   H693      1.0  0.06353  0.50619  0.57726  1.0000
  H   H694      1.0  0.05499  0.61492  0.59656  1.0000
  H   H695      1.0  0.07036  0.62783  0.55112  1.0000
  C   C405      1.0  0.35817  0.52312  0.76838  1.0000
  H   H696      1.0  0.38499  0.70310  0.87507  1.0000
  C   C406      1.0  0.44916  0.69860  0.89138  1.0000
  H   H697      1.0  0.12273  0.59365  0.83090  1.0000
  C   C407      1.0  0.34638  0.68732  0.76562  1.0000
  C   C408      1.0  0.08782  0.63676  0.55500  1.0000
  H   H698      1.0  0.33476  0.64245  0.91263  1.0000
  H   H699      1.0  0.13775  0.60840  0.79275  1.0000
  H   H700      1.0  0.05177  0.59608  0.57301  1.0000
  H   H701      1.0  0.08866  0.64258  0.59435  1.0000
  H   H702      1.0  0.44613  0.65405  0.70923  1.0000
  C   C409      1.0  0.26057  0.61508  0.74675  1.0000
  C   C410      1.0  0.43219  0.68613  0.94366  1.0000
  C   C411      1.0  0.28741  0.68022  0.80813  1.0000
  H   H703      1.0  0.01360  0.56263  0.62139  1.0000
  H   H704      1.0  0.45466  0.61938  0.64653  1.0000
  H   H705      1.0  0.23414  0.53322  0.58042  1.0000
  H   H706      1.0  0.31412  0.60479  0.90070  1.0000
  C   C412      1.0  0.44442  0.73569  0.76306  1.0000
  H   H707      1.0  0.33788  0.60453  0.88790  1.0000
  C   C413      1.0  0.12673  0.57900  0.77230  1.0000
  H   H708      1.0  0.30141  0.64919  0.81551  1.0000
  C   C414      1.0  0.39933  0.52813  0.73770  1.0000
  H   H709      1.0  0.03050  0.67277  0.55955  1.0000
  H   H710      1.0  0.41212  0.51471  0.70955  1.0000
  H   H711      1.0  0.46115  0.73876  0.88111  1.0000
  H   H712      1.0  0.32678  0.51822  0.90177  1.0000
  H   H713      1.0  0.14072  0.58730  0.49684  1.0000
  H   H714      1.0  0.18008  0.61018  0.53048  1.0000
  C   C415      1.0  0.23633  0.59318  0.98365  1.0000
  C   C416      1.0  0.43638  0.68471  0.97133  1.0000
  H   H715      1.0  0.09529  0.55692  0.86251  1.0000
  H   H716      1.0  0.07075  0.53277  0.61076  1.0000
  H   H717      1.0  0.05039  0.58950  0.62996  1.0000
  N   N21       1.0  0.28371  0.67928  0.96460  1.0000
  H   H718      1.0  0.37045  0.53596  0.81579  1.0000
  H   H719      1.0  0.44793  0.70177  0.87135  1.0000
  H   H720      1.0  0.35270  0.68081  0.78059  1.0000
  H   H721      1.0  0.33357  0.61410  0.94249  1.0000
  H   H722      1.0  0.45436  0.53969  0.54267  1.0000
  H   H723      1.0  0.48872  0.51047  0.67631  1.0000
  H   H724      1.0  0.34818  0.72020  0.92041  1.0000
  H   H725      1.0  0.46875  0.53842  0.50018  1.0000
  H   H726      1.0  0.47250  0.68491  0.86042  1.0000
  C   C417      1.0  0.45225  0.52437  0.53420  1.0000
  H   H727      1.0  0.40047  0.53046  0.54427  1.0000
  C   C418      1.0  0.32338  0.54489  0.91822  1.0000
  H   H728      1.0  0.44222  0.62866  0.60698  1.0000
  H   H729      1.0  0.22119  0.51222  0.52882  1.0000
  H   H730      1.0  0.22907  0.50579  0.57514  1.0000
  H   H731      1.0  0.15381  0.53148  0.82471  1.0000
  H   H732      1.0  0.43686  0.60097  0.60789  1.0000
  H   H733      1.0  0.17231  0.51933  0.56896  1.0000
  H   H734      1.0  0.48626  0.67724  0.65711  1.0000
  H   H735      1.0  0.17439  0.54457  0.80154  1.0000
  H   H736      1.0  0.45369  0.64587  0.66716  1.0000
  H   H737      1.0  0.32695  0.56150  0.96595  1.0000
  C   C419      1.0  0.40453  0.52569  0.71067  1.0000
  H   H738      1.0  0.29201  0.55984  0.97256  1.0000
  C   C420      1.0  0.00640  0.50997  0.66152  1.0000
  H   H739      1.0  0.32699  0.54054  0.93679  1.0000
  H   H740      1.0  0.29026  0.67323  0.82536  1.0000
  C   C421      1.0  0.39509  0.62808  0.96438  1.0000
  C   C422      1.0  0.28693  0.70120  0.81504  1.0000
  H   H741      1.0  0.41915  0.51522  0.49732  1.0000
  C   C423      1.0  0.09328  0.63265  0.58185  1.0000
  C   C424      1.0  0.40448  0.68874  0.89036  1.0000
  H   H742      1.0  0.08159  0.56870  0.59564  1.0000
  H   H743      1.0  0.43825  0.71890  0.94533  1.0000
  H   H744      1.0  0.41466  0.68033  0.94123  1.0000
  H   H745      1.0  0.31747  0.67843  0.74345  1.0000
  H   H746      1.0  0.41406  0.71579  0.91538  1.0000
  H   H747      1.0  0.11079  0.57108  0.78137  1.0000
  C   C425      1.0  0.30510  0.69873  0.96205  1.0000
  H   H748      1.0  0.40205  0.67577  0.90352  1.0000
  H   H749      1.0  0.06225  0.56480  0.57157  1.0000
  C   C426      1.0  0.47186  0.70015  0.89560  1.0000
  C   C427      1.0  0.33746  0.60461  0.92858  1.0000
  N   N22       1.0  0.44340  0.71322  0.90699  1.0000
  C   C428      1.0  0.07964  0.57260  0.57624  1.0000
  H   H750      1.0  0.37877  0.54182  0.72432  1.0000
  H   H751      1.0  0.29877  0.58727  0.94145  1.0000
  H   H752      1.0  0.32805  0.66849  0.81098  1.0000
  C   C429      1.0  0.13263  0.51748  0.58098  1.0000
  H   H753      1.0  0.46151  0.67844  0.69233  1.0000
  H   H754      1.0  0.29549  0.56982  0.91634  1.0000
  C   C430      1.0  0.18371  0.53051  0.51893  1.0000
  H   H755      1.0  0.34257  0.52344  0.73236  1.0000
  H   H756      1.0  0.40593  0.54745  0.49589  1.0000
  S   S100      1.0  0.13963  0.54446  0.58741  1.0000
  C   C431      1.0  0.44454  0.70943  0.93442  1.0000
  H   H757      1.0  0.27036  0.69809  0.98354  1.0000
  C   C432      1.0  0.10982  0.56948  0.87155  1.0000
  C   C433      1.0  0.33208  0.56934  0.91499  1.0000
  H   H758      1.0  0.40312  0.56041  0.73734  1.0000
  C   C434      1.0  0.39800  0.73916  0.95376  1.0000
  H   H759      1.0  0.33121  0.73219  0.92957  1.0000
  C   C435      1.0  0.25139  0.68858  0.91001  1.0000
  H   H760      1.0  0.27483  0.63926  0.78660  1.0000
  H   H761      1.0  0.08557  0.59269  0.62322  1.0000
  C   C436      1.0  0.04979  0.67360  0.49622  1.0000
  H   H762      1.0  0.10439  0.64112  0.63118  1.0000
  C   C437      1.0  0.08902  0.59697  0.57190  1.0000
  H   H763      1.0  0.10683  0.60366  0.57085  1.0000
  H   H764      1.0  0.34758  0.58732  0.73423  1.0000
  H   H765      1.0  0.46158  0.71544  0.94042  1.0000
  H   H766      1.0  0.38736  0.63845  0.96302  1.0000
  H   H767      1.0  0.11019  0.61300  0.61295  1.0000
  H   H768      1.0  0.08358  0.59841  0.55292  1.0000
  C   C438      1.0  0.12996  0.57373  0.85652  1.0000
  H   H769      1.0  0.11287  0.61917  0.66149  1.0000
  H   H770      1.0  0.09668  0.63066  0.67485  1.0000
  H   H771      1.0  0.28361  0.61838  0.97044  1.0000
  C   C439      1.0  0.35837  0.58619  0.74875  1.0000
  H   H772      1.0  0.38844  0.56412  0.81443  1.0000
  H   H773      1.0  0.35187  0.58741  0.76722  1.0000
  H   H774      1.0  0.43737  0.67528  0.93385  1.0000
  C   C440      1.0  0.02225  0.57507  0.60724  1.0000
  H   H775      1.0  0.39727  0.53109  0.78556  1.0000
  C   C441      1.0  0.09290  0.60901  0.61526  1.0000
  H   H776      1.0  0.35627  0.69885  0.72788  1.0000
  C   C442      1.0  0.09677  0.61886  0.66112  1.0000
  H   H777      1.0  0.13133  0.55854  0.85592  1.0000
  H   H778      1.0  0.41849  0.53139  0.58430  1.0000
  H   H779      1.0  0.32666  0.68782  0.94417  1.0000
  H   H780      1.0  0.36655  0.56299  0.78430  1.0000
  H   H781      1.0  0.38986  0.57766  0.76598  1.0000
  H   H782      1.0  0.37458  0.59981  0.74638  1.0000
  H   H783      1.0  0.41877  0.55733  0.82862  1.0000
  H   H784      1.0  0.08528  0.66622  0.56272  1.0000
  H   H785      1.0  0.33984  0.63899  0.88052  1.0000
  N   N23       1.0  0.08307  0.60963  0.59043  1.0000
  C   C443      1.0  0.36151  0.69190  0.74348  1.0000
  H   H786      1.0  0.17818  0.53845  0.53312  1.0000
  H   H787      1.0  0.00980  0.62219  0.48867  1.0000
  C   C444      1.0  0.44979  0.61764  0.60712  1.0000
  H   H788      1.0  0.09677  0.63191  0.54131  1.0000
  C   C445      1.0  0.37434  0.56281  0.76633  1.0000
  C   C446      1.0  0.38723  0.54788  0.81194  1.0000
  C   C447      1.0  0.35943  0.56490  0.74631  1.0000
  C   C448      1.0  0.40185  0.54519  0.83140  1.0000
  H   H789      1.0  0.13172  0.56655  0.76691  1.0000
  C   C449      1.0  0.26461  0.54772  0.94848  1.0000
  C   C450      1.0  0.05899  0.60163  0.59169  1.0000
  C   C451      1.0  0.09200  0.62459  0.63523  1.0000
  H   H790      1.0  0.45100  0.51028  0.49856  1.0000
  H   H791      1.0  0.08445  0.60271  0.66664  1.0000
  H   H792      1.0  0.01718  0.56781  0.58855  1.0000
  C   C452      1.0  0.46202  0.66416  0.70070  1.0000
  H   H793      1.0  0.39761  0.73472  0.83075  1.0000
  C   C453      1.0  0.39421  0.54539  0.78526  1.0000
  H   H794      1.0  0.41010  0.55927  0.78189  1.0000
  H   H795      1.0  0.10803  0.56931  0.56444  1.0000
  H   H796      1.0  0.26218  0.54526  0.54749  1.0000
  H   H797      1.0  0.18182  0.54372  0.83341  1.0000
  N   N24       1.0  0.37865  0.54351  0.76467  1.0000
  H   H798      1.0  0.08323  0.54519  0.56240  1.0000
  H   H799      1.0  0.36683  0.73336  0.85515  1.0000
  H   H800      1.0  0.27242  0.63772  0.93933  1.0000
  H   H801      1.0  0.31010  0.69351  0.92256  1.0000
  C   C454      1.0  0.33529  0.57827  0.95946  1.0000
  H   H802      1.0  0.09150  0.66310  0.53098  1.0000
  Fe  Fe50      1.0  0.14457  0.67836  0.50300  1.0000
  C   C455      1.0  0.34499  0.51212  0.74477  1.0000
  H   H803      1.0  0.23555  0.67507  0.91456  1.0000
  H   H804      1.0  0.01770  0.58825  0.60966  1.0000
  C   C456      1.0  0.04705  0.51205  0.67064  1.0000
  H   H805      1.0  0.48340  0.62217  0.66997  1.0000
  H   H806      1.0  0.37804  0.70348  0.74911  1.0000
  C   C457      1.0  0.19050  0.51624  0.59884  1.0000
  H   H807      1.0  0.46309  0.66682  0.88659  1.0000
  C   C458      1.0  0.46692  0.65124  0.68097  1.0000
  C   C459      1.0  0.28860  0.55498  0.95280  1.0000
  C   C460      1.0  0.31934  0.69869  0.94003  1.0000
  N   N25       1.0  0.32629  0.58109  0.93493  1.0000
  H   H808      1.0  0.15419  0.61517  0.50174  1.0000
  H   H809      1.0  0.29992  0.65624  0.93403  1.0000
  C   C461      1.0  0.04647  0.58349  0.61062  1.0000
  H   H810      1.0  0.25380  0.66202  0.94518  1.0000
  H   H811      1.0  0.47276  0.68705  0.50886  1.0000
  C   C462      1.0  0.04556  0.53034  0.66249  1.0000
  C   C463      1.0  0.34218  0.63513  0.89993  1.0000
  C   C464      1.0  0.26985  0.67559  0.94175  1.0000
  N   N26       1.0  0.49736  0.65315  0.65163  1.0000
  H   H812      1.0  0.01078  0.61804  0.58797  1.0000
  C   C465      1.0  0.45958  0.73601  0.90156  1.0000
  H   H813      1.0  0.28171  0.70832  0.92709  1.0000
  H   H814      1.0  0.31507  0.70091  0.97892  1.0000
  C   C466      1.0  0.31419  0.65552  0.80127  1.0000
  C   C467      1.0  0.33334  0.53576  0.89918  1.0000
  H   H815      1.0  0.10786  0.58434  0.87345  1.0000
  H   H816      1.0  0.33622  0.62032  0.81307  1.0000
  C   C468      1.0  0.28841  0.64628  0.94832  1.0000
  H   H817      1.0  0.34281  0.55213  0.74881  1.0000
  C   C469      1.0  0.23368  0.52151  0.56622  1.0000
  H   H818      1.0  0.33210  0.64135  0.78031  1.0000
  C   C470      1.0  0.13181  0.50327  0.59967  1.0000
  C   C471      1.0  0.48866  0.66498  0.66801  1.0000
  H   H819      1.0  0.48448  0.71592  0.88947  1.0000
  C   C472      1.0  0.01393  0.67095  0.50374  1.0000
  H   H820      1.0  0.45895  0.61959  0.58964  1.0000
  N   N27       1.0  0.30696  0.66441  0.77966  1.0000
  H   H821      1.0  0.30293  0.71310  0.82178  1.0000
  H   H822      1.0  0.14388  0.58598  0.86668  1.0000
  C   C473      1.0  0.43431  0.53039  0.49567  1.0000
  H   H823      1.0  0.34728  0.70282  0.77183  1.0000
  C   C474      1.0  0.32299  0.67123  0.75864  1.0000
  H   H824      1.0  0.28908  0.64086  0.73219  1.0000
  H   H825      1.0  0.30251  0.69269  0.77269  1.0000
  H   H826      1.0  0.09378  0.61335  0.48761  1.0000
  H   H827      1.0  0.11128  0.56388  0.89044  1.0000
  H   H828      1.0  0.34428  0.64675  0.82527  1.0000
  C   C475      1.0  0.01713  0.63916  0.49239  1.0000
  C   C476      1.0  0.33470  0.59278  0.98099  1.0000
  H   H829      1.0  0.43673  0.51132  0.54042  1.0000
  H   H830      1.0  0.17505  0.53542  0.61248  1.0000
  H   H831      1.0  0.02389  0.54327  0.65190  1.0000
  C   C477      1.0  0.32027  0.63722  0.79559  1.0000
  H   H832      1.0  0.49179  0.72626  0.51772  1.0000
  C   C478      1.0  0.06279  0.50105  0.59681  1.0000
  H   H833      1.0  0.35109  0.54307  0.90140  1.0000
  C   C479      1.0  0.17878  0.59666  0.51857  1.0000
  H   H834      1.0  0.29385  0.62440  0.75440  1.0000
  H   H835      1.0  0.49360  0.64391  0.61267  1.0000
  H   H836      1.0  0.07752  0.51668  0.63163  1.0000
  C   C480      1.0  0.12390  0.58911  0.74831  1.0000
  H   H837      1.0  0.48079  0.60981  0.49727  1.0000
  H   H838      1.0  0.13443  0.50851  0.61883  1.0000
  C   C481      1.0  0.02448  0.66020  0.57411  1.0000
  C   C482      1.0  0.41569  0.60202  0.96833  1.0000
  H   H839      1.0  0.46672  0.63710  0.69044  1.0000
  H   H840      1.0  0.35525  0.61059  0.92922  1.0000
  H   H841      1.0  0.43216  0.54154  0.50872  1.0000
  H   H842      1.0  0.29593  0.62003  0.94058  1.0000
  H   H843      1.0  0.11817  0.60129  0.75229  1.0000
  H   H844      1.0  0.31154  0.63716  0.96548  1.0000
  H   H845      1.0  0.42396  0.59213  0.96977  1.0000
  C   C483      1.0  0.49935  0.63527  0.66529  1.0000
  H   H846      1.0  0.34751  0.72726  0.95256  1.0000
  H   H847      1.0  0.25861  0.70035  0.94712  1.0000
  H   H848      1.0  0.35244  0.58153  0.95719  1.0000
  C   C484      1.0  0.12927  0.51055  0.55619  1.0000
  C   C485      1.0  0.40520  0.73212  0.97739  1.0000
  H   H849      1.0  0.41462  0.53405  0.74837  1.0000
  H   H850      1.0  0.30276  0.71346  0.96100  1.0000
  H   H851      1.0  0.41594  0.54140  0.70291  1.0000
  H   H852      1.0  0.09377  0.52811  0.60440  1.0000
  C   C486      1.0  0.21799  0.52013  0.54517  1.0000
  H   H853      1.0  0.20406  0.54878  0.61348  1.0000
  H   H854      1.0  0.00417  0.67885  0.50870  1.0000
  H   H855      1.0  0.22289  0.53687  0.53917  1.0000
  C   C487      1.0  0.18917  0.52181  0.57118  1.0000
  H   H856      1.0  0.27266  0.64788  0.98143  1.0000
  C   C488      1.0  0.18197  0.50877  0.52832  1.0000
  C   C489      1.0  0.45277  0.52585  0.50587  1.0000
  C   C490      1.0  0.33767  0.72097  0.93552  1.0000
  H   H857      1.0  0.43563  0.72115  0.77449  1.0000
  H   H858      1.0  0.46867  0.57119  0.50400  1.0000
  C   C491      1.0  0.48404  0.69340  0.52478  1.0000
  H   H859      1.0  0.47585  0.73913  0.90824  1.0000
  H   H860      1.0  0.18923  0.52821  0.63575  1.0000
  H   H861      1.0  0.47461  0.69275  0.54166  1.0000
  H   H862      1.0  0.44692  0.57700  0.49645  1.0000
  H   H863      1.0  0.04347  0.70002  0.50621  1.0000
  H   H864      1.0  0.44154  0.73101  0.74319  1.0000
  N   N28       1.0  0.19442  0.50933  0.55158  1.0000
  H   H865      1.0  0.31335  0.50126  0.76165  1.0000
  H   H866      1.0  0.47741  0.50095  0.58795  1.0000
  C   C492      1.0  0.16972  0.52728  0.49586  1.0000
  H   H867      1.0  0.42142  0.74481  0.98221  1.0000
  H   H868      1.0  0.34758  0.60933  0.97838  1.0000
  C   C493      1.0  0.17476  0.60051  0.49151  1.0000
  H   H869      1.0  0.26759  0.53070  0.57191  1.0000
  C   C494      1.0  0.15342  0.60233  0.48898  1.0000
  H   H870      1.0  0.25725  0.51780  0.54256  1.0000
  C   C495      1.0  0.25654  0.52931  0.55634  1.0000
  H   H871      1.0  0.24150  0.58078  0.98552  1.0000
  Fe  Fe51      1.0  0.16372  0.72663  0.48960  1.0000
  H   H872      1.0  0.43107  0.69485  0.98242  1.0000
  H   H873      1.0  0.45375  0.68981  0.97475  1.0000
  H   H874      1.0  0.36157  0.51073  0.77771  1.0000
  H   H875      1.0  0.38161  0.74911  0.78080  1.0000
  H   H876      1.0  0.41089  0.74408  0.93961  1.0000
  H   H877      1.0  0.01233  0.63531  0.54715  1.0000
  H   H878      1.0  0.15255  0.51677  0.50016  1.0000
  H   H879      1.0  0.49219  0.68307  0.52783  1.0000
  H   H880      1.0  0.38821  0.51215  0.74500  1.0000
  H   H881      1.0  0.49128  0.68473  0.88342  1.0000
  H   H882      1.0  0.41868  0.74425  0.76676  1.0000
  H   H883      1.0  0.38329  0.72586  0.94607  1.0000
  H   H884      1.0  0.49436  0.61053  0.70794  1.0000
  H   H885      1.0  0.46184  0.74217  0.76727  1.0000
  H   H886      1.0  0.25500  0.66995  0.98688  1.0000
  H   H887      1.0  0.17115  0.54294  0.48938  1.0000
  C   C496      1.0  0.46124  0.57623  0.48870  1.0000
  C   C497      1.0  0.27180  0.68302  0.98610  1.0000
  H   H888      1.0  0.30096  0.66384  0.98262  1.0000
  Fe  Fe52      1.0  0.11340  0.69621  0.48848  1.0000
  H   H889      1.0  0.04994  0.64357  0.48731  1.0000
  Fe  Fe53      1.0  0.39666  0.78502  0.08588  1.0000
  S   S101      1.0  0.43079  0.80209  0.09926  1.0000
  S   S102      1.0  0.38308  0.78666  0.04776  1.0000
  Fe  Fe54      1.0  0.38153  0.75976  0.13447  1.0000
  S   S103      1.0  0.41457  0.77496  0.15160  1.0000
  Fe  Fe55      1.0  0.41692  0.80577  0.13608  1.0000
  S   S104      1.0  0.43147  0.83878  0.15481  1.0000
  H   H890      1.0  0.42813  0.89707  0.46403  1.0000
  S   S105      1.0  0.38285  0.79080  0.12152  1.0000
  Fe  Fe56      1.0  0.35255  0.89177  0.47074  1.0000
  S   S106      1.0  0.32774  0.89969  0.45348  1.0000
  S   S107      1.0  0.37368  0.88025  0.45013  1.0000
  Fe  Fe57      1.0  0.44178  0.91730  0.33236  1.0000
  S   S108      1.0  0.45269  0.92236  0.29233  1.0000
  S   S109      1.0  0.41484  0.92379  0.34756  1.0000
  Fe  Fe58      1.0  0.47607  0.90421  0.34862  1.0000
  H   H891      1.0  0.40425  0.87730  0.17284  1.0000
  C   C498      1.0  0.45839  0.91741  0.42806  1.0000
  H   H892      1.0  0.47147  0.84393  0.47089  1.0000
  C   C499      1.0  0.28053  0.87163  0.40724  1.0000
  Fe  Fe59      1.0  0.45574  0.89167  0.29616  1.0000
  S   S110      1.0  0.44286  0.86167  0.27114  1.0000
  S   S111      1.0  0.47480  0.93567  0.34837  1.0000
  S   S112      1.0  0.44217  0.88554  0.33506  1.0000
  C   C500      1.0  0.38539  0.89304  0.42204  1.0000
  C   C501      1.0  0.40183  0.88935  0.41142  1.0000
  C   C502      1.0  0.41115  0.89893  0.38874  1.0000
  C   C503      1.0  0.40367  0.91180  0.37620  1.0000
  C   C504      1.0  0.38699  0.91523  0.38667  1.0000
  C   C505      1.0  0.37810  0.90617  0.40972  1.0000
  H   H893      1.0  0.40737  0.87902  0.42067  1.0000
  H   H894      1.0  0.42396  0.89616  0.38083  1.0000
  H   H895      1.0  0.38097  0.92494  0.37690  1.0000
  H   H896      1.0  0.36532  0.90899  0.41766  1.0000
  H   H897      1.0  0.32808  0.84338  0.44657  1.0000
  H   H898      1.0  0.31317  0.87771  0.40074  1.0000
  C   C506      1.0  0.48226  0.85815  0.48188  1.0000
  C   C507      1.0  0.43406  0.84485  0.18725  1.0000
  C   C508      1.0  0.42720  0.82889  0.20543  1.0000
  C   C509      1.0  0.42992  0.83442  0.23087  1.0000
  C   C510      1.0  0.43938  0.85594  0.23863  1.0000
  C   C511      1.0  0.44621  0.87193  0.22046  1.0000
  C   C512      1.0  0.44356  0.86639  0.19498  1.0000
  H   H899      1.0  0.41988  0.81226  0.19989  1.0000
  H   H900      1.0  0.42459  0.82189  0.24468  1.0000
  H   H901      1.0  0.45355  0.88855  0.22604  1.0000
  H   H902      1.0  0.44895  0.87891  0.18115  1.0000
  H   H903      1.0  0.45782  0.76462  0.02106  1.0000
  C   C513      1.0  0.39730  0.79194  0.01922  1.0000
  C   C514      1.0  0.41970  0.80038  0.01840  1.0000
  S   S113      1.0  0.27150  0.85295  0.47512  1.0000
  H   H904      1.0  0.42881  0.80379  0.03549  1.0000
  H   H905      1.0  0.42523  0.89619  0.09771  1.0000
  C   C515      1.0  0.41904  0.89248  0.07851  1.0000
  H   H906      1.0  0.46990  0.83015  0.34322  1.0000
  H   H907      1.0  0.45512  0.78298  0.04265  1.0000
  C   C516      1.0  0.30783  0.81078  0.47911  1.0000
  H   H908      1.0  0.30281  0.80288  0.39925  1.0000
  H   H909      1.0  0.27946  0.83534  0.42307  1.0000
  C   C517      1.0  0.35994  0.85072  0.37085  1.0000
  H   H910      1.0  0.35092  0.84784  0.35310  1.0000
  H   H911      1.0  0.44796  0.94750  0.39447  1.0000
  H   H912      1.0  0.45544  0.90341  0.41609  1.0000
  H   H913      1.0  0.28161  0.88419  0.39393  1.0000
  Fe  Fe60      1.0  0.42546  0.77004  0.11395  1.0000
  H   H914      1.0  0.39605  0.95230  0.45334  1.0000
  C   C518      1.0  0.29706  0.86367  0.40048  1.0000
  H   H915      1.0  0.33869  0.86361  0.40871  1.0000
  H   H916      1.0  0.46364  0.92707  0.46609  1.0000
  H   H917      1.0  0.41781  0.75845  0.05096  1.0000
  H   H918      1.0  0.42194  0.97043  0.38007  1.0000
  Fe  Fe61      1.0  0.34085  0.92866  0.47902  1.0000
  S   S114      1.0  0.48527  0.89364  0.38463  1.0000
  H   H919      1.0  0.47656  0.91120  0.45635  1.0000
  C   C519      1.0  0.34450  0.80992  0.05756  1.0000
  C   C520      1.0  0.44954  0.76580  0.03819  1.0000
  H   H920      1.0  0.30364  0.82511  0.36036  1.0000
  H   H921      1.0  0.40725  0.84190  0.48393  1.0000
  N   N29       1.0  0.41463  0.98287  0.41369  1.0000
  H   H922      1.0  0.45823  0.99497  0.39805  1.0000
  H   H923      1.0  0.43668  0.99531  0.44472  1.0000
  H   H924      1.0  0.45675  0.85256  0.04669  1.0000
  C   C521      1.0  0.41350  0.96307  0.45487  1.0000
  H   H925      1.0  0.41617  0.95321  0.40585  1.0000
  C   C522      1.0  0.32919  0.84853  0.39821  1.0000
  Fe  Fe62      1.0  0.30581  0.87999  0.48478  1.0000
  H   H926      1.0  0.33612  0.82176  0.38655  1.0000
  H   H927      1.0  0.27978  0.80516  0.40905  1.0000
  H   H928      1.0  0.43165  0.92619  0.06962  1.0000
  H   H929      1.0  0.43171  0.89123  0.06710  1.0000
  C   C523      1.0  0.44170  0.89265  0.46475  1.0000
  C   C524      1.0  0.29853  0.81509  0.45525  1.0000
  H   H930      1.0  0.38675  0.98704  0.37614  1.0000
  H   H931      1.0  0.41053  0.90882  0.04914  1.0000
  N   N30       1.0  0.30930  0.83444  0.41271  1.0000
  H   H932      1.0  0.47367  0.84458  0.20364  1.0000
  H   H933      1.0  0.49487  0.88541  0.22991  1.0000
  H   H934      1.0  0.48762  0.89090  0.25999  1.0000
  C   C525      1.0  0.45147  0.85599  0.06491  1.0000
  H   H935      1.0  0.46380  0.85019  0.32916  1.0000
  C   C526      1.0  0.21640  0.79544  0.47047  1.0000
  H   H936      1.0  0.47174  0.81929  0.21448  1.0000
  H   H937      1.0  0.32501  0.85383  0.38049  1.0000
  C   C527      1.0  0.49607  0.86394  0.29353  1.0000
  H   H938      1.0  0.32748  0.80711  0.05780  1.0000
  C   C528      1.0  0.41608  0.91151  0.06876  1.0000
  H   H939      1.0  0.42241  0.95461  0.44728  1.0000
  H   H940      1.0  0.40166  0.88369  0.12809  1.0000
  C   C529      1.0  0.38577  0.78778  0.99677  1.0000
  H   H941      1.0  0.41039  0.99203  0.45088  1.0000
  H   H942      1.0  0.26400  0.85830  0.40650  1.0000
  C   C530      1.0  0.47683  0.84548  0.33285  1.0000
  N   N31       1.0  0.39714  0.85199  0.08960  1.0000
  C   C531      1.0  0.41869  0.85163  0.08998  1.0000
  C   C532      1.0  0.38915  0.85035  0.11597  1.0000
  C   C533      1.0  0.38163  0.83223  0.07581  1.0000
  C   C534      1.0  0.39775  0.87147  0.07675  1.0000
  H   H943      1.0  0.41974  0.87203  0.13433  1.0000
  C   C535      1.0  0.42729  0.84900  0.06425  1.0000
  C   C536      1.0  0.35769  0.82785  0.07572  1.0000
  C   C537      1.0  0.40268  0.86893  0.13378  1.0000
  H   H944      1.0  0.44770  0.81078  0.99489  1.0000
  S   S115      1.0  0.44760  0.75480  0.10741  1.0000
  H   H945      1.0  0.48201  0.98055  0.31325  1.0000
  H   H946      1.0  0.41785  0.83819  0.10177  1.0000
  H   H947      1.0  0.43115  0.86607  0.09909  1.0000
  H   H948      1.0  0.37285  0.84956  0.11638  1.0000
  H   H949      1.0  0.38758  0.83521  0.12455  1.0000
  H   H950      1.0  0.38225  0.81777  0.08344  1.0000
  H   H951      1.0  0.38643  0.83294  0.05599  1.0000
  H   H952      1.0  0.39449  0.86840  0.05649  1.0000
  H   H953      1.0  0.38448  0.87480  0.08374  1.0000
  Fe  Fe63      1.0  0.48597  0.93840  0.30896  1.0000
  H   H954      1.0  0.39458  0.84917  0.16720  1.0000
  H   H955      1.0  0.41925  0.83190  0.05865  1.0000
  H   H956      1.0  0.42189  0.76283  0.01817  1.0000
  H   H957      1.0  0.38419  0.95453  0.41636  1.0000
  H   H958      1.0  0.35046  0.82253  0.09436  1.0000
  S   S116      1.0  0.35306  0.96313  0.46414  1.0000
  C   C538      1.0  0.45691  0.96463  0.38935  1.0000
  H   H959      1.0  0.28880  0.82340  0.46044  1.0000
  H   H960      1.0  0.36845  0.78146  0.99720  1.0000
  H   H961      1.0  0.37730  0.86180  0.16127  1.0000
  H   H962      1.0  0.23289  0.82435  0.44882  1.0000
  C   C539      1.0  0.41941  0.98450  0.44116  1.0000
  C   C540      1.0  0.42522  0.75509  0.03434  1.0000
  C   C541      1.0  0.48286  0.83536  0.20731  1.0000
  H   H963      1.0  0.49909  0.83759  0.31317  1.0000
  H   H964      1.0  0.38862  0.96258  0.37061  1.0000
  H   H965      1.0  0.30258  0.85555  0.43693  1.0000
  H   H966      1.0  0.32576  0.81924  0.43303  1.0000
  C   C542      1.0  0.49176  0.84862  0.25176  1.0000
  C   C543      1.0  0.29658  0.84659  0.41923  1.0000
  H   H967      1.0  0.28359  0.87861  0.42622  1.0000
  H   H968      1.0  0.37248  0.84509  0.36879  1.0000
  H   H969      1.0  0.44459  0.92124  0.42641  1.0000
  H   H970      1.0  0.35227  0.94173  0.38883  1.0000
  H   H971      1.0  0.48484  0.83212  0.25932  1.0000
  C   C544      1.0  0.31665  0.82858  0.43671  1.0000
  H   H972      1.0  0.48928  0.85788  0.34471  1.0000
  H   H973      1.0  0.40234  0.86127  0.46668  1.0000
  C   C545      1.0  0.29530  0.81399  0.39911  1.0000
  H   H974      1.0  0.35602  0.84234  0.07033  1.0000
  C   C546      1.0  0.36711  0.98862  0.47925  1.0000
  C   C547      1.0  0.39409  0.86393  0.16034  1.0000
  H   H975      1.0  0.31661  0.80121  0.47512  1.0000
  S   S117      1.0  0.48997  0.90817  0.31037  1.0000
  H   H976      1.0  0.40421  0.91412  0.08026  1.0000
  C   C548      1.0  0.47520  0.87589  0.47992  1.0000
  H   H977      1.0  0.27223  0.79622  0.34066  1.0000
  H   H978      1.0  0.47638  0.88037  0.46007  1.0000
  C   C549      1.0  0.27668  0.79423  0.35996  1.0000
  H   H979      1.0  0.26168  0.78461  0.37047  1.0000
  H   H980      1.0  0.29378  0.85758  0.38124  1.0000
  H   H981      1.0  0.36801  0.86814  0.37455  1.0000
  H   H982      1.0  0.35479  0.83992  0.40869  1.0000
  C   C550      1.0  0.35768  0.95849  0.38259  1.0000
  C   C551      1.0  0.42445  0.97034  0.40048  1.0000
  C   C552      1.0  0.43037  0.80432  0.99533  1.0000
  H   H983      1.0  0.20333  0.78814  0.45735  1.0000
  H   H984      1.0  0.28763  0.79933  0.44716  1.0000
  H   H985      1.0  0.28662  0.78546  0.35927  1.0000
  C   C553      1.0  0.34478  0.83876  0.39210  1.0000
  H   H986      1.0  0.34506  0.79484  0.06297  1.0000
  H   H987      1.0  0.27866  0.82421  0.37152  1.0000
  C   C554      1.0  0.28923  0.81619  0.37199  1.0000
  H   H988      1.0  0.45470  0.96625  0.36914  1.0000
  H   H989      1.0  0.46037  0.87341  0.06863  1.0000
  C   C555      1.0  0.46148  0.91280  0.45510  1.0000
  H   H990      1.0  0.47427  0.96995  0.39296  1.0000
  H   H991      1.0  0.43766  0.87971  0.45067  1.0000
  H   H992      1.0  0.47767  0.85201  0.24935  1.0000
  C   C556      1.0  0.39058  0.97145  0.41024  1.0000
  H   H993      1.0  0.42397  0.85831  0.04966  1.0000
  H   H994      1.0  0.47362  0.82984  0.29783  1.0000
  H   H995      1.0  0.35193  0.95824  0.36330  1.0000
  H   H996      1.0  0.45549  0.84717  0.07953  1.0000
  H   H997      1.0  0.48234  0.86744  0.28959  1.0000
  H   H998      1.0  0.38252  0.97852  0.42243  1.0000
  H   H999      1.0  0.47306  0.93125  0.42119  1.0000
  C   C557      1.0  0.48663  0.84277  0.30846  1.0000
  H   H1000     1.0  0.35076  0.81420  0.03835  1.0000
  C   C558      1.0  0.49630  0.99489  0.30844  1.0000
  C   C559      1.0  0.44894  0.97823  0.40435  1.0000
  H   H1001     1.0  0.45278  0.97724  0.42415  1.0000
  H   H1002     1.0  0.35035  0.96629  0.39477  1.0000
  C   C560      1.0  0.25066  0.82635  0.48234  1.0000
  H   H1003     1.0  0.44182  0.85504  0.47577  1.0000
  C   C561      1.0  0.41887  0.96694  0.48252  1.0000
  H   H1004     1.0  0.49885  0.86399  0.47450  1.0000
  H   H1005     1.0  0.48972  0.83337  0.18945  1.0000
  C   C562      1.0  0.38219  0.97075  0.38339  1.0000
  C   C563      1.0  0.40359  0.85574  0.48562  1.0000
  C   C564      1.0  0.23333  0.81613  0.46565  1.0000
  H   H1006     1.0  0.45403  0.75824  0.05381  1.0000
  S   S118      1.0  0.39228  0.75277  0.09801  1.0000
  H   H1007     1.0  0.36919  0.83515  0.48592  1.0000
  H   H1008     1.0  0.43617  0.97788  0.48528  1.0000
  H   H1009     1.0  0.42407  0.99276  0.57251  1.0000
  H   H1010     1.0  0.43967  0.75637  0.78908  1.0000
  H   H1011     1.0  0.46461  0.77719  0.75200  1.0000
  S   S119      1.0  0.36685  0.92135  0.49401  1.0000
  Fe  Fe64      1.0  0.44491  0.89051  0.62697  1.0000
  S   S120      1.0  0.43588  0.89883  0.66389  1.0000
  S   S121      1.0  0.42440  0.87826  0.59239  1.0000
  Fe  Fe65      1.0  0.46918  0.92634  0.66406  1.0000
  H   H1012     1.0  0.45606  0.83159  0.69474  1.0000
  Fe  Fe66      1.0  0.45142  0.87971  0.68093  1.0000
  S   S122      1.0  0.43149  0.85418  0.70954  1.0000
  S   S123      1.0  0.47683  0.91964  0.62553  1.0000
  S   S124      1.0  0.45816  0.86937  0.64358  1.0000
  Fe  Fe67      1.0  0.42327  0.77396  0.85924  1.0000
  S   S125      1.0  0.40112  0.76438  0.89199  1.0000
  Fe  Fe68      1.0  0.42161  0.81620  0.85092  1.0000
  S   S126      1.0  0.39945  0.81086  0.88381  1.0000
  S   S127      1.0  0.43930  0.84616  0.82698  1.0000
  Fe  Fe69      1.0  0.41950  0.79831  0.90489  1.0000
  S   S128      1.0  0.43318  0.80507  0.94437  1.0000
  Fe  Fe70      1.0  0.38225  0.77707  0.86926  1.0000
  S   S129      1.0  0.44331  0.80692  0.87356  1.0000
  S   S130      1.0  0.40268  0.78333  0.83496  1.0000
  Fe  Fe71      1.0  0.34253  0.90188  0.52225  1.0000
  S   S131      1.0  0.31646  0.91006  0.50853  1.0000
  S   S132      1.0  0.35328  0.90730  0.56221  1.0000
  C   C565      1.0  0.45176  0.86802  0.48887  1.0000
  H   H1013     1.0  0.25004  0.79287  0.61846  1.0000
  H   H1014     1.0  0.45767  0.82147  0.77735  1.0000
  H   H1015     1.0  0.25908  0.81348  0.57889  1.0000
  S   S133      1.0  0.33066  0.87116  0.50076  1.0000
  H   H1016     1.0  0.41993  0.79902  0.77732  1.0000
  C   C566      1.0  0.31120  0.84448  0.56628  1.0000
  C   C567      1.0  0.27106  0.80899  0.58726  1.0000
  H   H1017     1.0  0.34280  0.84330  0.53544  1.0000
  C   C568      1.0  0.38071  0.76139  0.76840  1.0000
  H   H1018     1.0  0.36120  0.97677  0.51668  1.0000
  H   H1019     1.0  0.48803  0.77835  0.91490  1.0000
  C   C569      1.0  0.25066  0.81519  0.50403  1.0000
  S   S134      1.0  0.19454  0.75828  0.50001  1.0000
  C   C570      1.0  0.41884  0.80001  0.97285  1.0000
  H   H1020     1.0  0.44190  0.96469  0.73829  1.0000
  C   C571      1.0  0.40475  0.88667  0.58458  1.0000
  C   C572      1.0  0.39956  0.89948  0.60049  1.0000
  C   C573      1.0  0.38366  0.90571  0.59354  1.0000
  C   C574      1.0  0.37326  0.89953  0.57048  1.0000
  C   C575      1.0  0.37854  0.88683  0.55455  1.0000
  C   C576      1.0  0.39402  0.88020  0.56175  1.0000
  H   H1021     1.0  0.40772  0.90450  0.61815  1.0000
  H   H1022     1.0  0.37961  0.91553  0.60594  1.0000
  H   H1023     1.0  0.37059  0.88201  0.53678  1.0000
  H   H1024     1.0  0.39773  0.87003  0.54964  1.0000
  C   C577      1.0  0.43404  0.85273  0.74224  1.0000
  C   C578      1.0  0.41622  0.83833  0.75591  1.0000
  C   C579      1.0  0.41765  0.83599  0.78176  1.0000
  C   C580      1.0  0.43698  0.84798  0.79428  1.0000
  C   C581      1.0  0.45481  0.86243  0.78061  1.0000
  C   C582      1.0  0.45343  0.86461  0.75469  1.0000
  H   H1025     1.0  0.40118  0.82894  0.74644  1.0000
  H   H1026     1.0  0.40372  0.82503  0.79205  1.0000
  H   H1027     1.0  0.46983  0.87179  0.79012  1.0000
  H   H1028     1.0  0.46740  0.87521  0.74426  1.0000
  C   C583      1.0  0.29664  0.88022  0.56999  1.0000
  C   C584      1.0  0.42919  0.90144  0.73297  1.0000
  C   C585      1.0  0.28783  0.82763  0.60295  1.0000
  H   H1029     1.0  0.48234  0.85346  0.50159  1.0000
  C   C586      1.0  0.41219  0.99790  0.56531  1.0000
  H   H1030     1.0  0.27039  0.88794  0.57950  1.0000
  C   C587      1.0  0.44384  0.91096  0.79309  1.0000
  H   H1031     1.0  0.23374  0.78650  0.52604  1.0000
  H   H1032     1.0  0.47368  0.91147  0.50024  1.0000
  H   H1033     1.0  0.31966  0.81728  0.53454  1.0000
  H   H1034     1.0  0.49255  0.89156  0.58952  1.0000
  H   H1035     1.0  0.38738  0.78851  0.95657  1.0000
  C   C588      1.0  0.45696  0.90296  0.50715  1.0000
  C   C589      1.0  0.47346  0.92612  0.74762  1.0000
  H   H1036     1.0  0.24681  0.77618  0.59177  1.0000
  S   S135      1.0  0.34605  0.75920  0.86946  1.0000
  H   H1037     1.0  0.41515  0.88602  0.50520  1.0000
  H   H1038     1.0  0.27889  0.80429  0.57212  1.0000
  C   C590      1.0  0.25878  0.78925  0.60335  1.0000
  S   S136      1.0  0.47269  0.95893  0.67567  1.0000
  H   H1039     1.0  0.34011  0.84346  0.58159  1.0000
  H   H1040     1.0  0.43157  0.79177  0.72079  1.0000
  H   H1041     1.0  0.42513  0.92819  0.74817  1.0000
  C   C591      1.0  0.47501  0.91648  0.54895  1.0000
  N   N32       1.0  0.44275  0.79110  0.75827  1.0000
  N   N33       1.0  0.30077  0.84817  0.58914  1.0000
  H   H1042     1.0  0.44619  0.79252  0.81148  1.0000
  H   H1043     1.0  0.44254  0.89299  0.54398  1.0000
  C   C592      1.0  0.49804  0.98159  0.67389  1.0000
  H   H1044     1.0  0.32973  0.87732  0.59582  1.0000
  H   H1045     1.0  0.47616  0.81203  0.76684  1.0000
  H   H1046     1.0  0.30174  0.85773  0.64221  1.0000
  H   H1047     1.0  0.47477  0.91214  0.56882  1.0000
  C   C593      1.0  0.36859  0.99085  0.50512  1.0000
  H   H1048     1.0  0.43824  0.81554  0.73794  1.0000
  C   C594      1.0  0.45820  0.89737  0.53478  1.0000
  H   H1049     1.0  0.47638  0.96129  0.72877  1.0000
  H   H1050     1.0  0.46805  0.94411  0.79282  1.0000
  H   H1051     1.0  0.38743  0.96504  0.56304  1.0000
  C   C595      1.0  0.45348  0.93376  0.78191  1.0000
  H   H1052     1.0  0.45326  0.90231  0.78808  1.0000
  H   H1053     1.0  0.27447  0.84707  0.56668  1.0000
  C   C596      1.0  0.38983  0.98037  0.57174  1.0000
  C   C597      1.0  0.31073  0.87117  0.62935  1.0000
  H   H1054     1.0  0.27542  0.85740  0.59684  1.0000
  H   H1055     1.0  0.39926  0.78402  0.74055  1.0000
  H   H1056     1.0  0.48424  0.96768  0.76027  1.0000
  C   C598      1.0  0.40133  0.77253  0.75323  1.0000
  H   H1057     1.0  0.44140  0.76622  0.73306  1.0000
  H   H1058     1.0  0.32810  0.85547  0.61327  1.0000
  H   H1059     1.0  0.26367  0.82254  0.51719  1.0000
  C   C599      1.0  0.46999  0.95918  0.74809  1.0000
  C   C600      1.0  0.47237  0.77607  0.90710  1.0000
  C   C601      1.0  0.40646  0.89247  0.72231  1.0000
  H   H1060     1.0  0.44077  0.93353  0.72060  1.0000
  C   C602      1.0  0.28582  0.85738  0.58115  1.0000
  H   H1061     1.0  0.43961  0.89917  0.71885  1.0000
  H   H1062     1.0  0.41522  0.95153  0.49181  1.0000
  H   H1063     1.0  0.43593  0.89499  0.82878  1.0000
  C   C603      1.0  0.21611  0.78443  0.49239  1.0000
  H   H1064     1.0  0.40102  0.87551  0.71684  1.0000
  C   C604      1.0  0.31823  0.86317  0.60618  1.0000
  H   H1065     1.0  0.39514  0.89313  0.73641  1.0000
  H   H1066     1.0  0.28805  0.90431  0.55548  1.0000
  H   H1067     1.0  0.46715  0.78611  0.80020  1.0000
  S   S137      1.0  0.44212  0.75686  0.84617  1.0000
  H   H1068     1.0  0.34096  0.88103  0.64953  1.0000
  H   H1069     1.0  0.34415  0.82062  0.54955  1.0000
  H   H1070     1.0  0.40610  0.90161  0.70560  1.0000
  H   H1071     1.0  0.45148  0.97214  0.76961  1.0000
  H   H1072     1.0  0.42699  0.90169  0.78675  1.0000
  C   C605      1.0  0.44699  0.77217  0.75222  1.0000
  H   H1073     1.0  0.46240  0.88393  0.53679  1.0000
  C   C606      1.0  0.33350  0.82832  0.54595  1.0000
  H   H1074     1.0  0.47922  0.82820  0.68572  1.0000
  C   C607      1.0  0.49539  0.93529  0.76135  1.0000
  H   H1075     1.0  0.46580  0.90865  0.75064  1.0000
  H   H1076     1.0  0.30794  0.89198  0.58331  1.0000
  H   H1077     1.0  0.47686  0.92818  0.72732  1.0000
  H   H1078     1.0  0.42125  0.86638  0.51956  1.0000
  H   H1079     1.0  0.47309  0.82962  0.81995  1.0000
  H   H1080     1.0  0.41342  0.99866  0.54474  1.0000
  C   C608      1.0  0.45997  0.80675  0.77515  1.0000
  H   H1081     1.0  0.29857  0.82186  0.61224  1.0000
  C   C609      1.0  0.44334  0.80280  0.73444  1.0000
  H   H1082     1.0  0.45976  0.92016  0.82913  1.0000
  H   H1083     1.0  0.29891  0.83549  0.55194  1.0000
  H   H1084     1.0  0.37806  0.77323  0.77985  1.0000
  H   H1085     1.0  0.37716  0.98450  0.56466  1.0000
  C   C610      1.0  0.47816  0.81679  0.81720  1.0000
  C   C611      1.0  0.23353  0.79463  0.50904  1.0000
  C   C612      1.0  0.33006  0.88787  0.64344  1.0000
  H   H1086     1.0  0.45004  0.85988  0.50707  1.0000
  H   H1087     1.0  0.42870  0.89165  0.74924  1.0000
  H   H1088     1.0  0.30559  0.88050  0.55289  1.0000
  H   H1089     1.0  0.26885  0.87727  0.54844  1.0000
  C   C613      1.0  0.42113  0.78467  0.77023  1.0000
  C   C614      1.0  0.32566  0.83311  0.57058  1.0000
  H   H1090     1.0  0.41919  0.77484  0.78703  1.0000
  H   H1091     1.0  0.49685  0.88418  0.54522  1.0000
  H   H1092     1.0  0.30029  0.87876  0.62427  1.0000
  H   H1093     1.0  0.47136  0.93038  0.54780  1.0000
  C   C615      1.0  0.43817  0.92559  0.73914  1.0000
  C   C616      1.0  0.27987  0.88779  0.56298  1.0000
  C   C617      1.0  0.45648  0.97179  0.75014  1.0000
  C   C618      1.0  0.46955  0.99491  0.74167  1.0000
  H   H1094     1.0  0.32176  0.86000  0.55735  1.0000
  H   H1095     1.0  0.33920  0.90199  0.63145  1.0000
  H   H1096     1.0  0.27880  0.83049  0.61838  1.0000
  H   H1097     1.0  0.32448  0.89329  0.66012  1.0000
  H   H1098     1.0  0.31696  0.81771  0.58043  1.0000
  H   H1099     1.0  0.44171  0.94004  0.78608  1.0000
  H   H1100     1.0  0.49131  0.92091  0.54149  1.0000
  Fe  Fe72      1.0  0.48952  0.89911  0.64452  1.0000
  C   C619      1.0  0.46314  0.82016  0.69457  1.0000
  C   C620      1.0  0.39645  0.79176  0.97370  1.0000
  C   C621      1.0  0.44324  0.91160  0.82143  1.0000
  S   S138      1.0  0.48423  0.90788  0.68350  1.0000
  H   H1101     1.0  0.43343  0.91957  0.82779  1.0000
  H   H1102     1.0  0.47296  0.80251  0.71996  1.0000
  N   N34       1.0  0.45856  0.93567  0.75451  1.0000
  H   H1103     1.0  0.37691  0.86090  0.49995  1.0000
  H   H1104     1.0  0.45282  0.80603  0.68317  1.0000
  C   C622      1.0  0.46166  0.79872  0.80142  1.0000
  C   C623      1.0  0.46539  0.81348  0.72101  1.0000
  H   H1105     1.0  0.39479  0.75308  0.95746  1.0000
  H   H1106     1.0  0.26994  0.78356  0.61160  1.0000
  H   H1107     1.0  0.47642  0.82821  0.73108  1.0000
  N   N35       1.0  0.44336  0.88451  0.49036  1.0000
  H   H1108     1.0  0.49424  0.82364  0.80829  1.0000
  H   H1109     1.0  0.47943  0.81045  0.83571  1.0000
  C   C624      1.0  0.43638  0.75221  0.76924  1.0000
  H   H1110     1.0  0.46819  0.78833  0.91528  1.0000
  H   H1111     1.0  0.47391  0.77857  0.88670  1.0000
  H   H1112     1.0  0.45062  0.91506  0.50697  1.0000
  C   C625      1.0  0.42103  0.87384  0.50137  1.0000
  C   C626      1.0  0.38147  0.84765  0.49779  1.0000
  H   H1113     1.0  0.38145  0.84066  0.51631  1.0000
  H   H1114     1.0  0.38804  0.97798  0.59215  1.0000
  C   C627      1.0  0.45473  0.75378  0.91322  1.0000
  H   H1115     1.0  0.49318  0.93433  0.78177  1.0000
  H   H1116     1.0  0.40899  0.97392  0.49139  1.0000
  H   H1117     1.0  0.48673  0.88956  0.49103  1.0000
  H   H1118     1.0  0.49927  0.90601  0.76103  1.0000
  H   H1119     1.0  0.40331  0.76038  0.74170  1.0000
  H   H1120     1.0  0.47430  0.99538  0.72190  1.0000
  H   H1121     1.0  0.29455  0.80171  0.49225  1.0000
  H   H1122     1.0  0.36676  0.75338  0.75573  1.0000
  H   H1123     1.0  0.43941  0.75295  0.90607  1.0000
  H   H1124     1.0  0.45366  0.75244  0.93372  1.0000
  H   H1125     1.0  0.31895  0.82603  0.48808  1.0000
  C   C628      1.0  0.64854  0.23190  0.99654  1.0000
  S   S139      1.0  0.70744  0.11340  0.45272  1.0000
  S   S140      1.0  0.65798  0.13048  0.45314  1.0000
  C   C629      1.0  0.52325  0.14028  0.42041  1.0000
  H   H1126     1.0  0.81078  0.17812  0.46190  1.0000
  H   H1127     1.0  0.51677  0.17868  0.47260  1.0000
  C   C630      1.0  0.69070  0.16451  0.30178  1.0000
  H   H1128     1.0  0.65939  0.01052  0.44195  1.0000
  H   H1129     1.0  0.61194  0.05893  0.33938  1.0000
  Fe  Fe73      1.0  0.59141  0.10964  0.33444  1.0000
  S   S141      1.0  0.59260  0.14210  0.33710  1.0000
  S   S142      1.0  0.61963  0.10336  0.34447  1.0000
  Fe  Fe74      1.0  0.54524  0.08875  0.31720  1.0000
  S   S143      1.0  0.54268  0.11970  0.31878  1.0000
  S   S144      1.0  0.51487  0.05879  0.30848  1.0000
  Fe  Fe75      1.0  0.57524  0.13428  0.30038  1.0000
  S   S145      1.0  0.58235  0.16120  0.27231  1.0000
  Fe  Fe76      1.0  0.56020  0.12505  0.35496  1.0000
  S   S146      1.0  0.55427  0.13880  0.39050  1.0000
  S   S147      1.0  0.57648  0.10280  0.29615  1.0000
  S   S148      1.0  0.56033  0.09307  0.35493  1.0000
  Fe  Fe77      1.0  0.62387  0.21060  0.13854  1.0000
  S   S149      1.0  0.65570  0.23071  0.11993  1.0000
  S   S150      1.0  0.61961  0.18155  0.16186  1.0000
  H   H1130     1.0  0.53356  0.03012  0.34893  1.0000
  H   H1131     1.0  0.56707  0.16586  0.45838  1.0000
  C   C631      1.0  0.52751  0.13285  0.39790  1.0000
  Fe  Fe78      1.0  0.63649  0.23129  0.08623  1.0000
  C   C632      1.0  0.51676  0.03435  0.37978  1.0000
  H   H1132     1.0  0.60597  0.19174  0.45634  1.0000
  H   H1133     1.0  0.60696  0.04599  0.37803  1.0000
  S   S151      1.0  0.60496  0.20875  0.10361  1.0000
  H   H1134     1.0  0.71874  0.18315  0.27885  1.0000
  H   H1135     1.0  0.62694  0.17132  0.29033  1.0000
  H   H1136     1.0  0.57789  0.06041  0.34415  1.0000
  H   H1137     1.0  0.62783  0.13792  0.26535  1.0000
  H   H1138     1.0  0.55199  0.03229  0.40115  1.0000
  H   H1139     1.0  0.68850  0.19450  0.30439  1.0000
  C   C633      1.0  0.63658  0.22573  0.01867  1.0000
  C   C634      1.0  0.61424  0.21397  0.01722  1.0000
  H   H1140     1.0  0.53394  0.20613  0.46416  1.0000
  H   H1141     1.0  0.60485  0.20912  0.03409  1.0000
  C   C635      1.0  0.51514  0.03380  0.30500  1.0000
  C   C636      1.0  0.57685  0.04403  0.34419  1.0000
  H   H1142     1.0  0.52240  0.05169  0.37627  1.0000
  C   C637      1.0  0.51955  0.19550  0.47501  1.0000
  C   C638      1.0  0.54120  0.11527  0.22672  1.0000
  C   C639      1.0  0.61040  0.17679  0.19311  1.0000
  C   C640      1.0  0.60301  0.18991  0.20526  1.0000
  C   C641      1.0  0.59470  0.18494  0.22954  1.0000
  C   C642      1.0  0.59381  0.16693  0.24210  1.0000
  C   C643      1.0  0.60156  0.15401  0.23017  1.0000
  C   C644      1.0  0.60974  0.15889  0.20578  1.0000
  H   H1143     1.0  0.60332  0.20367  0.19577  1.0000
  H   H1144     1.0  0.58877  0.19507  0.23858  1.0000
  H   H1145     1.0  0.60083  0.14004  0.23951  1.0000
  H   H1146     1.0  0.61534  0.14859  0.19651  1.0000
  C   C645      1.0  0.59201  0.04373  0.41343  1.0000
  H   H1147     1.0  0.85394  0.24579  0.40805  1.0000
  H   H1148     1.0  0.58402  0.03690  0.29398  1.0000
  S   S152      1.0  0.57381  0.24253  0.11900  1.0000
  H   H1149     1.0  0.68541  0.22685  0.07531  1.0000
  C   C646      1.0  0.56049  0.09239  0.21980  1.0000
  H   H1150     1.0  0.64578  0.17442  0.26653  1.0000
  C   C647      1.0  0.55488  0.03828  0.38176  1.0000
  H   H1151     1.0  0.54744  0.04657  0.29094  1.0000
  C   C648      1.0  0.64714  0.12200  0.42317  1.0000
  C   C649      1.0  0.65582  0.11245  0.40671  1.0000
  C   C650      1.0  0.64715  0.10659  0.38267  1.0000
  C   C651      1.0  0.62972  0.11015  0.37500  1.0000
  C   C652      1.0  0.62079  0.11932  0.39160  1.0000
  C   C653      1.0  0.62955  0.12532  0.41554  1.0000
  H   H1152     1.0  0.66937  0.10982  0.41243  1.0000
  H   H1153     1.0  0.65411  0.09945  0.36995  1.0000
  H   H1154     1.0  0.60734  0.12212  0.38591  1.0000
  H   H1155     1.0  0.62277  0.13274  0.42814  1.0000
  C   C654      1.0  0.59735  0.05040  0.30355  1.0000
  H   H1156     1.0  0.54500  0.10153  0.19111  1.0000
  C   C655      1.0  0.65300  0.20331  0.28671  1.0000
  H   H1157     1.0  0.55360  0.14213  0.14719  1.0000
  H   H1158     1.0  0.80664  0.22349  0.38402  1.0000
  S   S153      1.0  0.65044  0.23189  0.04750  1.0000
  C   C656      1.0  0.59745  0.04565  0.33123  1.0000
  Fe  Fe79      1.0  0.60437  0.23877  0.11817  1.0000
  H   H1159     1.0  0.54653  0.01081  0.28534  1.0000
  C   C657      1.0  0.78882  0.18772  0.47987  1.0000
  C   C658      1.0  0.54221  0.09723  0.21103  1.0000
  C   C659      1.0  0.52868  0.14223  0.23469  1.0000
  H   H1160     1.0  0.59784  0.06575  0.38289  1.0000
  H   H1161     1.0  0.62569  0.05023  0.41739  1.0000
  C   C660      1.0  0.59316  0.04836  0.38514  1.0000
  H   H1162     1.0  0.56516  0.14452  0.19108  1.0000
  S   S154      1.0  0.68461  0.05064  0.46682  1.0000
  C   C661      1.0  0.52248  0.13687  0.26240  1.0000
  H   H1163     1.0  0.66583  0.24099  0.99746  1.0000
  H   H1164     1.0  0.59457  0.14353  0.03830  1.0000
  C   C662      1.0  0.60575  0.15673  0.02632  1.0000
  H   H1165     1.0  0.52121  0.15252  0.29671  1.0000
  C   C663      1.0  0.79817  0.22979  0.39660  1.0000
  H   H1166     1.0  0.62119  0.16547  0.03644  1.0000
  H   H1167     1.0  0.55936  0.05569  0.38285  1.0000
  H   H1168     1.0  0.54220  0.16927  0.27589  1.0000
  H   H1169     1.0  0.63271  0.10602  0.25614  1.0000
  H   H1170     1.0  0.57936  0.11154  0.46079  1.0000
  H   H1171     1.0  0.51472  0.03124  0.40006  1.0000
  H   H1172     1.0  0.59010  0.14897  0.45676  1.0000
  H   H1173     1.0  0.58998  0.20270  0.47149  1.0000
  H   H1174     1.0  0.55244  0.12389  0.45017  1.0000
  C   C664      1.0  0.70250  0.23404  0.08127  1.0000
  H   H1175     1.0  0.59548  0.06523  0.30079  1.0000
  H   H1176     1.0  0.55590  0.16446  0.19697  1.0000
  C   C665      1.0  0.71497  0.17713  0.29819  1.0000
  H   H1177     1.0  0.53636  0.14988  0.43259  1.0000
  H   H1178     1.0  0.68496  0.15048  0.28917  1.0000
  C   C666      1.0  0.54864  0.12262  0.47043  1.0000
  C   C667      1.0  0.63537  0.11241  0.27538  1.0000
  H   H1179     1.0  0.51448  0.16322  0.26940  1.0000
  H   H1180     1.0  0.70295  0.23140  0.10156  1.0000
  H   H1181     1.0  0.56311  0.03456  0.33192  1.0000
  C   C668      1.0  0.58514  0.15070  0.47601  1.0000
  H   H1182     1.0  0.53726  0.10877  0.24589  1.0000
  H   H1183     1.0  0.65591  0.14463  0.26370  1.0000
  H   H1184     1.0  0.60940  0.10194  0.46544  1.0000
  H   H1185     1.0  0.64913  0.20858  0.30465  1.0000
  C   C669      1.0  0.61414  0.05542  0.42560  1.0000
  H   H1186     1.0  0.58137  0.04950  0.42280  1.0000
  H   H1187     1.0  0.61291  0.05190  0.44580  1.0000
  H   H1188     1.0  0.62046  0.07297  0.42323  1.0000
  C   C670      1.0  0.64251  0.21074  0.26640  1.0000
  H   H1189     1.0  0.68086  0.18135  0.27541  1.0000
  H   H1190     1.0  0.52728  0.11875  0.17845  1.0000
  C   C671      1.0  0.53261  0.02689  0.36904  1.0000
  H   H1191     1.0  0.68784  0.15832  0.32098  1.0000
  H   H1192     1.0  0.78783  0.23492  0.38550  1.0000
  N   N36       1.0  0.57308  0.03515  0.37024  1.0000
  C   C672      1.0  0.53322  0.03224  0.29592  1.0000
  H   H1193     1.0  0.67065  0.21158  0.28386  1.0000
  H   H1194     1.0  0.58686  0.19802  0.99302  1.0000
  H   H1195     1.0  0.52710  0.08230  0.21326  1.0000
  H   H1196     1.0  0.59854  0.16780  0.02282  1.0000
  H   H1197     1.0  0.57168  0.16915  0.15574  1.0000
  N   N37       1.0  0.65572  0.16966  0.30332  1.0000
  H   H1198     1.0  0.71083  0.22586  0.07155  1.0000
  C   C673      1.0  0.65366  0.17650  0.32942  1.0000
  H   H1199     1.0  0.62044  0.10343  0.28621  1.0000
  H   H1200     1.0  0.53301  0.13078  0.27122  1.0000
  H   H1201     1.0  0.51817  0.13784  0.18640  1.0000
  H   H1202     1.0  0.64512  0.20549  0.24776  1.0000
  H   H1203     1.0  0.55980  0.00439  0.38854  1.0000
  C   C674      1.0  0.66229  0.16772  0.35086  1.0000
  C   C675      1.0  0.65590  0.17312  0.37610  1.0000
  C   C676      1.0  0.52992  0.13175  0.19180  1.0000
  C   C677      1.0  0.50985  0.09617  0.46164  1.0000
  C   C678      1.0  0.65773  0.00719  0.46166  1.0000
  H   H1204     1.0  0.64134  0.17191  0.99600  1.0000
  H   H1205     1.0  0.65173  0.13790  0.31298  1.0000
  H   H1206     1.0  0.66242  0.19416  0.33132  1.0000
  H   H1207     1.0  0.63652  0.17219  0.33342  1.0000
  C   C679      1.0  0.59618  0.19061  0.47307  1.0000
  C   C680      1.0  0.64113  0.13621  0.27491  1.0000
  H   H1208     1.0  0.78775  0.21667  0.40922  1.0000
  H   H1209     1.0  0.59916  0.03073  0.33342  1.0000
  C   C681      1.0  0.64391  0.14561  0.30153  1.0000
  H   H1210     1.0  0.55852  0.08786  0.23975  1.0000
  C   C682      1.0  0.57730  0.11303  0.48114  1.0000
  S   S155      1.0  0.76623  0.16122  0.47680  1.0000
  H   H1211     1.0  0.50555  0.12470  0.26465  1.0000
  C   C683      1.0  0.53269  0.01202  0.29278  1.0000
  H   H1212     1.0  0.65595  0.15014  0.35013  1.0000
  H   H1213     1.0  0.68011  0.17527  0.35037  1.0000
  H   H1214     1.0  0.66240  0.19069  0.37848  1.0000
  H   H1215     1.0  0.63812  0.16559  0.37798  1.0000
  H   H1216     1.0  0.66244  0.16683  0.39115  1.0000
  C   C684      1.0  0.67906  0.17847  0.29582  1.0000
  C   C685      1.0  0.66775  0.02428  0.47855  1.0000
  H   H1217     1.0  0.58396  0.01051  0.37241  1.0000
  H   H1218     1.0  0.57626  0.10651  0.21704  1.0000
  C   C686      1.0  0.56864  0.01191  0.37119  1.0000
  H   H1219     1.0  0.54338  0.16146  0.15314  1.0000
  H   H1220     1.0  0.62498  0.20422  0.26986  1.0000
  C   C687      1.0  0.51045  0.12072  0.38200  1.0000
  H   H1221     1.0  0.58591  0.02637  0.41703  1.0000
  Fe  Fe80      1.0  0.69582  0.08567  0.48025  1.0000
  H   H1222     1.0  0.54580  0.15444  0.23488  1.0000
  Fe  Fe81      1.0  0.73056  0.13482  0.48245  1.0000
  C   C688      1.0  0.60408  0.20774  0.99389  1.0000
  H   H1223     1.0  0.61277  0.05270  0.29506  1.0000
  H   H1224     1.0  0.72278  0.16659  0.30189  1.0000
  C   C689      1.0  0.55274  0.14976  0.18638  1.0000
  Fe  Fe82      1.0  0.68245  0.12114  0.47032  1.0000
  H   H1225     1.0  0.51356  0.11496  0.36457  1.0000
  H   H1226     1.0  0.64952  0.22846  0.26648  1.0000
  H   H1227     1.0  0.50884  0.20150  0.42793  1.0000
  C   C690      1.0  0.64451  0.17865  0.28618  1.0000
  C   C691      1.0  0.55538  0.15590  0.15891  1.0000
  C   C692      1.0  0.81435  0.24841  0.41197  1.0000
  H   H1228     1.0  0.54129  0.13362  0.47391  1.0000
  H   H1229     1.0  0.84274  0.21320  0.46579  1.0000
  H   H1230     1.0  0.88643  0.24402  0.42318  1.0000
  H   H1231     1.0  0.52565  0.00939  0.37218  1.0000
  H   H1232     1.0  0.55768  0.12856  0.22820  1.0000
  C   C693      1.0  0.60923  0.14764  0.00184  1.0000
  C   C694      1.0  0.80912  0.19120  0.47069  1.0000
  H   H1233     1.0  0.56038  0.07885  0.20890  1.0000
  S   S156      1.0  0.62069  0.23876  0.15411  1.0000
  H   H1234     1.0  0.72175  0.19083  0.31132  1.0000
  H   H1235     1.0  0.51278  0.09883  0.44138  1.0000
  H   H1236     1.0  0.64858  0.10983  0.28389  1.0000
  H   H1237     1.0  0.62751  0.13973  0.30951  1.0000
  N   N38       1.0  0.52566  0.12358  0.21819  1.0000
  H   H1238     1.0  0.72474  0.02059  0.47006  1.0000
  H   H1239     1.0  0.61491  0.13556  0.00646  1.0000
  H   H1240     1.0  0.59337  0.13944  0.99252  1.0000
  C   C695      1.0  0.52527  0.15675  0.27688  1.0000
  H   H1241     1.0  0.50356  0.10713  0.46898  1.0000
  C   C696      1.0  0.82633  0.22875  0.48447  1.0000
  H   H1242     1.0  0.56643  0.00129  0.33225  1.0000
  C   C697      1.0  0.57734  0.16831  0.47502  1.0000
  C   C698      1.0  0.53053  0.09974  0.47518  1.0000
  C   C699      1.0  0.50265  0.10656  0.22094  1.0000
  H   H1243     1.0  0.53520  0.08755  0.46799  1.0000
  C   C700      1.0  0.50206  0.13508  0.42741  1.0000
  H   H1244     1.0  0.51931  0.15041  0.22731  1.0000
  H   H1245     1.0  0.82363  0.24227  0.42332  1.0000
  H   H1246     1.0  0.50088  0.02555  0.37057  1.0000
  C   C701      1.0  0.82744  0.21128  0.47293  1.0000
  H   H1247     1.0  0.50373  0.21526  0.46964  1.0000
  H   H1248     1.0  0.50259  0.08509  0.19036  1.0000
  H   H1249     1.0  0.50117  0.09629  0.23737  1.0000
  C   C702      1.0  0.60633  0.10067  0.48576  1.0000
  H   H1250     1.0  0.60022  0.15694  0.48698  1.0000
  N   N39       1.0  0.56893  0.12929  0.48568  1.0000
  Fe  Fe83      1.0  0.69555  0.11476  0.52225  1.0000
  S   S157      1.0  0.72118  0.10618  0.50821  1.0000
  S   S158      1.0  0.68995  0.11587  0.56355  1.0000
  Fe  Fe84      1.0  0.62346  0.19718  0.85210  1.0000
  S   S159      1.0  0.64308  0.20404  0.88744  1.0000
  S   S160      1.0  0.61188  0.16551  0.83098  1.0000
  C   C703      1.0  0.54640  0.16826  0.75899  1.0000
  C   C704      1.0  0.51021  0.10709  0.61100  1.0000
  C   C705      1.0  0.58395  0.21264  0.78778  1.0000
  H   H1251     1.0  0.69723  0.21954  0.95034  1.0000
  H   H1252     1.0  0.64291  0.10653  0.95193  1.0000
  Fe  Fe85      1.0  0.61848  0.21242  0.90498  1.0000
  S   S161      1.0  0.60296  0.20284  0.94317  1.0000
  S   S162      1.0  0.64132  0.23082  0.83762  1.0000
  S   S163      1.0  0.59754  0.20286  0.87084  1.0000
  Fe  Fe86      1.0  0.58772  0.10988  0.63158  1.0000
  S   S164      1.0  0.57593  0.13133  0.65022  1.0000
  S   S165      1.0  0.60238  0.11702  0.59305  1.0000
  Fe  Fe87      1.0  0.56592  0.07433  0.66950  1.0000
  S   S166      1.0  0.55214  0.09295  0.69135  1.0000
  S   S167      1.0  0.56357  0.04112  0.67522  1.0000
  Fe  Fe88      1.0  0.54451  0.10198  0.65353  1.0000
  H   H1253     1.0  0.78287  0.22849  0.79209  1.0000
  Fe  Fe89      1.0  0.58480  0.12119  0.68664  1.0000
  S   S168      1.0  0.60487  0.14872  0.71339  1.0000
  S   S169      1.0  0.55561  0.08113  0.63261  1.0000
  S   S170      1.0  0.59917  0.10189  0.66724  1.0000
  C   C706      1.0  0.61031  0.16103  0.79825  1.0000
  C   C707      1.0  0.62329  0.17680  0.78154  1.0000
  C   C708      1.0  0.62148  0.17260  0.75575  1.0000
  C   C709      1.0  0.60661  0.15266  0.74623  1.0000
  C   C710      1.0  0.59377  0.13680  0.76299  1.0000
  C   C711      1.0  0.59580  0.14091  0.78881  1.0000
  H   H1254     1.0  0.63477  0.19223  0.78845  1.0000
  H   H1255     1.0  0.63162  0.18494  0.74303  1.0000
  H   H1256     1.0  0.58240  0.12132  0.75604  1.0000
  H   H1257     1.0  0.58599  0.12840  0.80154  1.0000
  C   C712      1.0  0.61608  0.21353  0.97178  1.0000
  C   C713      1.0  0.63833  0.22609  0.97320  1.0000
  H   H1258     1.0  0.73306  0.02512  0.50211  1.0000
  H   H1259     1.0  0.62556  0.12821  0.97032  1.0000
  H   H1260     1.0  0.62163  0.10388  0.49536  1.0000
  H   H1261     1.0  0.56551  0.09696  0.48762  1.0000
  H   H1262     1.0  0.53692  0.10183  0.59882  1.0000
  H   H1263     1.0  0.71580  0.16988  0.65811  1.0000
  H   H1264     1.0  0.65795  0.11570  0.92356  1.0000
  C   C714      1.0  0.53815  0.01845  0.67405  1.0000
  H   H1265     1.0  0.52225  0.21466  0.83407  1.0000
  H   H1266     1.0  0.71227  0.24266  0.79149  1.0000
  C   C715      1.0  0.68147  0.21026  0.94110  1.0000
  H   H1267     1.0  0.53995  0.15317  0.76978  1.0000
  H   H1268     1.0  0.53938  0.21918  0.79235  1.0000
  H   H1269     1.0  0.58928  0.01533  0.65405  1.0000
  H   H1270     1.0  0.67327  0.03225  0.51730  1.0000
  C   C716      1.0  0.66580  0.11658  0.57177  1.0000
  C   C717      1.0  0.66124  0.11811  0.59686  1.0000
  C   C718      1.0  0.64191  0.11849  0.60373  1.0000
  C   C719      1.0  0.62699  0.11705  0.58552  1.0000
  C   C720      1.0  0.63177  0.11589  0.56046  1.0000
  C   C721      1.0  0.65112  0.11569  0.55357  1.0000
  H   H1271     1.0  0.67271  0.11909  0.61099  1.0000
  H   H1272     1.0  0.63864  0.12023  0.62301  1.0000
  H   H1273     1.0  0.62042  0.11508  0.54630  1.0000
  H   H1274     1.0  0.65461  0.11479  0.53417  1.0000
  H   H1275     1.0  0.54915  0.20040  0.76253  1.0000
  H   H1276     1.0  0.57975  0.12146  0.91014  1.0000
  H   H1277     1.0  0.53239  0.15534  0.81139  1.0000
  Fe  Fe90      1.0  0.65859  0.23820  0.87447  1.0000
  H   H1278     1.0  0.61652  0.01096  0.49374  1.0000
  C   C722      1.0  0.63759  0.14306  0.96134  1.0000
  H   H1279     1.0  0.62900  0.12663  0.92544  1.0000
  H   H1280     1.0  0.73667  0.18954  0.62110  1.0000
  H   H1281     1.0  0.58843  0.15406  0.56890  1.0000
  C   C723      1.0  0.60710  0.14969  0.94667  1.0000
  C   C724      1.0  0.61812  0.22510  0.76243  1.0000
  H   H1282     1.0  0.56471  0.23756  0.80569  1.0000
  C   C725      1.0  0.57500  0.14283  0.55712  1.0000
  S   S171      1.0  0.51341  0.10302  0.64286  1.0000
  H   H1283     1.0  0.59427  0.08415  0.49032  1.0000
  H   H1284     1.0  0.61831  0.14852  0.90817  1.0000
  H   H1285     1.0  0.59693  0.15703  0.95409  1.0000
  H   H1286     1.0  0.53182  0.15070  0.72532  1.0000
  H   H1287     1.0  0.61949  0.01821  0.62306  1.0000
  C   C726      1.0  0.54674  0.18689  0.77515  1.0000
  H   H1288     1.0  0.76012  0.24690  0.79604  1.0000
  C   C727      1.0  0.55424  0.20385  0.81653  1.0000
  H   H1289     1.0  0.53006  0.18109  0.78236  1.0000
  H   H1290     1.0  0.54806  0.23262  0.84732  1.0000
  N   N40       1.0  0.72490  0.18248  0.57144  1.0000
  C   C728      1.0  0.71058  0.17341  0.59376  1.0000
  C   C729      1.0  0.71105  0.17666  0.54841  1.0000
  C   C730      1.0  0.73933  0.17153  0.56959  1.0000
  C   C731      1.0  0.73878  0.20635  0.57307  1.0000
  C   C732      1.0  0.72931  0.21964  0.58707  1.0000
  C   C733      1.0  0.72223  0.17402  0.61853  1.0000
  C   C734      1.0  0.75415  0.17704  0.54644  1.0000
  C   C735      1.0  0.69389  0.18500  0.54649  1.0000
  C   C736      1.0  0.67928  0.17533  0.52399  1.0000
  C   C737      1.0  0.59522  0.20751  0.76589  1.0000
  H   H1291     1.0  0.72869  0.21649  0.60732  1.0000
  C   C738      1.0  0.77016  0.16765  0.54872  1.0000
  H   H1292     1.0  0.69917  0.15637  0.59035  1.0000
  H   H1293     1.0  0.61172  0.13302  0.49022  1.0000
  H   H1294     1.0  0.72109  0.18276  0.53149  1.0000
  H   H1295     1.0  0.70253  0.15894  0.54654  1.0000
  H   H1296     1.0  0.72959  0.15382  0.56995  1.0000
  H   H1297     1.0  0.75021  0.17556  0.58596  1.0000
  H   H1298     1.0  0.75429  0.20998  0.58256  1.0000
  H   H1299     1.0  0.74345  0.21317  0.55408  1.0000
  H   H1300     1.0  0.67048  0.15765  0.52570  1.0000
  H   H1301     1.0  0.71281  0.21580  0.58099  1.0000
  H   H1302     1.0  0.72746  0.16114  0.61860  1.0000
  C   C739      1.0  0.65405  0.12095  0.94153  1.0000
  H   H1303     1.0  0.76343  0.19457  0.54404  1.0000
  H   H1304     1.0  0.74465  0.17014  0.52935  1.0000
  H   H1305     1.0  0.68335  0.18082  0.56302  1.0000
  H   H1306     1.0  0.70184  0.20258  0.54387  1.0000
  H   H1307     1.0  0.65527  0.14948  0.92575  1.0000
  H   H1308     1.0  0.66727  0.18170  0.52278  1.0000
  C   C740      1.0  0.50418  0.11279  0.56012  1.0000
  H   H1309     1.0  0.55888  0.04517  0.56584  1.0000
  C   C741      1.0  0.58663  0.00942  0.63467  1.0000
  H   H1310     1.0  0.53645  0.12714  0.83495  1.0000
  H   H1311     1.0  0.55772  0.11371  0.52114  1.0000
  H   H1312     1.0  0.50435  0.05826  0.61746  1.0000
  C   C742      1.0  0.66549  0.01950  0.50399  1.0000
  H   H1313     1.0  0.78074  0.17433  0.56514  1.0000
  H   H1314     1.0  0.76151  0.14995  0.55025  1.0000
  H   H1315     1.0  0.78044  0.17167  0.53190  1.0000
  N   N41       1.0  0.61456  0.04628  0.61782  1.0000
  C   C743      1.0  0.60626  0.02228  0.61773  1.0000
  C   C744      1.0  0.63325  0.05665  0.59997  1.0000
  C   C745      1.0  0.62262  0.05397  0.64383  1.0000
  C   C746      1.0  0.59708  0.05277  0.61195  1.0000
  C   C747      1.0  0.58598  0.04568  0.58641  1.0000
  H   H1316     1.0  0.53544  0.24231  0.82472  1.0000
  C   C748      1.0  0.63577  0.07847  0.64730  1.0000
  C   C749      1.0  0.63281  0.04422  0.57584  1.0000
  C   C750      1.0  0.65003  0.05838  0.55749  1.0000
  C   C751      1.0  0.56668  0.05051  0.58423  1.0000
  H   H1317     1.0  0.56521  0.14267  0.83555  1.0000
  C   C752      1.0  0.64213  0.08416  0.67448  1.0000
  C   C753      1.0  0.56356  0.12992  0.51282  1.0000
  H   H1318     1.0  0.68426  0.20387  0.92329  1.0000
  H   H1319     1.0  0.63527  0.07284  0.59460  1.0000
  H   H1320     1.0  0.64861  0.05934  0.60920  1.0000
  H   H1321     1.0  0.63288  0.04655  0.65062  1.0000
  H   H1322     1.0  0.60895  0.04903  0.65706  1.0000
  H   H1323     1.0  0.58450  0.04698  0.62663  1.0000
  H   H1324     1.0  0.60351  0.07047  0.61233  1.0000
  H   H1325     1.0  0.58009  0.02831  0.58332  1.0000
  H   H1326     1.0  0.59736  0.05478  0.57146  1.0000
  H   H1327     1.0  0.56556  0.20909  0.83263  1.0000
  H   H1328     1.0  0.52690  0.09695  0.49530  1.0000
  H   H1329     1.0  0.62617  0.08674  0.64169  1.0000
  H   H1330     1.0  0.65078  0.08496  0.63626  1.0000
  H   H1331     1.0  0.63612  0.03048  0.58048  1.0000
  H   H1332     1.0  0.61715  0.03785  0.56617  1.0000
  H   H1333     1.0  0.65016  0.04887  0.54103  1.0000
  H   H1334     1.0  0.64668  0.07166  0.55102  1.0000
  H   H1335     1.0  0.66623  0.06520  0.56621  1.0000
  H   H1336     1.0  0.67433  0.22130  0.93703  1.0000
  H   H1337     1.0  0.57194  0.06798  0.58592  1.0000
  C   C754      1.0  0.58170  0.14597  0.52985  1.0000
  C   C755      1.0  0.55044  0.13925  0.82471  1.0000
  H   H1338     1.0  0.58055  0.18416  0.82115  1.0000
  C   C756      1.0  0.53206  0.16434  0.73616  1.0000
  H   H1339     1.0  0.65250  0.07684  0.68095  1.0000
  H   H1340     1.0  0.65118  0.10179  0.67647  1.0000
  H   H1341     1.0  0.62760  0.07854  0.68641  1.0000
  S   S172      1.0  0.63515  0.24675  0.89416  1.0000
  H   H1342     1.0  0.59617  0.19239  0.76880  1.0000
  C   C757      1.0  0.70732  0.17021  0.64076  1.0000
  Fe  Fe91      1.0  0.61657  0.23674  0.85856  1.0000
  H   H1343     1.0  0.55466  0.04201  0.59892  1.0000
  H   H1344     1.0  0.63692  0.19049  0.94440  1.0000
  C   C758      1.0  0.51905  0.02050  0.67394  1.0000
  H   H1345     1.0  0.58457  0.14166  0.88694  1.0000
  H   H1346     1.0  0.67467  0.18164  0.96151  1.0000
  H   H1347     1.0  0.80078  0.24512  0.81589  1.0000
  H   H1348     1.0  0.53838  0.17865  0.72397  1.0000
  H   H1349     1.0  0.54631  0.16536  0.84023  1.0000
  H   H1350     1.0  0.64773  0.23075  0.95635  1.0000
  H   H1351     1.0  0.55139  0.13245  0.80637  1.0000
  C   C759      1.0  0.54771  0.15958  0.82140  1.0000
  H   H1352     1.0  0.53120  0.10618  0.55424  1.0000
  H   H1353     1.0  0.57285  0.16952  0.79350  1.0000
  C   C760      1.0  0.59859  0.11694  0.49421  1.0000
  S   S173      1.0  0.67007  0.09300  0.49616  1.0000
  H   H1354     1.0  0.61054  0.16933  0.91384  1.0000
  N   N42       1.0  0.56284  0.19482  0.79622  1.0000
  H   H1355     1.0  0.60126  0.01549  0.59890  1.0000
  H   H1356     1.0  0.56254  0.17127  0.75238  1.0000
  H   H1357     1.0  0.65181  0.14900  0.97387  1.0000
  C   C761      1.0  0.56706  0.17730  0.80756  1.0000
  C   C762      1.0  0.52389  0.10529  0.59315  1.0000
  H   H1358     1.0  0.53879  0.19132  0.82377  1.0000
  H   H1359     1.0  0.70015  0.18139  0.59686  1.0000
  H   H1360     1.0  0.66919  0.12940  0.95226  1.0000
  H   H1361     1.0  0.57223  0.14279  0.91595  1.0000
  H   H1362     1.0  0.64694  0.17580  0.92669  1.0000
  C   C763      1.0  0.52072  0.10790  0.56786  1.0000
  C   C764      1.0  0.60665  0.15249  0.91808  1.0000
  C   C765      1.0  0.58438  0.13868  0.90723  1.0000
  H   H1363     1.0  0.54982  0.13395  0.51492  1.0000
  H   H1364     1.0  0.59538  0.21847  0.80376  1.0000
  H   H1365     1.0  0.56087  0.14600  0.56010  1.0000
  H   H1366     1.0  0.59680  0.14446  0.52825  1.0000
  H   H1367     1.0  0.62798  0.22639  0.77917  1.0000
  H   H1368     1.0  0.58542  0.16267  0.52501  1.0000
  H   H1369     1.0  0.57099  0.12631  0.56322  1.0000
  H   H1370     1.0  0.58629  0.20632  0.74838  1.0000
  H   H1371     1.0  0.62563  0.22114  0.74629  1.0000
  C   C766      1.0  0.64365  0.13578  0.93667  1.0000
  H   H1372     1.0  0.56768  0.16784  0.49160  1.0000
  H   H1373     1.0  0.59597  0.11486  0.51452  1.0000
  H   H1374     1.0  0.51533  0.16037  0.74173  1.0000
  C   C767      1.0  0.74323  0.24360  0.58329  1.0000
  H   H1375     1.0  0.51966  0.03624  0.67422  1.0000
  C   C768      1.0  0.64424  0.17930  0.94606  1.0000
  H   H1376     1.0  0.61808  0.24073  0.75894  1.0000
  H   H1377     1.0  0.59813  0.13232  0.95094  1.0000
  H   H1378     1.0  0.66544  0.19941  0.97580  1.0000
  H   H1379     1.0  0.58188  0.22665  0.78130  1.0000
  H   H1380     1.0  0.68879  0.17940  0.50654  1.0000
  S   S174      1.0  0.70574  0.14377  0.49808  1.0000
  N   N43       1.0  0.62889  0.15926  0.95938  1.0000
  C   C769      1.0  0.54961  0.22289  0.80920  1.0000
  C   C770      1.0  0.66674  0.19204  0.95802  1.0000
  H   H1381     1.0  0.77330  0.22664  0.82349  1.0000
  H   H1382     1.0  0.57211  0.01035  0.62741  1.0000
  H   H1383     1.0  0.69275  0.15464  0.63883  1.0000
  H   H1384     1.0  0.59891  0.01882  0.51085  1.0000
  C   C771      1.0  0.53809  0.22836  0.83017  1.0000
  H   H1385     1.0  0.70234  0.18321  0.64231  1.0000
  C   C772      1.0  0.78389  0.23781  0.80916  1.0000
  H   H1386     1.0  0.73510  0.24461  0.82719  1.0000
  H   H1387     1.0  0.60651  0.19430  0.48987  1.0000
  H   H1388     1.0  0.69697  0.23681  0.81989  1.0000
  H   H1389     1.0  0.80451  0.23872  0.50230  1.0000
  H   H1390     1.0  0.77208  0.20322  0.49812  1.0000
  H   H1391     1.0  0.74362  0.24783  0.56335  1.0000
  C   C773      1.0  0.80595  0.22553  0.49346  1.0000
  H   H1392     1.0  0.61792  0.01205  0.52706  1.0000
  C   C774      1.0  0.60681  0.00809  0.51095  1.0000
  C   C775      1.0  0.71973  0.01517  0.48941  1.0000
  H   H1393     1.0  0.52275  0.19971  0.49499  1.0000
  H   H1394     1.0  0.62134  0.17887  0.98467  1.0000
  C   C776      1.0  0.78746  0.20528  0.49116  1.0000
  C   C777      1.0  0.62599  0.16561  0.98542  1.0000
  S   S175      1.0  0.50183  0.11711  0.52815  1.0000
  C   C778      1.0  0.71022  0.24953  0.80930  1.0000
  H   H1395     1.0  0.70555  0.01780  0.49407  1.0000
  H   H1396     1.0  0.75990  0.24838  0.58988  1.0000
  Fe  Fe92      1.0  0.89553  0.45793  0.35435  1.0000
  S   S176      1.0  0.92704  0.45652  0.35534  1.0000
  S   S177      1.0  0.88507  0.46670  0.39072  1.0000
  Fe  Fe93      1.0  0.88770  0.44449  0.29911  1.0000
  S   S178      1.0  0.91908  0.44240  0.29637  1.0000
  S   S179      1.0  0.86354  0.44145  0.26825  1.0000
  Fe  Fe94      1.0  0.91010  0.42613  0.33380  1.0000
  S   S180      1.0  0.91712  0.39842  0.34392  1.0000
  Fe  Fe95      1.0  0.93338  0.47291  0.31849  1.0000
  H   H1397     1.0  0.87506  0.43725  0.43502  1.0000
  S   S181      1.0  0.87778  0.42609  0.33520  1.0000
  S   S182      1.0  0.90280  0.47638  0.31886  1.0000
  Fe  Fe96      1.0  0.58602  0.46489  0.35354  1.0000
  S   S183      1.0  0.55716  0.47035  0.36087  1.0000
  S   S184      1.0  0.61175  0.47036  0.38245  1.0000
  Fe  Fe97      1.0  0.56933  0.44395  0.30238  1.0000
  S   S185      1.0  0.53882  0.44770  0.30588  1.0000
  S   S186      1.0  0.57803  0.42439  0.27416  1.0000
  Fe  Fe98      1.0  0.56015  0.48048  0.32098  1.0000
  H   H1398     1.0  0.51761  0.40168  0.22339  1.0000
  Fe  Fe99      1.0  0.53792  0.43732  0.34568  1.0000
  C   C779      1.0  0.99736  0.43981  0.35736  1.0000
  S   S187      1.0  0.59091  0.47770  0.31463  1.0000
  S   S188      1.0  0.56650  0.43090  0.34126  1.0000
  Fe  Fe100     1.0  0.81363  0.40129  0.06843  1.0000
  S   S189      1.0  0.82076  0.38060  0.09526  1.0000
  S   S190      1.0  0.82858  0.41337  0.03039  1.0000
  Fe  Fe101     1.0  0.78323  0.40689  0.10454  1.0000
  S   S191      1.0  0.78704  0.38632  0.13426  1.0000
  S   S192      1.0  0.76355  0.42513  0.10510  1.0000
  Fe  Fe102     1.0  0.82245  0.40354  0.12578  1.0000
  S   S193      1.0  0.84929  0.41080  0.15471  1.0000
  Fe  Fe103     1.0  0.78528  0.36488  0.10250  1.0000
  S   S194      1.0  0.76820  0.32901  0.10496  1.0000
  S   S195      1.0  0.81871  0.42586  0.09812  1.0000
  S   S196      1.0  0.77797  0.38368  0.07350  1.0000
  Fe  Fe104     1.0  0.61526  0.40956  0.13812  1.0000
  S   S197      1.0  0.64779  0.41992  0.12040  1.0000
  S   S198      1.0  0.60580  0.43225  0.15992  1.0000
  Fe  Fe105     1.0  0.59979  0.36351  0.12067  1.0000
  S   S199      1.0  0.63088  0.36981  0.10232  1.0000
  S   S200      1.0  0.57049  0.33174  0.12461  1.0000
  Fe  Fe106     1.0  0.64618  0.38960  0.13603  1.0000
  S   S201      1.0  0.67237  0.38568  0.15657  1.0000
  Fe  Fe107     1.0  0.63017  0.39956  0.08736  1.0000
  S   S202      1.0  0.64502  0.41085  0.04896  1.0000
  S   S203      1.0  0.61504  0.38060  0.15590  1.0000
  S   S204      1.0  0.59766  0.39189  0.10355  1.0000
  Fe  Fe108     1.0  0.89635  0.33362  0.47049  1.0000
  S   S205      1.0  0.90231  0.30611  0.45793  1.0000
  S   S206      1.0  0.88238  0.35154  0.44719  1.0000
  H   H1399     1.0  0.90712  0.47636  0.26171  1.0000
  H   H1400     1.0  0.55217  0.39335  0.10097  1.0000
  C   C780      1.0  0.66818  0.47363  0.28269  1.0000
  H   H1401     1.0  0.81808  0.27419  0.38769  1.0000
  H   H1402     1.0  0.57028  0.39633  0.14181  1.0000
  H   H1403     1.0  0.88257  0.29461  0.41070  1.0000
  C   C781      1.0  0.67304  0.35861  0.07876  1.0000
  C   C782      1.0  0.82297  0.46301  0.00392  1.0000
  C   C783      1.0  0.73804  0.41335  0.11897  1.0000
  C   C784      1.0  0.72444  0.42309  0.11577  1.0000
  C   C785      1.0  0.70391  0.41416  0.12646  1.0000
  C   C786      1.0  0.69722  0.39589  0.14120  1.0000
  C   C787      1.0  0.71080  0.38611  0.14448  1.0000
  C   C788      1.0  0.73110  0.39465  0.13307  1.0000
  H   H1404     1.0  0.72985  0.43766  0.10509  1.0000
  H   H1405     1.0  0.69358  0.42186  0.12405  1.0000
  H   H1406     1.0  0.70558  0.37189  0.15579  1.0000
  H   H1407     1.0  0.74151  0.38704  0.13555  1.0000
  C   C789      1.0  0.57391  0.26783  0.11906  1.0000
  C   C790      1.0  0.55493  0.26880  0.12576  1.0000
  C   C791      1.0  0.55419  0.28847  0.12705  1.0000
  C   C792      1.0  0.57235  0.30747  0.12140  1.0000
  C   C793      1.0  0.59129  0.30662  0.11395  1.0000
  C   C794      1.0  0.59214  0.28679  0.11297  1.0000
  H   H1408     1.0  0.87633  0.47265  0.18210  1.0000
  H   H1409     1.0  0.53946  0.28893  0.13260  1.0000
  H   H1410     1.0  0.60526  0.32120  0.10911  1.0000
  H   H1411     1.0  0.60675  0.28613  0.10745  1.0000
  C   C795      1.0  0.71222  0.32184  0.13563  1.0000
  C   C796      1.0  0.73295  0.33113  0.12537  1.0000
  C   C797      1.0  0.74290  0.31826  0.11922  1.0000
  C   C798      1.0  0.73219  0.29622  0.12353  1.0000
  H   H1412     1.0  0.70448  0.33178  0.14029  1.0000
  H   H1413     1.0  0.74111  0.34816  0.12199  1.0000
  H   H1414     1.0  0.74006  0.28634  0.11926  1.0000
  H   H1415     1.0  0.55862  0.36437  0.21795  1.0000
  C   C799      1.0  0.81869  0.40050  0.00147  1.0000
  C   C800      1.0  0.63484  0.45262  0.30714  1.0000
  H   H1416     1.0  0.79226  0.37276  0.01653  1.0000
  H   H1417     1.0  0.87260  0.34244  0.36514  1.0000
  H   H1418     1.0  0.91714  0.43190  0.20692  1.0000
  C   C801      1.0  0.63417  0.40615  0.01837  1.0000
  H   H1419     1.0  0.86943  0.41105  0.44702  1.0000
  H   H1420     1.0  0.60088  0.39214  0.02903  1.0000
  H   H1421     1.0  0.51477  0.47680  0.31089  1.0000
  H   H1422     1.0  0.64135  0.37879  0.23995  1.0000
  H   H1423     1.0  0.70505  0.26531  0.08681  1.0000
  H   H1424     1.0  0.78912  0.32288  0.05834  1.0000
  C   C802      1.0  0.58533  0.42685  0.24224  1.0000
  C   C803      1.0  0.59333  0.41316  0.23242  1.0000
  C   C804      1.0  0.59968  0.41463  0.20735  1.0000
  C   C805      1.0  0.59780  0.42962  0.19162  1.0000
  C   C806      1.0  0.58944  0.44305  0.20134  1.0000
  C   C807      1.0  0.58323  0.44168  0.22649  1.0000
  H   H1425     1.0  0.59487  0.40149  0.24437  1.0000
  H   H1426     1.0  0.60627  0.40436  0.20026  1.0000
  H   H1427     1.0  0.58787  0.45468  0.18935  1.0000
  H   H1428     1.0  0.57679  0.45208  0.23366  1.0000
  H   H1429     1.0  0.64382  0.48466  0.42064  1.0000
  H   H1430     1.0  0.87710  0.30900  0.36532  1.0000
  C   C808      1.0  0.74689  0.40591  0.03229  1.0000
  C   C809      1.0  0.61206  0.39703  0.01366  1.0000
  H   H1431     1.0  0.53892  0.40472  0.38384  1.0000
  H   H1432     1.0  0.68512  0.39529  0.01427  1.0000
  H   H1433     1.0  0.57751  0.33979  0.18720  1.0000
  H   H1434     1.0  0.57705  0.34093  0.22066  1.0000
  H   H1435     1.0  0.95089  0.47411  0.18810  1.0000
  C   C810      1.0  0.90831  0.38626  0.37326  1.0000
  C   C811      1.0  0.91661  0.37284  0.38307  1.0000
  C   C812      1.0  0.90928  0.36247  0.40604  1.0000
  C   C813      1.0  0.89329  0.36518  0.41912  1.0000
  C   C814      1.0  0.88494  0.37848  0.40920  1.0000
  C   C815      1.0  0.89257  0.38918  0.38655  1.0000
  H   H1436     1.0  0.92875  0.37045  0.37286  1.0000
  H   H1437     1.0  0.91577  0.35218  0.41346  1.0000
  H   H1438     1.0  0.87241  0.38045  0.41908  1.0000
  H   H1439     1.0  0.88595  0.39934  0.37913  1.0000
  C   C816      1.0  0.85962  0.43236  0.23690  1.0000
  C   C817      1.0  0.86965  0.42069  0.22683  1.0000
  C   C818      1.0  0.86638  0.41434  0.20166  1.0000
  C   C819      1.0  0.85263  0.41909  0.18636  1.0000
  C   C820      1.0  0.84241  0.43053  0.19651  1.0000
  C   C821      1.0  0.84592  0.43713  0.22159  1.0000
  H   H1440     1.0  0.87992  0.41656  0.23843  1.0000
  H   H1441     1.0  0.87439  0.40550  0.19402  1.0000
  H   H1442     1.0  0.83226  0.43480  0.18486  1.0000
  H   H1443     1.0  0.83816  0.44626  0.22912  1.0000
  H   H1444     1.0  0.71429  0.47731  0.05597  1.0000
  N   N44       1.0  0.78402  0.37122  0.21409  1.0000
  C   C822      1.0  0.76349  0.35744  0.20038  1.0000
  C   C823      1.0  0.80284  0.37320  0.19855  1.0000
  C   C824      1.0  0.78380  0.36096  0.23878  1.0000
  C   C825      1.0  0.78609  0.39336  0.21877  1.0000
  C   C826      1.0  0.78288  0.40511  0.19587  1.0000
  C   C827      1.0  0.74246  0.35568  0.21233  1.0000
  C   C828      1.0  0.80506  0.37130  0.25396  1.0000
  C   C829      1.0  0.80428  0.35207  0.19316  1.0000
  C   C830      1.0  0.82414  0.35621  0.17768  1.0000
  C   C831      1.0  0.78421  0.42678  0.20320  1.0000
  C   C832      1.0  0.72317  0.34347  0.19536  1.0000
  C   C833      1.0  0.80262  0.36021  0.27901  1.0000
  H   H1445     1.0  0.76136  0.34075  0.19883  1.0000
  H   H1446     1.0  0.76433  0.36290  0.18082  1.0000
  H   H1447     1.0  0.80264  0.38031  0.18025  1.0000
  H   H1448     1.0  0.81824  0.38466  0.20714  1.0000
  H   H1449     1.0  0.77938  0.34367  0.23636  1.0000
  H   H1450     1.0  0.77102  0.36135  0.25088  1.0000
  H   H1451     1.0  0.77479  0.39305  0.23356  1.0000
  H   H1452     1.0  0.80234  0.40397  0.22622  1.0000
  H   H1453     1.0  0.76702  0.39586  0.18690  1.0000
  H   H1454     1.0  0.79555  0.40810  0.18189  1.0000
  H   H1455     1.0  0.73938  0.34693  0.23022  1.0000
  H   H1456     1.0  0.74311  0.37157  0.21586  1.0000
  H   H1457     1.0  0.80989  0.38845  0.25771  1.0000
  H   H1458     1.0  0.81839  0.37004  0.24399  1.0000
  H   H1459     1.0  0.80532  0.34415  0.21058  1.0000
  H   H1460     1.0  0.79013  0.34081  0.18239  1.0000
  H   H1461     1.0  0.82324  0.36303  0.15933  1.0000
  H   H1462     1.0  0.83901  0.36745  0.18741  1.0000
  H   H1463     1.0  0.82505  0.34096  0.17444  1.0000
  H   H1464     1.0  0.80009  0.43712  0.21165  1.0000
  H   H1465     1.0  0.78220  0.43493  0.18639  1.0000
  H   H1466     1.0  0.77128  0.42471  0.21656  1.0000
  H   H1467     1.0  0.70820  0.34186  0.20445  1.0000
  H   H1468     1.0  0.72512  0.35228  0.17765  1.0000
  H   H1469     1.0  0.72144  0.32719  0.19126  1.0000
  H   H1470     1.0  0.78995  0.36161  0.29030  1.0000
  H   H1471     1.0  0.79849  0.34305  0.27634  1.0000
  H   H1472     1.0  0.81804  0.36792  0.28940  1.0000
  N   N45       1.0  0.62834  0.31823  0.18949  1.0000
  C   C834      1.0  0.63012  0.31476  0.16209  1.0000
  C   C835      1.0  0.60497  0.30807  0.19731  1.0000
  C   C836      1.0  0.63751  0.34207  0.19360  1.0000
  C   C837      1.0  0.64115  0.31006  0.20507  1.0000
  C   C838      1.0  0.63572  0.28620  0.20195  1.0000
  C   C839      1.0  0.65304  0.32553  0.15093  1.0000
  C   C840      1.0  0.63449  0.34944  0.21990  1.0000
  C   C841      1.0  0.58947  0.28713  0.18393  1.0000
  C   C842      1.0  0.95213  0.48552  0.20316  1.0000
  H   H1473     1.0  0.97245  0.47690  0.22806  1.0000
  C   C843      1.0  0.65300  0.31863  0.12407  1.0000
  C   C844      1.0  0.64343  0.37377  0.22098  1.0000
  H   H1474     1.0  0.62033  0.32095  0.15152  1.0000
  H   H1475     1.0  0.62325  0.29752  0.15740  1.0000
  H   H1476     1.0  0.60356  0.30506  0.21769  1.0000
  H   H1477     1.0  0.59784  0.31925  0.19371  1.0000
  H   H1478     1.0  0.63047  0.34919  0.17994  1.0000
  H   H1479     1.0  0.65514  0.34995  0.19015  1.0000
  H   H1480     1.0  0.65867  0.31974  0.20174  1.0000
  H   H1481     1.0  0.63896  0.31225  0.22512  1.0000
  H   H1482     1.0  0.83237  0.29731  0.48013  1.0000
  H   H1483     1.0  0.61964  0.27600  0.20983  1.0000
  H   H1484     1.0  0.65929  0.34304  0.15075  1.0000
  H   H1485     1.0  0.66437  0.32157  0.16158  1.0000
  H   H1486     1.0  0.64317  0.34473  0.23403  1.0000
  H   H1487     1.0  0.61730  0.34255  0.22520  1.0000
  H   H1488     1.0  0.58704  0.29089  0.16458  1.0000
  H   H1489     1.0  0.59563  0.27506  0.18325  1.0000
  H   H1490     1.0  0.64750  0.26360  0.21334  1.0000
  C   C845      1.0  0.71849  0.28693  0.01299  1.0000
  C   C846      1.0  0.89038  0.47816  0.16944  1.0000
  H   H1491     1.0  0.77797  0.42616  0.04918  1.0000
  H   H1492     1.0  0.59984  0.41292  0.31506  1.0000
  C   C847      1.0  0.65149  0.49162  0.30774  1.0000
  H   H1493     1.0  0.64255  0.32324  0.11250  1.0000
  H   H1494     1.0  0.66962  0.32637  0.11663  1.0000
  H   H1495     1.0  0.64709  0.30110  0.12302  1.0000
  H   H1496     1.0  0.66083  0.38161  0.21634  1.0000
  C   C848      1.0  0.63269  0.47245  0.27048  1.0000
  H   H1497     1.0  0.66571  0.47239  0.24179  1.0000
  H   H1498     1.0  0.81450  0.28930  0.42682  1.0000
  N   N46       1.0  0.72353  0.28564  0.04003  1.0000
  H   H1499     1.0  0.89746  0.46143  0.21101  1.0000
  H   H1500     1.0  0.63361  0.27135  0.01211  1.0000
  H   H1501     1.0  0.54626  0.39587  0.45816  1.0000
  H   H1502     1.0  0.83995  0.30990  0.39527  1.0000
  H   H1503     1.0  0.83175  0.45548  0.01405  1.0000
  H   H1504     1.0  0.68088  0.34826  0.07438  1.0000
  H   H1505     1.0  0.66830  0.29031  0.20854  1.0000
  C   C849      1.0  0.99101  0.48783  0.29579  1.0000
  C   C850      1.0  0.61819  0.28514  0.98728  1.0000
  H   H1506     1.0  0.63122  0.47853  0.21920  1.0000
  H   H1507     1.0  0.68920  0.45548  0.23391  1.0000
  C   C851      1.0  0.70295  0.40175  0.01455  1.0000
  C   C852      1.0  0.51399  0.49188  0.30976  1.0000
  H   H1508     1.0  0.63625  0.49232  0.31250  1.0000
  C   C853      1.0  0.52114  0.37283  0.21494  1.0000
  H   H1509     1.0  0.84936  0.29375  0.35607  1.0000
  H   H1510     1.0  0.88898  0.46446  0.15778  1.0000
  H   H1511     1.0  0.93070  0.40912  0.22797  1.0000
  C   C854      1.0  0.82819  0.29602  0.44000  1.0000
  C   C855      1.0  0.92962  0.42234  0.23833  1.0000
  H   H1512     1.0  0.72357  0.26013  0.99807  1.0000
  H   H1513     1.0  0.74114  0.39911  0.01361  1.0000
  C   C856      1.0  0.55790  0.40580  0.47265  1.0000
  C   C857      1.0  0.88203  0.42605  0.43901  1.0000
  C   C858      1.0  0.71526  0.29865  0.05497  1.0000
  C   C859      1.0  0.74741  0.29450  0.04441  1.0000
  C   C860      1.0  0.50418  0.37047  0.42642  1.0000
  C   C861      1.0  0.60442  0.39479  0.98900  1.0000
  C   C862      1.0  0.56737  0.27699  0.19622  1.0000
  H   H1514     1.0  0.55659  0.26246  0.18565  1.0000
  H   H1515     1.0  0.64482  0.42941  0.29191  1.0000
  C   C863      1.0  0.76141  0.31768  0.03516  1.0000
  C   C864      1.0  0.78533  0.32398  0.03850  1.0000
  H   H1516     1.0  0.61944  0.45220  0.31376  1.0000
  H   H1517     1.0  0.56593  0.42047  0.11208  1.0000
  C   C865      1.0  0.99377  0.34030  0.47372  1.0000
  H   H1518     1.0  0.72219  0.31533  0.04788  1.0000
  H   H1519     1.0  0.72090  0.30025  0.07452  1.0000
  H   H1520     1.0  0.75086  0.29478  0.06463  1.0000
  H   H1521     1.0  0.75371  0.28383  0.03612  1.0000
  H   H1522     1.0  0.53907  0.36349  0.13276  1.0000
  H   H1523     1.0  0.62937  0.45914  0.25730  1.0000
  H   H1524     1.0  0.66555  0.41981  0.00153  1.0000
  H   H1525     1.0  0.88398  0.45078  0.47710  1.0000
  H   H1526     1.0  0.91687  0.48176  0.45354  1.0000
  H   H1527     1.0  0.82624  0.49487  0.43878  1.0000
  H   H1528     1.0  0.61648  0.46917  0.27756  1.0000
  C   C866      1.0  0.95515  0.49606  0.40217  1.0000
  C   C867      1.0  0.53647  0.37401  0.14649  1.0000
  H   H1529     1.0  0.94129  0.46371  0.24935  1.0000
  H   H1530     1.0  0.96915  0.43837  0.37688  1.0000
  H   H1531     1.0  0.75784  0.32923  0.04598  1.0000
  H   H1532     1.0  0.56013  0.28830  0.19612  1.0000
  H   H1533     1.0  0.70301  0.47901  0.25280  1.0000
  H   H1534     1.0  0.95657  0.48187  0.39498  1.0000
  H   H1535     1.0  0.81075  0.46370  0.01663  1.0000
  H   H1536     1.0  0.54077  0.25425  0.13030  1.0000
  H   H1537     1.0  0.55584  0.43499  0.46044  1.0000
  H   H1538     1.0  0.87058  0.27865  0.38418  1.0000
  H   H1539     1.0  0.51577  0.33046  0.13703  1.0000
  H   H1540     1.0  0.57082  0.40065  0.47237  1.0000
  C   C868      1.0  0.92926  0.48878  0.46821  1.0000
  C   C869      1.0  0.97321  0.43294  0.35913  1.0000
  S   S207      1.0  0.50341  0.35262  0.44990  1.0000
  H   H1541     1.0  0.60642  0.26546  0.02030  1.0000
  H   H1542     1.0  0.56860  0.27225  0.21561  1.0000
  C   C870      1.0  0.69050  0.29036  0.05526  1.0000
  H   H1543     1.0  0.91420  0.41563  0.24868  1.0000
  H   H1544     1.0  0.68405  0.28946  0.03624  1.0000
  C   C871      1.0  0.85389  0.30616  0.39448  1.0000
  H   H1545     1.0  0.70896  0.37737  0.04920  1.0000
  H   H1546     1.0  0.61193  0.48565  0.23412  1.0000
  H   H1547     1.0  0.52084  0.37387  0.14154  1.0000
  C   C872      1.0  0.64106  0.49365  0.25557  1.0000
  C   C873      1.0  0.71137  0.41921  0.99424  1.0000
  H   H1548     1.0  0.64637  0.47472  0.47631  1.0000
  H   H1549     1.0  0.67680  0.48876  0.33020  1.0000
  C   C874      1.0  0.51599  0.34432  0.17406  1.0000
  H   H1550     1.0  0.81004  0.49571  0.47578  1.0000
  C   C875      1.0  0.52424  0.39617  0.39421  1.0000
  C   C876      1.0  0.89242  0.49387  0.39675  1.0000
  H   H1551     1.0  0.83564  0.31373  0.43825  1.0000
  C   C877      1.0  0.86068  0.30784  0.36683  1.0000
  H   H1552     1.0  0.96429  0.41522  0.35843  1.0000
  S   S208      1.0  0.67550  0.28835  0.15232  1.0000
  N   N47       1.0  0.64700  0.47236  0.29157  1.0000
  H   H1553     1.0  0.90720  0.42427  0.46020  1.0000
  C   C878      1.0  0.70359  0.38901  0.05663  1.0000
  C   C879      1.0  0.66338  0.49305  0.33263  1.0000
  H   H1554     1.0  0.99905  0.31593  0.45497  1.0000
  H   H1555     1.0  0.72914  0.42676  0.99296  1.0000
  C   C880      1.0  0.52321  0.38173  0.41292  1.0000
  H   H1556     1.0  0.93785  0.49237  0.40250  1.0000
  H   H1557     1.0  0.61781  0.48394  0.46962  1.0000
  H   H1558     1.0  0.63480  0.37934  0.20767  1.0000
  C   C881      1.0  0.70128  0.29967  0.13926  1.0000
  C   C882      1.0  0.86144  0.32796  0.35479  1.0000
  C   C883      1.0  0.52341  0.39095  0.23243  1.0000
  C   C884      1.0  0.71127  0.28687  0.13318  1.0000
  H   H1559     1.0  0.84522  0.32735  0.35448  1.0000
  C   C885      1.0  0.82884  0.26761  0.39518  1.0000
  H   H1560     1.0  0.53711  0.37910  0.41673  1.0000
  Fe  Fe109     1.0  0.65106  0.25866  0.13334  1.0000
  H   H1561     1.0  0.74650  0.28581  0.99492  1.0000
  H   H1562     1.0  0.54327  0.33788  0.20507  1.0000
  C   C886      1.0  0.61741  0.26744  0.00451  1.0000
  C   C887      1.0  0.81763  0.49158  0.40034  1.0000
  C   C888      1.0  0.62976  0.43091  0.29478  1.0000
  C   C889      1.0  0.67882  0.37633  0.05952  1.0000
  H   H1563     1.0  0.62154  0.42906  0.27673  1.0000
  H   H1564     1.0  0.55486  0.40867  0.15505  1.0000
  H   H1565     1.0  0.69243  0.45265  0.26669  1.0000
  C   C890      1.0  0.88773  0.25868  0.41374  1.0000
  H   H1566     1.0  0.88998  0.49067  0.15707  1.0000
  C   C891      1.0  0.91280  0.46975  0.20066  1.0000
  H   H1567     1.0  0.65162  0.28404  0.23609  1.0000
  H   H1568     1.0  0.57012  0.38009  0.17728  1.0000
  H   H1569     1.0  0.53034  0.32374  0.16032  1.0000
  N   N48       1.0  0.93170  0.47710  0.21818  1.0000
  H   H1570     1.0  0.91337  0.45141  0.24343  1.0000
  C   C892      1.0  0.57725  0.34961  0.20332  1.0000
  C   C893      1.0  0.65181  0.28081  0.21593  1.0000
  H   H1571     1.0  0.68669  0.41940  0.04296  1.0000
  H   H1572     1.0  0.59207  0.36501  0.20331  1.0000
  H   H1573     1.0  0.59298  0.42679  0.44078  1.0000
  H   H1574     1.0  0.86733  0.32933  0.33540  1.0000
  H   H1575     1.0  0.65852  0.50027  0.25179  1.0000
  H   H1576     1.0  0.69251  0.32181  0.06300  1.0000
  N   N49       1.0  0.84856  0.28509  0.40717  1.0000
  C   C894      1.0  0.93070  0.43956  0.22016  1.0000
  H   H1577     1.0  0.81118  0.27255  0.46877  1.0000
  C   C895      1.0  0.55458  0.39673  0.14131  1.0000
  H   H1578     1.0  0.95455  0.50042  0.19332  1.0000
  H   H1579     1.0  0.63613  0.28190  0.18224  1.0000
  C   C896      1.0  0.84530  0.28804  0.43433  1.0000
  H   H1580     1.0  0.69864  0.45579  0.07683  1.0000
  H   H1581     1.0  0.54787  0.36343  0.47404  1.0000
  N   N50       1.0  0.71141  0.40872  0.04051  1.0000
  H   H1582     1.0  0.68867  0.30523  0.09011  1.0000
  H   H1583     1.0  0.54984  0.39456  0.19524  1.0000
  H   H1584     1.0  0.86060  0.29986  0.44284  1.0000
  H   H1585     1.0  0.73101  0.45305  0.06079  1.0000
  H   H1586     1.0  0.55937  0.35531  0.16196  1.0000
  C   C897      1.0  0.70395  0.45982  0.05725  1.0000
  H   H1587     1.0  0.91391  0.44986  0.44701  1.0000
  H   H1588     1.0  0.67809  0.36557  0.09761  1.0000
  C   C898      1.0  0.55610  0.36400  0.17741  1.0000
  H   H1589     1.0  0.86718  0.31950  0.40456  1.0000
  C   C899      1.0  0.71651  0.44778  0.04879  1.0000
  C   C900      1.0  0.64845  0.41251  0.99811  1.0000
  H   H1590     1.0  0.72185  0.45263  0.02948  1.0000
  C   C901      1.0  0.50610  0.39908  0.38857  1.0000
  H   H1591     1.0  0.94318  0.42901  0.25177  1.0000
  H   H1592     1.0  0.67132  0.36867  0.04167  1.0000
  H   H1593     1.0  0.51342  0.33780  0.19316  1.0000
  H   H1594     1.0  0.91297  0.45754  0.18753  1.0000
  C   C902      1.0  0.71288  0.26245  0.04773  1.0000
  H   H1595     1.0  0.64401  0.45290  0.32414  1.0000
  C   C903      1.0  0.73566  0.41942  0.04147  1.0000
  H   H1596     1.0  0.70596  0.43160  0.99811  1.0000
  C   C904      1.0  0.61526  0.41229  0.31135  1.0000
  H   H1597     1.0  0.74246  0.43447  0.03065  1.0000
  H   H1598     1.0  0.65539  0.34856  0.07876  1.0000
  H   H1599     1.0  0.51382  0.38423  0.24951  1.0000
  H   H1600     1.0  0.58755  0.48666  0.47455  1.0000
  N   N51       1.0  0.53558  0.36576  0.17261  1.0000
  C   C905      1.0  0.53361  0.38167  0.19036  1.0000
  C   C906      1.0  0.55737  0.35355  0.20230  1.0000
  H   H1601     1.0  0.52513  0.39008  0.18125  1.0000
  H   H1602     1.0  0.67480  0.46657  0.29686  1.0000
  C   C907      1.0  0.70262  0.42328  0.05121  1.0000
  H   H1603     1.0  0.70083  0.27834  0.00982  1.0000
  H   H1604     1.0  0.94291  0.48520  0.46414  1.0000
  H   H1605     1.0  0.88748  0.42219  0.42115  1.0000
  H   H1606     1.0  0.74110  0.42437  0.06090  1.0000
  H   H1607     1.0  0.69956  0.42050  0.07152  1.0000
  H   H1608     1.0  0.96769  0.43950  0.34337  1.0000
  H   H1609     1.0  0.72314  0.30377  0.00749  1.0000
  H   H1610     1.0  0.52678  0.36250  0.22499  1.0000
  H   H1611     1.0  0.66665  0.29972  0.06917  1.0000
  C   C908      1.0  0.77119  0.41953  0.03065  1.0000
  H   H1612     1.0  0.77500  0.43286  0.01742  1.0000
  C   C909      1.0  0.68428  0.30526  0.07031  1.0000
  C   C910      1.0  0.57989  0.43167  0.43887  1.0000
  H   H1613     1.0  0.67140  0.38667  0.06554  1.0000
  H   H1614     1.0  0.56849  0.42176  0.42425  1.0000
  H   H1615     1.0  0.68233  0.27429  0.06379  1.0000
  H   H1616     1.0  0.58714  0.44861  0.43270  1.0000
  H   H1617     1.0  0.79503  0.34075  0.03238  1.0000
  H   H1618     1.0  0.74404  0.39269  0.04543  1.0000
  H   H1619     1.0  0.92484  0.49380  0.17097  1.0000
  H   H1620     1.0  0.73028  0.26432  0.08258  1.0000
  H   H1621     1.0  0.70301  0.26981  0.13635  1.0000
  H   H1622     1.0  0.83472  0.47952  0.99881  1.0000
  H   H1623     1.0  0.71075  0.39336  0.07557  1.0000
  C   C911      1.0  0.56823  0.42935  0.46357  1.0000
  H   H1624     1.0  0.58019  0.44005  0.47717  1.0000
  H   H1625     1.0  0.80505  0.25327  0.42509  1.0000
  H   H1626     1.0  0.53705  0.40626  0.11436  1.0000
  H   H1627     1.0  0.77896  0.40960  0.02406  1.0000
  H   H1628     1.0  0.93802  0.45447  0.47876  1.0000
  H   H1629     1.0  0.54045  0.40044  0.23801  1.0000
  C   C912      1.0  0.90110  0.43624  0.45676  1.0000
  C   C913      1.0  0.62903  0.49628  0.39320  1.0000
  H   H1630     1.0  0.58505  0.48462  0.42821  1.0000
  H   H1631     1.0  0.94596  0.44493  0.20974  1.0000
  H   H1632     1.0  0.97680  0.47303  0.29222  1.0000
  H   H1633     1.0  0.65195  0.48206  0.34650  1.0000
  C   C914      1.0  0.55217  0.40459  0.11557  1.0000
  H   H1634     1.0  0.61157  0.39692  0.30190  1.0000
  H   H1635     1.0  0.84113  0.27316  0.44491  1.0000
  C   C915      1.0  0.92926  0.45837  0.23401  1.0000
  C   C916      1.0  0.62928  0.49068  0.23085  1.0000
  H   H1636     1.0  0.94390  0.42221  0.47700  1.0000
  C   C917      1.0  0.68955  0.46258  0.25247  1.0000
  H   H1637     1.0  0.68956  0.45561  0.04532  1.0000
  H   H1638     1.0  0.65526  0.44659  0.25568  1.0000
  C   C918      1.0  0.66815  0.46314  0.25717  1.0000
  C   C919      1.0  0.80064  0.38063  0.99980  1.0000
  C   C920      1.0  0.72870  0.27729  0.99421  1.0000
  H   H1639     1.0  0.68051  0.49059  0.28100  1.0000
  H   H1640     1.0  0.62332  0.41274  0.32932  1.0000
  C   C921      1.0  0.64358  0.49868  0.41245  1.0000
  C   C922      1.0  0.86778  0.28063  0.40411  1.0000
  S   S209      1.0  0.96498  0.32381  0.47317  1.0000
  H   H1641     1.0  0.70604  0.38818  0.00844  1.0000
  H   H1642     1.0  0.79009  0.31349  0.02723  1.0000
  C   C923      1.0  0.89436  0.44288  0.48161  1.0000
  C   C924      1.0  0.51602  0.32645  0.15690  1.0000
  H   H1643     1.0  0.69579  0.25460  0.04165  1.0000
  H   H1644     1.0  0.80740  0.29646  0.46978  1.0000
  H   H1645     1.0  0.88918  0.48937  0.43637  1.0000
  C   C925      1.0  0.81925  0.29018  0.46629  1.0000
  H   H1646     1.0  0.62322  0.29990  0.99863  1.0000
  S   S210      1.0  0.50639  0.41641  0.36464  1.0000
  H   H1647     1.0  0.80087  0.47917  0.40332  1.0000
  S   S211      1.0  0.63440  0.26100  0.09858  1.0000
  H   H1648     1.0  0.75871  0.31956  0.01522  1.0000
  C   C926      1.0  0.91132  0.48731  0.18436  1.0000
  H   H1649     1.0  0.82784  0.48347  0.39617  1.0000
  C   C927      1.0  0.97309  0.49105  0.21812  1.0000
  H   H1650     1.0  0.89805  0.48702  0.23637  1.0000
  C   C928      1.0  0.86664  0.26029  0.41679  1.0000
  C   C929      1.0  0.91164  0.49026  0.24921  1.0000
  H   H1651     1.0  0.61127  0.25204  0.99431  1.0000
  H   H1652     1.0  0.86359  0.26020  0.43690  1.0000
  H   H1653     1.0  0.50130  0.34628  0.16966  1.0000
  C   C930      1.0  0.71350  0.25801  0.07584  1.0000
  H   H1654     1.0  0.83357  0.26114  0.37863  1.0000
  Fe  Fe110     1.0  0.93109  0.31989  0.48411  1.0000
  C   C931      1.0  0.64824  0.48984  0.48506  1.0000
  H   H1655     1.0  0.99097  0.48667  0.18720  1.0000
  H   H1656     1.0  0.51873  0.40022  0.47851  1.0000
  H   H1657     1.0  0.90130  0.27266  0.42232  1.0000
  C   C932      1.0  0.93263  0.49474  0.23506  1.0000
  C   C933      1.0  0.99263  0.49913  0.20099  1.0000
  H   H1658     1.0  0.72052  0.25352  0.03816  1.0000
  H   H1659     1.0  0.96164  0.49915  0.42137  1.0000
  H   H1660     1.0  0.94519  0.49828  0.24960  1.0000
  H   H1661     1.0  0.89125  0.25776  0.39380  1.0000
  H   H1662     1.0  0.50372  0.36327  0.21093  1.0000
  C   C934      1.0  0.58574  0.50079  0.42936  1.0000
  H   H1663     1.0  0.91165  0.50067  0.19572  1.0000
  C   C935      1.0  0.89332  0.50079  0.42138  1.0000
  H   H1664     1.0  0.56934  0.49925  0.43249  1.0000
  S   S212      1.0  0.85025  0.25429  0.48694  1.0000
  H   H1665     1.0  0.00009  0.43329  0.33966  1.0000
  Fe  Fe111     1.0  0.56506  0.43175  0.63007  1.0000
  S   S213      1.0  0.55727  0.45901  0.62241  1.0000
  S   S214      1.0  0.55779  0.40605  0.60073  1.0000
  Fe  Fe112     1.0  0.58815  0.45078  0.67961  1.0000
  S   S215      1.0  0.58188  0.47958  0.67517  1.0000
  S   S216      1.0  0.61119  0.45121  0.71073  1.0000
  Fe  Fe113     1.0  0.54886  0.45645  0.66281  1.0000
  S   S217      1.0  0.51919  0.45943  0.67476  1.0000
  Fe  Fe114     1.0  0.59092  0.48006  0.63502  1.0000
  H   H1666     1.0  0.93930  0.48798  0.77160  1.0000
  S   S218      1.0  0.55405  0.42726  0.66996  1.0000
  S   S219      1.0  0.59972  0.45311  0.63990  1.0000
  Fe  Fe115     1.0  0.62475  0.40333  0.84538  1.0000
  S   S220      1.0  0.63784  0.42896  0.87478  1.0000
  S   S221      1.0  0.60121  0.40213  0.81460  1.0000
  Fe  Fe116     1.0  0.64498  0.37739  0.87105  1.0000
  S   S222      1.0  0.65952  0.40106  0.90192  1.0000
  S   S223      1.0  0.65532  0.35131  0.87356  1.0000
  Fe  Fe117     1.0  0.62795  0.40233  0.90295  1.0000
  S   S224      1.0  0.60839  0.39909  0.93810  1.0000
  Fe  Fe118     1.0  0.66827  0.42515  0.87144  1.0000
  S   S225      1.0  0.70100  0.45313  0.86881  1.0000
  S   S226      1.0  0.61259  0.37670  0.87393  1.0000
  S   S227      1.0  0.65600  0.40155  0.84029  1.0000
  Fe  Fe119     1.0  0.77320  0.36884  0.83956  1.0000
  S   S228      1.0  0.76934  0.38418  0.87446  1.0000
  S   S229      1.0  0.74488  0.34274  0.82016  1.0000
  Fe  Fe120     1.0  0.82136  0.39744  0.83576  1.0000
  S   S230      1.0  0.82146  0.41470  0.87140  1.0000
  S   S231      1.0  0.85269  0.40627  0.81427  1.0000
  Fe  Fe121     1.0  0.79930  0.38262  0.88738  1.0000
  S   S232      1.0  0.79534  0.36743  0.92572  1.0000
  Fe  Fe122     1.0  0.79137  0.41477  0.85611  1.0000
  S   S233      1.0  0.78796  0.44529  0.85751  1.0000
  S   S234      1.0  0.80180  0.36513  0.85324  1.0000
  S   S235      1.0  0.79272  0.39977  0.81972  1.0000
  Fe  Fe123     1.0  0.90483  0.32717  0.52449  1.0000
  S   S236      1.0  0.91067  0.29873  0.51536  1.0000
  S   S237      1.0  0.90795  0.33895  0.56426  1.0000
  Fe  Fe124     1.0  0.90336  0.44246  0.67581  1.0000
  S   S238      1.0  0.92540  0.43090  0.65752  1.0000
  S   S239      1.0  0.87295  0.42094  0.69779  1.0000
  Fe  Fe125     1.0  0.92409  0.48505  0.64729  1.0000
  S   S240      1.0  0.94779  0.47690  0.62743  1.0000
  H   H1667     1.0  0.88343  0.42758  0.49082  1.0000
  Fe  Fe126     1.0  0.92004  0.44455  0.62195  1.0000
  S   S241      1.0  0.91268  0.43033  0.58321  1.0000
  Fe  Fe127     1.0  0.95174  0.46423  0.66427  1.0000
  C   C936      1.0  0.51378  0.39292  0.59990  1.0000
  S   S242      1.0  0.89598  0.45360  0.63931  1.0000
  S   S243      1.0  0.93009  0.47499  0.68520  1.0000
  C   C937      1.0  0.91081  0.36508  0.56821  1.0000
  C   C938      1.0  0.90098  0.37350  0.55181  1.0000
  C   C939      1.0  0.90179  0.39361  0.55652  1.0000
  C   C940      1.0  0.91271  0.40556  0.57739  1.0000
  C   C941      1.0  0.92323  0.39751  0.59328  1.0000
  C   C942      1.0  0.92209  0.37721  0.58883  1.0000
  H   H1668     1.0  0.89226  0.36424  0.53586  1.0000
  H   H1669     1.0  0.89353  0.39966  0.54420  1.0000
  H   H1670     1.0  0.93230  0.40701  0.60887  1.0000
  H   H1671     1.0  0.93009  0.37091  0.60122  1.0000
  H   H1672     1.0  0.84541  0.46881  0.75274  1.0000
  H   H1673     1.0  0.85660  0.32468  0.65907  1.0000
  C   C943      1.0  0.80437  0.38083  0.95452  1.0000
  H   H1674     1.0  0.50757  0.41080  0.88937  1.0000
  C   C944      1.0  0.82209  0.40096  0.95613  1.0000
  C   C945      1.0  0.79148  0.30691  0.86287  1.0000
  H   H1675     1.0  0.83058  0.40880  0.93944  1.0000
  C   C946      1.0  0.85784  0.41029  0.78176  1.0000
  C   C947      1.0  0.84146  0.40588  0.76431  1.0000
  C   C948      1.0  0.84640  0.40934  0.73876  1.0000
  C   C949      1.0  0.86776  0.41752  0.73030  1.0000
  C   C950      1.0  0.88410  0.42182  0.74772  1.0000
  C   C951      1.0  0.87915  0.41813  0.77323  1.0000
  H   H1676     1.0  0.82497  0.39969  0.77049  1.0000
  H   H1677     1.0  0.83357  0.40570  0.72546  1.0000
  H   H1678     1.0  0.90053  0.42762  0.74148  1.0000
  H   H1679     1.0  0.89194  0.42137  0.78649  1.0000
  C   C952      1.0  0.72452  0.30043  0.87687  1.0000
  C   C953      1.0  0.73572  0.31929  0.86323  1.0000
  C   C954      1.0  0.72894  0.32103  0.83926  1.0000
  C   C955      1.0  0.70982  0.30470  0.82994  1.0000
  H   H1680     1.0  0.73054  0.29866  0.89482  1.0000
  H   H1681     1.0  0.75025  0.33201  0.87071  1.0000
  H   H1682     1.0  0.70432  0.30613  0.81155  1.0000
  C   C956      1.0  0.72417  0.44921  0.86489  1.0000
  C   C957      1.0  0.72434  0.42938  0.86857  1.0000
  C   C958      1.0  0.74369  0.42757  0.86582  1.0000
  C   C959      1.0  0.76280  0.44564  0.85964  1.0000
  C   C960      1.0  0.76240  0.46524  0.85601  1.0000
  C   C961      1.0  0.74324  0.46698  0.85845  1.0000
  H   H1683     1.0  0.70964  0.41557  0.87364  1.0000
  H   H1684     1.0  0.74389  0.41237  0.86882  1.0000
  H   H1685     1.0  0.77706  0.47926  0.85136  1.0000
  H   H1686     1.0  0.54038  0.34340  0.52622  1.0000
  C   C962      1.0  0.63968  0.32520  0.86294  1.0000
  C   C963      1.0  0.64859  0.31083  0.86415  1.0000
  C   C964      1.0  0.63661  0.28956  0.85692  1.0000
  C   C965      1.0  0.61545  0.28236  0.84883  1.0000
  C   C966      1.0  0.60657  0.29681  0.84696  1.0000
  C   C967      1.0  0.61871  0.31831  0.85406  1.0000
  H   H1687     1.0  0.66486  0.31610  0.87081  1.0000
  H   H1688     1.0  0.64387  0.27877  0.85754  1.0000
  H   H1689     1.0  0.59018  0.29127  0.84061  1.0000
  H   H1690     1.0  0.61177  0.32939  0.85307  1.0000
  C   C968      1.0  0.61872  0.40129  0.96877  1.0000
  C   C969      1.0  0.59591  0.27818  0.93009  1.0000
  C   C970      1.0  0.64080  0.40993  0.97347  1.0000
  H   H1691     1.0  0.83887  0.45917  0.88736  1.0000
  H   H1692     1.0  0.65200  0.41516  0.95814  1.0000
  H   H1693     1.0  0.78005  0.35513  0.97542  1.0000
  C   C971      1.0  0.83848  0.30366  0.61665  1.0000
  H   H1694     1.0  0.54438  0.34635  0.88702  1.0000
  C   C972      1.0  0.60790  0.43729  0.73954  1.0000
  C   C973      1.0  0.58787  0.42210  0.74809  1.0000
  C   C974      1.0  0.58622  0.41151  0.77095  1.0000
  C   C975      1.0  0.60449  0.41588  0.78568  1.0000
  C   C976      1.0  0.62452  0.43114  0.77720  1.0000
  C   C977      1.0  0.62617  0.44173  0.75434  1.0000
  H   H1695     1.0  0.57365  0.41847  0.73705  1.0000
  H   H1696     1.0  0.57061  0.39982  0.77725  1.0000
  H   H1697     1.0  0.63873  0.43482  0.78827  1.0000
  H   H1698     1.0  0.64175  0.45348  0.74808  1.0000
  C   C978      1.0  0.53110  0.38995  0.59084  1.0000
  H   H1699     1.0  0.76855  0.47368  0.96031  1.0000
  H   H1700     1.0  0.54055  0.37124  0.56656  1.0000
  H   H1701     1.0  0.92960  0.46960  0.79730  1.0000
  H   H1702     1.0  0.61895  0.33006  0.91892  1.0000
  H   H1703     1.0  0.89237  0.46151  0.78788  1.0000
  C   C979      1.0  0.69801  0.28627  0.84412  1.0000
  H   H1704     1.0  0.77978  0.32459  0.88698  1.0000
  N   N52       1.0  0.87450  0.35808  0.64963  1.0000
  C   C980      1.0  0.87626  0.37332  0.62894  1.0000
  C   C981      1.0  0.89524  0.35615  0.65119  1.0000
  C   C982      1.0  0.91526  0.37636  0.66000  1.0000
  C   C983      1.0  0.85697  0.32613  0.61913  1.0000
  C   C984      1.0  0.85544  0.37549  0.62308  1.0000
  C   C985      1.0  0.85872  0.39058  0.60129  1.0000
  C   C986      1.0  0.93481  0.37198  0.66268  1.0000
  H   H1705     1.0  0.88888  0.38970  0.63332  1.0000
  H   H1706     1.0  0.88179  0.36881  0.61151  1.0000
  H   H1707     1.0  0.89337  0.34260  0.66341  1.0000
  H   H1708     1.0  0.89950  0.35210  0.63267  1.0000
  H   H1709     1.0  0.91270  0.38225  0.67819  1.0000
  H   H1710     1.0  0.91934  0.38922  0.64618  1.0000
  H   H1711     1.0  0.87213  0.32478  0.61652  1.0000
  H   H1712     1.0  0.85545  0.33583  0.60365  1.0000
  H   H1713     1.0  0.80010  0.44142  0.90673  1.0000
  H   H1714     1.0  0.85056  0.38218  0.63921  1.0000
  H   H1715     1.0  0.84348  0.39142  0.59716  1.0000
  H   H1716     1.0  0.87112  0.40693  0.60598  1.0000
  H   H1717     1.0  0.86368  0.38480  0.58443  1.0000
  H   H1718     1.0  0.93192  0.35972  0.67719  1.0000
  H   H1719     1.0  0.93848  0.36640  0.64480  1.0000
  H   H1720     1.0  0.94902  0.38694  0.66821  1.0000
  H   H1721     1.0  0.83929  0.29698  0.59817  1.0000
  C   C987      1.0  0.77456  0.40851  0.94472  1.0000
  C   C988      1.0  0.75347  0.38851  0.94937  1.0000
  H   H1722     1.0  0.78116  0.40605  0.92689  1.0000
  H   H1723     1.0  0.78581  0.40965  0.95969  1.0000
  H   H1724     1.0  0.74660  0.38957  0.96761  1.0000
  H   H1725     1.0  0.74169  0.38641  0.93439  1.0000
  H   H1726     1.0  0.75654  0.37423  0.94946  1.0000
  C   C989      1.0  0.65716  0.31505  0.93480  1.0000
  H   H1727     1.0  0.78601  0.45778  0.97925  1.0000
  N   N53       1.0  0.57216  0.42136  0.87816  1.0000
  C   C990      1.0  0.56942  0.40004  0.86848  1.0000
  C   C991      1.0  0.50635  0.36116  0.56414  1.0000
  C   C992      1.0  0.58456  0.42555  0.90228  1.0000
  C   C993      1.0  0.55102  0.42196  0.88302  1.0000
  C   C994      1.0  0.53178  0.40803  0.86592  1.0000
  C   C995      1.0  0.55910  0.38102  0.88683  1.0000
  H   H1728     1.0  0.66790  0.32650  0.94895  1.0000
  H   H1729     1.0  0.85836  0.45531  0.71550  1.0000
  C   C996      1.0  0.55050  0.35957  0.87329  1.0000
  H   H1730     1.0  0.60448  0.46043  0.90344  1.0000
  H   H1731     1.0  0.58536  0.40107  0.86338  1.0000
  H   H1732     1.0  0.56010  0.39564  0.85093  1.0000
  C   C997      1.0  0.72183  0.27895  0.96762  1.0000
  H   H1733     1.0  0.71524  0.43458  0.76752  1.0000
  H   H1734     1.0  0.59939  0.42350  0.89967  1.0000
  H   H1735     1.0  0.57502  0.41354  0.91654  1.0000
  H   H1736     1.0  0.54541  0.41665  0.90232  1.0000
  C   C998      1.0  0.53924  0.34266  0.50563  1.0000
  C   C999      1.0  0.89825  0.47989  0.75346  1.0000
  H   H1737     1.0  0.57141  0.38153  0.90036  1.0000
  H   H1738     1.0  0.54578  0.38165  0.89751  1.0000
  H   H1739     1.0  0.70833  0.42266  0.95452  1.0000
  H   H1740     1.0  0.52068  0.36930  0.49563  1.0000
  C   C1000     1.0  0.62924  0.33761  0.93530  1.0000
  H   H1741     1.0  0.70006  0.32193  0.93869  1.0000
  H   H1742     1.0  0.58903  0.45465  0.86713  1.0000
  S   S244      1.0  0.98447  0.46770  0.67611  1.0000
  C   C1001     1.0  0.90384  0.45259  0.52547  1.0000
  S   S245      1.0  0.69343  0.25941  0.88348  1.0000
  H   H1743     1.0  0.82733  0.48989  0.51355  1.0000
  N   N54       1.0  0.77109  0.28586  0.82366  1.0000
  H   H1744     1.0  0.62213  0.36469  0.93283  1.0000
  H   H1745     1.0  0.75003  0.27342  0.79179  1.0000
  H   H1746     1.0  0.57144  0.42182  0.82476  1.0000
  H   H1747     1.0  0.69018  0.36291  0.76295  1.0000
  H   H1748     1.0  0.64592  0.34767  0.92894  1.0000
  H   H1749     1.0  0.89374  0.46456  0.74353  1.0000
  H   H1750     1.0  0.86081  0.45945  0.67011  1.0000
  C   C1002     1.0  0.66753  0.30048  0.92638  1.0000
  S   S246      1.0  0.59998  0.25509  0.84238  1.0000
  C   C1003     1.0  0.87683  0.48955  0.72493  1.0000
  H   H1751     1.0  0.58910  0.42765  0.55850  1.0000
  C   C1004     1.0  0.58239  0.41235  0.52200  1.0000
  H   H1752     1.0  0.62171  0.30130  0.90761  1.0000
  C   C1005     1.0  0.86450  0.47370  0.68192  1.0000
  C   C1006     1.0  0.81243  0.44989  0.98068  1.0000
  H   H1753     1.0  0.58923  0.28860  0.93791  1.0000
  C   C1007     1.0  0.56154  0.41471  0.51805  1.0000
  C   C1008     1.0  0.59272  0.45443  0.81669  1.0000
  H   H1754     1.0  0.60747  0.45213  0.81523  1.0000
  H   H1755     1.0  0.50357  0.28865  0.56543  1.0000
  H   H1756     1.0  0.87051  0.43279  0.55979  1.0000
  C   C1009     1.0  0.76446  0.46769  0.94100  1.0000
  C   C1010     1.0  0.65922  0.45263  0.68216  1.0000
  H   H1757     1.0  0.66009  0.29222  0.90880  1.0000
  H   H1758     1.0  0.56221  0.44102  0.83474  1.0000
  H   H1759     1.0  0.60437  0.34388  0.95307  1.0000
  C   C1011     1.0  0.78319  0.32302  0.80315  1.0000
  C   C1012     1.0  0.85963  0.46915  0.76266  1.0000
  H   H1760     1.0  0.79868  0.35478  0.78710  1.0000
  C   C1013     1.0  0.60033  0.44861  0.94053  1.0000
  H   H1761     1.0  0.50401  0.42773  0.51404  1.0000
  H   H1762     1.0  0.87122  0.44929  0.51830  1.0000
  H   H1763     1.0  0.56347  0.35845  0.86230  1.0000
  C   C1014     1.0  0.70248  0.40978  0.96870  1.0000
  H   H1764     1.0  0.78064  0.32953  0.82082  1.0000
  H   H1765     1.0  0.53473  0.37557  0.52393  1.0000
  H   H1766     1.0  0.56638  0.37307  0.49955  1.0000
  H   H1767     1.0  0.52117  0.40825  0.53549  1.0000
  H   H1768     1.0  0.51654  0.40514  0.61369  1.0000
  H   H1769     1.0  0.99761  0.43953  0.63866  1.0000
  H   H1770     1.0  0.76876  0.31881  0.79134  1.0000
  H   H1771     1.0  0.65266  0.45085  0.70127  1.0000
  H   H1772     1.0  0.64570  0.44463  0.66890  1.0000
  H   H1773     1.0  0.66972  0.44447  0.68132  1.0000
  C   C1015     1.0  0.58574  0.43857  0.86001  1.0000
  H   H1774     1.0  0.72714  0.29594  0.96241  1.0000
  C   C1016     1.0  0.62004  0.29093  0.92389  1.0000
  H   H1775     1.0  0.61178  0.42649  0.54381  1.0000
  C   C1017     1.0  0.85527  0.47062  0.79077  1.0000
  H   H1776     1.0  0.85967  0.48058  0.90434  1.0000
  H   H1777     1.0  0.81695  0.34651  0.80181  1.0000
  H   H1778     1.0  0.91175  0.41741  0.50165  1.0000
  H   H1779     1.0  0.94492  0.46441  0.50921  1.0000
  H   H1780     1.0  0.53605  0.41011  0.84601  1.0000
  S   S247      1.0  0.87468  0.31507  0.50181  1.0000
  H   H1781     1.0  0.81254  0.43679  0.93291  1.0000
  C   C1018     1.0  0.94481  0.42375  0.49755  1.0000
  H   H1782     1.0  0.99241  0.43061  0.60684  1.0000
  C   C1019     1.0  0.78720  0.30313  0.80735  1.0000
  H   H1783     1.0  0.99474  0.36799  0.49245  1.0000
  H   H1784     1.0  0.75386  0.47780  0.90765  1.0000
  N   N55       1.0  0.88028  0.48639  0.75207  1.0000
  C   C1020     1.0  0.92558  0.47322  0.77847  1.0000
  H   H1785     1.0  0.61202  0.31336  0.96225  1.0000
  C   C1021     1.0  0.63439  0.28914  0.96574  1.0000
  H   H1786     1.0  0.90856  0.48987  0.79234  1.0000
  H   H1787     1.0  0.74372  0.29020  0.81117  1.0000
  C   C1022     1.0  0.82934  0.41058  0.97952  1.0000
  H   H1788     1.0  0.88587  0.46735  0.70496  1.0000
  H   H1789     1.0  0.52209  0.33381  0.50006  1.0000
  H   H1790     1.0  0.76192  0.30500  0.84780  1.0000
  C   C1023     1.0  0.87147  0.47003  0.70768  1.0000
  H   H1791     1.0  0.83600  0.43640  0.79638  1.0000
  H   H1792     1.0  0.93086  0.49023  0.50845  1.0000
  C   C1024     1.0  0.67223  0.47627  0.67568  1.0000
  H   H1793     1.0  0.55329  0.43875  0.88212  1.0000
  H   H1794     1.0  0.83968  0.29295  0.63115  1.0000
  H   H1795     1.0  0.88920  0.45869  0.57165  1.0000
  H   H1796     1.0  0.62511  0.27895  0.91693  1.0000
  H   H1797     1.0  0.84983  0.47618  0.68310  1.0000
  H   H1798     1.0  0.70789  0.39761  0.96335  1.0000
  N   N56       1.0  0.54675  0.40152  0.49753  1.0000
  H   H1799     1.0  0.79992  0.29685  0.86554  1.0000
  H   H1800     1.0  0.82276  0.30409  0.61824  1.0000
  C   C1025     1.0  0.52725  0.37389  0.57317  1.0000
  H   H1801     1.0  0.58581  0.45297  0.79777  1.0000
  H   H1802     1.0  0.80354  0.32327  0.89799  1.0000
  H   H1803     1.0  0.63172  0.27327  0.95822  1.0000
  H   H1804     1.0  0.88546  0.35351  0.69990  1.0000
  H   H1805     1.0  0.88131  0.38390  0.67588  1.0000
  C   C1026     1.0  0.84474  0.46538  0.90626  1.0000
  H   H1806     1.0  0.76027  0.42602  0.92680  1.0000
  H   H1807     1.0  0.79514  0.27550  0.83322  1.0000
  H   H1808     1.0  0.84344  0.42586  0.98066  1.0000
  H   H1809     1.0  0.82558  0.44978  0.96923  1.0000
  C   C1027     1.0  0.62628  0.48965  0.48759  1.0000
  C   C1028     1.0  0.80726  0.44834  0.92506  1.0000
  C   C1029     1.0  0.77088  0.42876  0.94337  1.0000
  C   C1030     1.0  0.71378  0.43542  0.78797  1.0000
  C   C1031     1.0  0.76985  0.29442  0.84901  1.0000
  H   H1810     1.0  0.92329  0.45972  0.76600  1.0000
  C   C1032     1.0  0.85647  0.33611  0.64479  1.0000
  H   H1811     1.0  0.86857  0.47127  0.80255  1.0000
  C   C1033     1.0  0.70575  0.28378  0.86726  1.0000
  H   H1812     1.0  0.52597  0.39083  0.87025  1.0000
  H   H1813     1.0  0.65039  0.29573  0.97508  1.0000
  H   H1814     1.0  0.76102  0.42856  0.95972  1.0000
  H   H1815     1.0  0.56573  0.25790  0.91186  1.0000
  H   H1816     1.0  0.58800  0.43650  0.95270  1.0000
  H   H1817     1.0  0.82058  0.45062  0.78857  1.0000
  H   H1818     1.0  0.84196  0.35988  0.61809  1.0000
  H   H1819     1.0  0.77784  0.30004  0.90023  1.0000
  N   N57       1.0  0.79051  0.45022  0.94130  1.0000
  H   H1820     1.0  0.60269  0.44545  0.53303  1.0000
  C   C1034     1.0  0.62846  0.32062  0.95436  1.0000
  C   C1035     1.0  0.82779  0.46949  0.92011  1.0000
  H   H1821     1.0  0.80529  0.33552  0.77184  1.0000
  H   H1822     1.0  0.78742  0.29674  0.78851  1.0000
  C   C1036     1.0  0.79372  0.37072  0.97648  1.0000
  H   H1823     1.0  0.77881  0.46025  0.90894  1.0000
  H   H1824     1.0  0.67986  0.47698  0.65745  1.0000
  H   H1825     1.0  0.69097  0.39548  0.77102  1.0000
  H   H1826     1.0  0.58561  0.46981  0.51173  1.0000
  H   H1827     1.0  0.56511  0.47853  0.51256  1.0000
  C   C1037     1.0  0.78346  0.46533  0.92857  1.0000
  H   H1828     1.0  0.82401  0.48038  0.90833  1.0000
  C   C1038     1.0  0.59144  0.44782  0.91435  1.0000
  H   H1829     1.0  0.74971  0.45221  0.94136  1.0000
  C   C1039     1.0  0.86995  0.36665  0.67348  1.0000
  H   H1830     1.0  0.84057  0.33613  0.64691  1.0000
  H   H1831     1.0  0.69425  0.32557  0.90673  1.0000
  H   H1832     1.0  0.86278  0.45418  0.56174  1.0000
  H   H1833     1.0  0.55316  0.41064  0.53628  1.0000
  H   H1834     1.0  0.65428  0.34801  0.76552  1.0000
  H   H1835     1.0  0.65151  0.48648  0.69446  1.0000
  H   H1836     1.0  0.61467  0.44551  0.93993  1.0000
  C   C1040     1.0  0.78785  0.31406  0.88855  1.0000
  H   H1837     1.0  0.71134  0.41725  0.82060  1.0000
  H   H1838     1.0  0.89822  0.43546  0.53027  1.0000
  C   C1041     1.0  0.87630  0.45031  0.55776  1.0000
  C   C1042     1.0  0.72916  0.36143  0.76017  1.0000
  H   H1839     1.0  0.73643  0.25273  0.59399  1.0000
  H   H1840     1.0  0.68462  0.40230  0.96871  1.0000
  H   H1841     1.0  0.80964  0.47697  0.96515  1.0000
  H   H1842     1.0  0.56134  0.45490  0.54794  1.0000
  H   H1843     1.0  0.80381  0.30853  0.81462  1.0000
  H   H1844     1.0  0.63927  0.32944  0.97005  1.0000
  H   H1845     1.0  0.72709  0.41372  0.79624  1.0000
  C   C1043     1.0  0.51292  0.41333  0.86970  1.0000
  H   H1846     1.0  0.65562  0.49105  0.50363  1.0000
  H   H1847     1.0  0.68346  0.27357  0.83665  1.0000
  H   H1848     1.0  0.72668  0.37017  0.85959  1.0000
  H   H1849     1.0  0.59149  0.41444  0.50453  1.0000
  C   C1044     1.0  0.92778  0.43002  0.50723  1.0000
  C   C1045     1.0  0.71215  0.41508  0.80029  1.0000
  H   H1850     1.0  0.74325  0.48231  0.85566  1.0000
  C   C1046     1.0  0.87011  0.35451  0.69752  1.0000
  H   H1851     1.0  0.85680  0.33804  0.69718  1.0000
  H   H1852     1.0  0.69266  0.34628  0.78602  1.0000
  H   H1853     1.0  0.66575  0.28817  0.94034  1.0000
  H   H1854     1.0  0.78736  0.26530  0.78845  1.0000
  C   C1047     1.0  0.70972  0.35813  0.86135  1.0000
  H   H1855     1.0  0.71667  0.38681  0.82531  1.0000
  H   H1856     1.0  0.70701  0.34789  0.82354  1.0000
  H   H1857     1.0  0.70154  0.36387  0.87501  1.0000
  H   H1858     1.0  0.63154  0.36147  0.96293  1.0000
  H   H1859     1.0  0.62243  0.35238  0.80208  1.0000
  H   H1860     1.0  0.70931  0.34302  0.86826  1.0000
  C   C1048     1.0  0.58007  0.48015  0.52177  1.0000
  H   H1861     1.0  0.85881  0.45309  0.75926  1.0000
  H   H1862     1.0  0.69189  0.38157  0.83946  1.0000
  H   H1863     1.0  0.85381  0.36628  0.67276  1.0000
  H   H1864     1.0  0.86656  0.35657  0.73741  1.0000
  H   H1865     1.0  0.76881  0.25729  0.84193  1.0000
  C   C1049     1.0  0.69942  0.37517  0.82555  1.0000
  C   C1050     1.0  0.69870  0.35426  0.83607  1.0000
  C   C1051     1.0  0.86713  0.36581  0.72044  1.0000
  H   H1866     1.0  0.85193  0.36736  0.71917  1.0000
  H   H1867     1.0  0.61778  0.47806  0.50240  1.0000
  C   C1052     1.0  0.69154  0.31361  0.92154  1.0000
  H   H1868     1.0  0.73118  0.37690  0.79494  1.0000
  H   H1869     1.0  0.68209  0.34177  0.83845  1.0000
  N   N58       1.0  0.63451  0.30372  0.94480  1.0000
  H   H1870     1.0  0.72698  0.39035  0.76834  1.0000
  H   H1871     1.0  0.72515  0.34559  0.76859  1.0000
  H   H1872     1.0  0.69839  0.30280  0.91540  1.0000
  H   H1873     1.0  0.88079  0.38202  0.72228  1.0000
  N   N59       1.0  0.68901  0.37338  0.80045  1.0000
  C   C1053     1.0  0.69174  0.39507  0.79166  1.0000
  C   C1054     1.0  0.72218  0.37461  0.77731  1.0000
  H   H1874     1.0  0.67818  0.39808  0.79817  1.0000
  H   H1875     1.0  0.53713  0.35766  0.86063  1.0000
  H   H1876     1.0  0.72117  0.35910  0.74178  1.0000
  H   H1877     1.0  0.65885  0.36452  0.81955  1.0000
  C   C1055     1.0  0.69757  0.36336  0.78140  1.0000
  C   C1056     1.0  0.79927  0.45942  0.96660  1.0000
  H   H1878     1.0  0.74684  0.36988  0.75744  1.0000
  C   C1057     1.0  0.53710  0.37793  0.50366  1.0000
  H   H1879     1.0  0.83511  0.47780  0.93771  1.0000
  C   C1058     1.0  0.66524  0.35896  0.80361  1.0000
  H   H1880     1.0  0.66225  0.34240  0.80841  1.0000
  H   H1881     1.0  0.62357  0.48273  0.59245  1.0000
  H   H1882     1.0  0.85311  0.48508  0.79477  1.0000
  H   H1883     1.0  0.58396  0.27979  0.89308  1.0000
  H   H1884     1.0  0.62365  0.32774  0.79435  1.0000
  C   C1059     1.0  0.65074  0.35666  0.78074  1.0000
  C   C1060     1.0  0.62699  0.34391  0.78749  1.0000
  H   H1885     1.0  0.65296  0.37237  0.77356  1.0000
  H   H1886     1.0  0.61687  0.34211  0.77085  1.0000
  H   H1887     1.0  0.64351  0.47831  0.66337  1.0000
  C   C1061     1.0  0.73094  0.25802  0.82456  1.0000
  H   H1888     1.0  0.69943  0.43785  0.79246  1.0000
  N   N60       1.0  0.91219  0.45684  0.49909  1.0000
  C   C1062     1.0  0.59734  0.42905  0.54044  1.0000
  H   H1889     1.0  0.88957  0.47496  0.53066  1.0000
  C   C1063     1.0  0.54915  0.36516  0.49458  1.0000
  H   H1890     1.0  0.57768  0.45175  0.91564  1.0000
  C   C1064     1.0  0.57628  0.43756  0.83373  1.0000
  H   H1891     1.0  0.91703  0.46170  0.53890  1.0000
  C   C1065     1.0  0.51274  0.40154  0.51776  1.0000
  H   H1892     1.0  0.58853  0.47159  0.55776  1.0000
  C   C1066     1.0  0.62132  0.35275  0.94688  1.0000
  H   H1893     1.0  0.70408  0.27003  0.96559  1.0000
  H   H1894     1.0  0.90535  0.48409  0.49517  1.0000
  H   H1895     1.0  0.60170  0.43860  0.85783  1.0000
  H   H1896     1.0  0.56594  0.43188  0.51529  1.0000
  C   C1067     1.0  0.52021  0.48475  0.66972  1.0000
  H   H1897     1.0  0.65144  0.48876  0.56047  1.0000
  H   H1898     1.0  0.94193  0.40802  0.50550  1.0000
  H   H1899     1.0  0.68475  0.48334  0.69021  1.0000
  H   H1900     1.0  0.92426  0.49248  0.59609  1.0000
  H   H1901     1.0  0.72823  0.44942  0.79511  1.0000
  H   H1902     1.0  0.83189  0.45296  0.81918  1.0000
  H   H1903     1.0  0.56860  0.48148  0.55925  1.0000
  C   C1068     1.0  0.88469  0.45756  0.53148  1.0000
  C   C1069     1.0  0.50266  0.48833  0.67660  1.0000
  C   C1070     1.0  0.77813  0.26849  0.82686  1.0000
  H   H1904     1.0  0.57841  0.39641  0.53003  1.0000
  C   C1071     1.0  0.57432  0.47157  0.54827  1.0000
  C   C1072     1.0  0.80224  0.34096  0.79014  1.0000
  C   C1073     1.0  0.83468  0.45147  0.79911  1.0000
  H   H1905     1.0  0.72930  0.27195  0.95453  1.0000
  H   H1906     1.0  0.50383  0.38393  0.51979  1.0000
  H   H1907     1.0  0.65782  0.32480  0.91821  1.0000
  C   C1074     1.0  0.91921  0.48027  0.49395  1.0000
  H   H1908     1.0  0.60519  0.46468  0.94876  1.0000
  C   C1075     1.0  0.58288  0.26754  0.90685  1.0000
  H   H1909     1.0  0.79692  0.48173  0.92755  1.0000
  C   C1076     1.0  0.65778  0.48786  0.67522  1.0000
  C   C1077     1.0  0.74923  0.27748  0.81162  1.0000
  H   H1910     1.0  0.54792  0.33375  0.49862  1.0000
  C   C1078     1.0  0.75900  0.48355  0.92685  1.0000
  H   H1911     1.0  0.84611  0.49875  0.48809  1.0000
  H   H1912     1.0  0.70556  0.26247  0.80531  1.0000
  H   H1913     1.0  0.51076  0.31654  0.56079  1.0000
  H   H1914     1.0  0.80220  0.32148  0.85249  1.0000
  H   H1915     1.0  0.72745  0.26271  0.84305  1.0000
  H   H1916     1.0  0.86333  0.49385  0.72274  1.0000
  H   H1917     1.0  0.75934  0.28119  0.86149  1.0000
  H   H1918     1.0  0.92869  0.43024  0.52784  1.0000
  Fe  Fe128     1.0  0.88118  0.28755  0.49027  1.0000
  H   H1919     1.0  0.59350  0.26521  0.94341  1.0000
  H   H1920     1.0  0.50359  0.34886  0.55048  1.0000
  C   C1079     1.0  0.77676  0.25508  0.80336  1.0000
  H   H1921     1.0  0.84868  0.45377  0.91647  1.0000
  C   C1080     1.0  0.93153  0.45243  0.49786  1.0000
  C   C1081     1.0  0.90514  0.47626  0.77969  1.0000
  H   H1922     1.0  0.60168  0.28050  0.98049  1.0000
  H   H1923     1.0  0.58731  0.38811  0.98560  1.0000
  H   H1924     1.0  0.74555  0.48511  0.93620  1.0000
  H   H1925     1.0  0.59710  0.47077  0.82382  1.0000
  H   H1926     1.0  0.51755  0.43019  0.86444  1.0000
  H   H1927     1.0  0.96114  0.43579  0.50314  1.0000
  S   S248      1.0  0.92596  0.34842  0.49444  1.0000
  H   H1928     1.0  0.91275  0.49192  0.74368  1.0000
  C   C1082     1.0  0.52856  0.40770  0.49543  1.0000
  H   H1929     1.0  0.87761  0.48779  0.67290  1.0000
  H   H1930     1.0  0.58883  0.25674  0.89824  1.0000
  H   H1931     1.0  0.92279  0.49872  0.55128  1.0000
  H   H1932     1.0  0.55169  0.49863  0.65318  1.0000
  C   C1083     1.0  0.63271  0.49850  0.58468  1.0000
  H   H1933     1.0  0.53493  0.42526  0.49306  1.0000
  H   H1934     1.0  0.66284  0.50022  0.62864  1.0000
  H   H1935     1.0  0.77308  0.49955  0.92615  1.0000
  H   H1936     1.0  0.62743  0.49958  0.69525  1.0000
  H   H1937     1.0  0.80188  0.43346  0.98695  1.0000
  Fe  Fe129     1.0  0.91518  0.57405  0.45377  1.0000
  S   S249      1.0  0.91410  0.56478  0.41345  1.0000
  S   S250      1.0  0.91707  0.60564  0.46615  1.0000
  Fe  Fe130     1.0  0.56254  0.67010  0.46813  1.0000
  S   S251      1.0  0.59360  0.69317  0.45076  1.0000
  S   S252      1.0  0.53047  0.64706  0.45126  1.0000
  H   H1938     1.0  0.53773  0.57551  0.32958  1.0000
  C   C1084     1.0  0.57611  0.57343  0.39775  1.0000
  H   H1939     1.0  0.57592  0.58743  0.34452  1.0000
  C   C1085     1.0  0.55140  0.59065  0.32350  1.0000
  H   H1940     1.0  0.58153  0.61449  0.33667  1.0000
  Fe  Fe131     1.0  0.69464  0.56900  0.45582  1.0000
  S   S253      1.0  0.72000  0.60237  0.46381  1.0000
  S   S254      1.0  0.67743  0.56323  0.41876  1.0000
  H   H1941     1.0  0.59945  0.60032  0.37672  1.0000
  C   C1086     1.0  0.59248  0.50406  0.47598  1.0000
  C   C1087     1.0  0.65098  0.63879  0.46518  1.0000
  H   H1942     1.0  0.66132  0.50663  0.29744  1.0000
  H   H1943     1.0  0.81564  0.61187  0.45428  1.0000
  H   H1944     1.0  0.55709  0.71674  0.43339  1.0000
  H   H1945     1.0  0.63216  0.67814  0.41050  1.0000
  H   H1946     1.0  0.76743  0.67323  0.45186  1.0000
  C   C1088     1.0  0.54176  0.64935  0.40152  1.0000
  C   C1089     1.0  0.52624  0.63904  0.41975  1.0000
  H   H1947     1.0  0.92637  0.53888  0.31952  1.0000
  H   H1948     1.0  0.51072  0.57770  0.20091  1.0000
  H   H1949     1.0  0.55680  0.66277  0.40655  1.0000
  H   H1950     1.0  0.53491  0.60735  0.44987  1.0000
  H   H1951     1.0  0.78406  0.53454  0.42941  1.0000
  C   C1090     1.0  0.53171  0.53053  0.30880  1.0000
  C   C1091     1.0  0.53767  0.64239  0.37666  1.0000
  H   H1952     1.0  0.56281  0.74317  0.42236  1.0000
  H   H1953     1.0  0.97322  0.53738  0.41535  1.0000
  H   H1954     1.0  0.54632  0.54539  0.30907  1.0000
  S   S255      1.0  0.77399  0.59780  0.47733  1.0000
  H   H1955     1.0  0.60262  0.53036  0.44881  1.0000
  C   C1092     1.0  0.89706  0.50861  0.37745  1.0000
  C   C1093     1.0  0.64367  0.53494  0.39081  1.0000
  C   C1094     1.0  0.65840  0.53733  0.40986  1.0000
  H   H1956     1.0  0.54399  0.58763  0.45781  1.0000
  H   H1957     1.0  0.64553  0.63544  0.44614  1.0000
  H   H1958     1.0  0.84844  0.60758  0.46433  1.0000
  H   H1959     1.0  0.64382  0.54898  0.38220  1.0000
  H   H1960     1.0  0.76986  0.54523  0.47964  1.0000
  H   H1961     1.0  0.98324  0.58841  0.38194  1.0000
  H   H1962     1.0  0.60414  0.56949  0.40993  1.0000
  C   C1095     1.0  0.62893  0.51448  0.38259  1.0000
  H   H1963     1.0  0.98444  0.51722  0.38431  1.0000
  H   H1964     1.0  0.93975  0.52876  0.35627  1.0000
  H   H1965     1.0  0.79079  0.51887  0.47109  1.0000
  C   C1096     1.0  0.90480  0.53729  0.40741  1.0000
  C   C1097     1.0  0.90281  0.53017  0.38278  1.0000
  H   H1966     1.0  0.73329  0.71771  0.47448  1.0000
  H   H1967     1.0  0.56307  0.56555  0.38398  1.0000
  H   H1968     1.0  0.67901  0.51564  0.36251  1.0000
  C   C1098     1.0  0.89981  0.52250  0.42673  1.0000
  H   H1969     1.0  0.90575  0.54137  0.36775  1.0000
  H   H1970     1.0  0.61698  0.51451  0.44613  1.0000
  H   H1971     1.0  0.90097  0.52777  0.44578  1.0000
  H   H1972     1.0  0.66672  0.61809  0.46430  1.0000
  H   H1973     1.0  0.89940  0.50574  0.27533  1.0000
  H   H1974     1.0  0.75657  0.52037  0.46262  1.0000
  H   H1975     1.0  0.84721  0.52740  0.46124  1.0000
  H   H1976     1.0  0.61807  0.63915  0.40888  1.0000
  H   H1977     1.0  0.60072  0.63353  0.36712  1.0000
  H   H1978     1.0  0.96505  0.59689  0.42756  1.0000
  H   H1979     1.0  0.91860  0.52378  0.25354  1.0000
  C   C1099     1.0  0.82618  0.50547  0.42350  1.0000
  C   C1100     1.0  0.58881  0.59777  0.39309  1.0000
  C   C1101     1.0  0.94404  0.54636  0.32250  1.0000
  S   S256      1.0  0.96374  0.50386  0.31326  1.0000
  C   C1102     1.0  0.54979  0.72689  0.42611  1.0000
  N   N61       1.0  0.98001  0.55609  0.38178  1.0000
  H   H1980     1.0  0.95080  0.53748  0.31134  1.0000
  C   C1103     1.0  0.96722  0.53571  0.39594  1.0000
  C   C1104     1.0  0.97317  0.55385  0.35489  1.0000
  S   S257      1.0  0.94168  0.57563  0.47855  1.0000
  H   H1981     1.0  0.54543  0.60266  0.31971  1.0000
  H   H1982     1.0  0.62304  0.54593  0.48193  1.0000
  C   C1105     1.0  0.94879  0.54557  0.35007  1.0000
  H   H1983     1.0  0.69679  0.67148  0.47268  1.0000
  H   H1984     1.0  0.99456  0.51382  0.19110  1.0000
  H   H1985     1.0  0.63833  0.50577  0.26638  1.0000
  H   H1986     1.0  0.73197  0.64822  0.45196  1.0000
  H   H1987     1.0  0.75551  0.67395  0.42275  1.0000
  H   H1988     1.0  0.99246  0.61354  0.41791  1.0000
  H   H1989     1.0  0.65927  0.50340  0.47347  1.0000
  C   C1106     1.0  0.71217  0.68398  0.46515  1.0000
  H   H1990     1.0  0.70740  0.64251  0.46626  1.0000
  H   H1991     1.0  0.95131  0.52115  0.47982  1.0000
  H   H1992     1.0  0.59766  0.56409  0.37727  1.0000
  H   H1993     1.0  0.70859  0.68683  0.44573  1.0000
  H   H1994     1.0  0.95861  0.56915  0.39406  1.0000
  H   H1995     1.0  0.95099  0.56316  0.31593  1.0000
  H   H1996     1.0  0.50039  0.66358  0.20553  1.0000
  C   C1107     1.0  0.65819  0.51913  0.42079  1.0000
  H   H1997     1.0  0.68576  0.52703  0.33182  1.0000
  H   H1998     1.0  0.94255  0.55553  0.35984  1.0000
  C   C1108     1.0  0.78477  0.70185  0.43089  1.0000
  H   H1999     1.0  0.57730  0.50538  0.47923  1.0000
  H   H2000     1.0  0.50224  0.71113  0.48088  1.0000
  S   S258      1.0  0.63257  0.66669  0.46441  1.0000
  H   H2001     1.0  0.97395  0.56631  0.43341  1.0000
  C   C1109     1.0  0.50017  0.58182  0.21298  1.0000
  H   H2002     1.0  0.97834  0.54302  0.34481  1.0000
  C   C1110     1.0  0.83454  0.60053  0.47630  1.0000
  C   C1111     1.0  0.50269  0.61467  0.38810  1.0000
  S   S259      1.0  0.71293  0.55357  0.47489  1.0000
  H   H2003     1.0  0.54150  0.71986  0.40836  1.0000
  C   C1112     1.0  0.98197  0.59945  0.42921  1.0000
  C   C1113     1.0  0.51817  0.62498  0.36986  1.0000
  C   C1114     1.0  0.91457  0.50941  0.26523  1.0000
  H   H2004     1.0  0.51381  0.74999  0.13237  1.0000
  C   C1115     1.0  0.56898  0.59894  0.34333  1.0000
  Fe  Fe132     1.0  0.59481  0.71704  0.48039  1.0000
  H   H2005     1.0  0.88230  0.58344  0.40702  1.0000
  H   H2006     1.0  0.68415  0.70033  0.47997  1.0000
  H   H2007     1.0  0.69639  0.62998  0.39739  1.0000
  H   H2008     1.0  0.61030  0.67706  0.39170  1.0000
  H   H2009     1.0  0.54966  0.65053  0.36260  1.0000
  H   H2010     1.0  0.79402  0.71143  0.44707  1.0000
  Fe  Fe133     1.0  0.73753  0.58687  0.48540  1.0000
  H   H2011     1.0  0.58144  0.54515  0.40028  1.0000
  C   C1116     1.0  0.70910  0.65234  0.42809  1.0000
  C   C1117     1.0  0.86816  0.58181  0.41803  1.0000
  H   H2012     1.0  0.71944  0.62966  0.41232  1.0000
  H   H2013     1.0  0.61779  0.51280  0.36774  1.0000
  H   H2014     1.0  0.78179  0.71241  0.41764  1.0000
  H   H2015     1.0  0.69349  0.65296  0.43022  1.0000
  Fe  Fe134     1.0  0.60978  0.68044  0.47849  1.0000
  C   C1118     1.0  0.81201  0.51671  0.43050  1.0000
  N   N62       1.0  0.57563  0.60986  0.38995  1.0000
  C   C1119     1.0  0.55970  0.60106  0.36882  1.0000
  C   C1120     1.0  0.56431  0.61002  0.41394  1.0000
  C   C1121     1.0  0.59077  0.63277  0.38356  1.0000
  C   C1122     1.0  0.60693  0.64603  0.40419  1.0000
  C   C1123     1.0  0.54132  0.59177  0.41802  1.0000
  H   H2016     1.0  0.75783  0.54479  0.44997  1.0000
  C   C1124     1.0  0.62061  0.66903  0.39563  1.0000
  H   H2017     1.0  0.55119  0.61112  0.36616  1.0000
  H   H2018     1.0  0.54679  0.58491  0.37304  1.0000
  H   H2019     1.0  0.57443  0.61047  0.43021  1.0000
  H   H2020     1.0  0.56231  0.62493  0.41543  1.0000
  H   H2021     1.0  0.58140  0.64161  0.37832  1.0000
  H   H2022     1.0  0.59999  0.60420  0.40911  1.0000
  H   H2023     1.0  0.56915  0.57059  0.41669  1.0000
  H   H2024     1.0  0.59857  0.64681  0.42142  1.0000
  H   H2025     1.0  0.52984  0.59425  0.40562  1.0000
  H   H2026     1.0  0.95007  0.53257  0.39761  1.0000
  H   H2027     1.0  0.50430  0.71146  0.13013  1.0000
  S   S260      1.0  0.51401  0.61620  0.33860  1.0000
  C   C1125     1.0  0.71980  0.65427  0.45387  1.0000
  N   N63       1.0  0.72928  0.67621  0.46557  1.0000
  H   H2028     1.0  0.62988  0.66936  0.37872  1.0000
  N   N64       1.0  0.82058  0.53377  0.45040  1.0000
  C   C1126     1.0  0.70435  0.63106  0.41557  1.0000
  C   C1127     1.0  0.83414  0.55550  0.43924  1.0000
  C   C1128     1.0  0.80188  0.53485  0.46358  1.0000
  C   C1129     1.0  0.76357  0.68358  0.43941  1.0000
  H   H2029     1.0  0.85888  0.58820  0.40689  1.0000
  H   H2030     1.0  0.74411  0.70008  0.43677  1.0000
  C   C1130     1.0  0.78792  0.54249  0.44782  1.0000
  C   C1131     1.0  0.85428  0.55829  0.42442  1.0000
  H   H2031     1.0  0.69342  0.61745  0.42727  1.0000
  H   H2032     1.0  0.80771  0.54568  0.47999  1.0000
  H   H2033     1.0  0.92479  0.51767  0.47145  1.0000
  C   C1132     1.0  0.76678  0.53786  0.46087  1.0000
  C   C1133     1.0  0.83375  0.52937  0.46980  1.0000
  C   C1134     1.0  0.81580  0.60296  0.47062  1.0000
  H   H2034     1.0  0.82463  0.56002  0.42600  1.0000
  H   H2035     1.0  0.83948  0.56780  0.45416  1.0000
  C   C1135     1.0  0.97612  0.57368  0.39350  1.0000
  H   H2036     1.0  0.79465  0.69520  0.42142  1.0000
  H   H2037     1.0  0.84157  0.54340  0.48242  1.0000
  H   H2038     1.0  0.80871  0.52347  0.41321  1.0000
  H   H2039     1.0  0.54018  0.57581  0.41393  1.0000
  C   C1136     1.0  0.74887  0.69221  0.45193  1.0000
  H   H2040     1.0  0.66980  0.52091  0.43507  1.0000
  H   H2041     1.0  0.52099  0.71131  0.44741  1.0000
  H   H2042     1.0  0.71948  0.66555  0.41564  1.0000
  H   H2043     1.0  0.79656  0.56007  0.44504  1.0000
  C   C1137     1.0  0.67255  0.51558  0.34361  1.0000
  H   H2044     1.0  0.92753  0.51285  0.27910  1.0000
  H   H2045     1.0  0.75902  0.70549  0.46464  1.0000
  H   H2046     1.0  0.84936  0.54937  0.40662  1.0000
  H   H2047     1.0  0.86454  0.55277  0.43488  1.0000
  C   C1138     1.0  0.96775  0.51529  0.38544  1.0000
  H   H2048     1.0  0.52638  0.73757  0.43632  1.0000
  H   H2049     1.0  0.55793  0.58757  0.30596  1.0000
  H   H2050     1.0  0.89583  0.50333  0.35839  1.0000
  C   C1139     1.0  0.64607  0.65309  0.47919  1.0000
  C   C1140     1.0  0.79729  0.59405  0.48577  1.0000
  C   C1141     1.0  0.53295  0.51107  0.31031  1.0000
  S   S261      1.0  0.55843  0.51134  0.31214  1.0000
  H   H2051     1.0  0.98134  0.56950  0.34527  1.0000
  C   C1142     1.0  0.59082  0.56248  0.39623  1.0000
  H   H2052     1.0  0.87406  0.59146  0.43525  1.0000
  H   H2053     1.0  0.93774  0.50996  0.22463  1.0000
  C   C1143     1.0  0.51169  0.53086  0.30664  1.0000
  H   H2054     1.0  0.94326  0.51863  0.44763  1.0000
  S   S262      1.0  0.88891  0.55480  0.48016  1.0000
  H   H2055     1.0  0.51002  0.59212  0.22839  1.0000
  H   H2056     1.0  0.96050  0.51140  0.36666  1.0000
  C   C1144     1.0  0.66309  0.62895  0.47544  1.0000
  C   C1145     1.0  0.98396  0.57954  0.42072  1.0000
  H   H2057     1.0  0.84310  0.51692  0.41989  1.0000
  C   C1146     1.0  0.71732  0.70484  0.47974  1.0000
  H   H2058     1.0  0.65983  0.52099  0.34514  1.0000
  H   H2059     1.0  0.51088  0.54589  0.30511  1.0000
  C   C1147     1.0  0.53369  0.72789  0.44474  1.0000
  H   H2060     1.0  0.63858  0.52329  0.47961  1.0000
  H   H2061     1.0  0.55241  0.72746  0.47621  1.0000
  H   H2062     1.0  0.51691  0.57937  0.44671  1.0000
  H   H2063     1.0  0.70031  0.71674  0.45478  1.0000
  C   C1148     1.0  0.98905  0.50506  0.30657  1.0000
  C   C1149     1.0  0.53389  0.59154  0.44477  1.0000
  C   C1150     1.0  0.70042  0.71274  0.47472  1.0000
  C   C1151     1.0  0.60106  0.51388  0.45004  1.0000
  H   H2064     1.0  0.63596  0.50603  0.22054  1.0000
  H   H2065     1.0  0.50754  0.74422  0.46680  1.0000
  C   C1152     1.0  0.54497  0.73768  0.46966  1.0000
  H   H2066     1.0  0.50193  0.71954  0.16115  1.0000
  C   C1153     1.0  0.50669  0.62175  0.41290  1.0000
  C   C1154     1.0  0.93769  0.51304  0.46676  1.0000
  H   H2067     1.0  0.98691  0.60292  0.44897  1.0000
  H   H2068     1.0  0.97593  0.50378  0.23199  1.0000
  H   H2069     1.0  0.59162  0.50886  0.41123  1.0000
  H   H2070     1.0  0.79615  0.50363  0.43605  1.0000
  H   H2071     1.0  0.81814  0.50156  0.38408  1.0000
  C   C1155     1.0  0.82126  0.50973  0.48669  1.0000
  H   H2072     1.0  0.70409  0.72732  0.48588  1.0000
  S   S263      1.0  0.60981  0.51210  0.61600  1.0000
  H   H2073     1.0  0.96211  0.55863  0.55780  1.0000
  H   H2074     1.0  0.92908  0.63043  0.59360  1.0000
  S   S264      1.0  0.52038  0.54891  0.65234  1.0000
  H   H2075     1.0  0.68678  0.54112  0.68576  1.0000
  C   C1156     1.0  0.58075  0.60797  0.56770  1.0000
  C   C1157     1.0  0.67112  0.63378  0.49972  1.0000
  S   S265      1.0  0.91542  0.52936  0.52354  1.0000
  S   S266      1.0  0.91707  0.58911  0.52275  1.0000
  Fe  Fe135     1.0  0.58100  0.68198  0.52022  1.0000
  S   S267      1.0  0.61363  0.70611  0.50665  1.0000
  S   S268      1.0  0.57229  0.67366  0.56065  1.0000
  H   H2076     1.0  0.61544  0.52527  0.67501  1.0000
  S   S269      1.0  0.72039  0.58785  0.52093  1.0000
  S   S270      1.0  0.68070  0.52611  0.53439  1.0000
  C   C1158     1.0  0.87259  0.51869  0.76107  1.0000
  H   H2077     1.0  0.63549  0.64049  0.55676  1.0000
  C   C1159     1.0  0.72402  0.53875  0.70075  1.0000
  H   H2078     1.0  0.54895  0.61421  0.66806  1.0000
  C   C1160     1.0  0.91569  0.53663  0.59871  1.0000
  C   C1161     1.0  0.92063  0.50927  0.56439  1.0000
  C   C1162     1.0  0.55982  0.62092  0.65192  1.0000
  H   H2079     1.0  0.58415  0.58596  0.61515  1.0000
  H   H2080     1.0  0.91362  0.54716  0.61200  1.0000
  H   H2081     1.0  0.57661  0.62628  0.65841  1.0000
  H   H2082     1.0  0.55564  0.70717  0.63327  1.0000
  H   H2083     1.0  0.94467  0.59047  0.56472  1.0000
  C   C1163     1.0  0.66064  0.52240  0.55653  1.0000
  C   C1164     1.0  0.65687  0.53940  0.56468  1.0000
  H   H2084     1.0  0.96476  0.63210  0.59534  1.0000
  H   H2085     1.0  0.65041  0.52219  0.70758  1.0000
  H   H2086     1.0  0.66645  0.55530  0.55742  1.0000
  H   H2087     1.0  0.59246  0.55395  0.61178  1.0000
  C   C1165     1.0  0.53808  0.52100  0.65374  1.0000
  C   C1166     1.0  0.51083  0.50960  0.59304  1.0000
  H   H2088     1.0  0.55195  0.53368  0.64513  1.0000
  C   C1167     1.0  0.97608  0.59267  0.62311  1.0000
  C   C1168     1.0  0.53383  0.64155  0.54468  1.0000
  C   C1169     1.0  0.54708  0.65150  0.56496  1.0000
  C   C1170     1.0  0.54025  0.64355  0.58895  1.0000
  C   C1171     1.0  0.52043  0.62546  0.59258  1.0000
  H   H2089     1.0  0.53884  0.64762  0.52612  1.0000
  H   H2090     1.0  0.55051  0.65126  0.60465  1.0000
  C   C1172     1.0  0.65355  0.65740  0.50369  1.0000
  Fe  Fe136     1.0  0.89155  0.58622  0.49435  1.0000
  H   H2091     1.0  0.99927  0.59213  0.55583  1.0000
  C   C1173     1.0  0.64094  0.53592  0.58259  1.0000
  H   H2092     1.0  0.56612  0.53638  0.59970  1.0000
  C   C1174     1.0  0.79808  0.58271  0.50693  1.0000
  H   H2093     1.0  0.88949  0.50636  0.78509  1.0000
  H   H2094     1.0  0.94460  0.60598  0.60510  1.0000
  C   C1175     1.0  0.69837  0.53655  0.60570  1.0000
  C   C1176     1.0  0.91688  0.52621  0.55585  1.0000
  C   C1177     1.0  0.91445  0.53999  0.57305  1.0000
  H   H2095     1.0  0.50378  0.61612  0.53253  1.0000
  H   H2096     1.0  0.65028  0.66859  0.51464  1.0000
  H   H2097     1.0  0.54966  0.69037  0.60592  1.0000
  S   S271      1.0  0.92136  0.51555  0.63925  1.0000
  H   H2098     1.0  0.91132  0.55298  0.56662  1.0000
  H   H2099     1.0  0.58575  0.61932  0.61670  1.0000
  H   H2100     1.0  0.68910  0.50735  0.63930  1.0000
  N   N65       1.0  0.56646  0.59599  0.58913  1.0000
  H   H2101     1.0  0.60938  0.50611  0.53628  1.0000
  Fe  Fe137     1.0  0.69530  0.55527  0.50938  1.0000
  S   S272      1.0  0.85850  0.58506  0.50544  1.0000
  H   H2102     1.0  0.61292  0.63758  0.53791  1.0000
  H   H2103     1.0  0.71546  0.53863  0.66257  1.0000
  H   H2104     1.0  0.55792  0.63485  0.64469  1.0000
  H   H2105     1.0  0.61643  0.54356  0.53893  1.0000
  H   H2106     1.0  0.95251  0.57207  0.53628  1.0000
  C   C1178     1.0  0.87688  0.53607  0.78051  1.0000
  C   C1179     1.0  0.66612  0.64798  0.51374  1.0000
  H   H2107     1.0  0.55538  0.58987  0.64027  1.0000
  H   H2108     1.0  0.61549  0.57536  0.51975  1.0000
  H   H2109     1.0  0.58060  0.59691  0.55287  1.0000
  H   H2110     1.0  0.66944  0.53588  0.62061  1.0000
  C   C1180     1.0  0.55405  0.60372  0.63191  1.0000
  H   H2111     1.0  0.57443  0.61839  0.55863  1.0000
  Fe  Fe138     1.0  0.70059  0.60007  0.49813  1.0000
  H   H2112     1.0  0.72437  0.55443  0.70513  1.0000
  C   C1181     1.0  0.51392  0.62372  0.54834  1.0000
  C   C1182     1.0  0.91936  0.51954  0.60717  1.0000
  C   C1183     1.0  0.50058  0.71647  0.51992  1.0000
  C   C1184     1.0  0.61879  0.62930  0.55134  1.0000
  H   H2113     1.0  0.50598  0.64938  0.70297  1.0000
  H   H2114     1.0  0.53019  0.67632  0.65980  1.0000
  H   H2115     1.0  0.54460  0.72193  0.52905  1.0000
  C   C1185     1.0  0.58244  0.54879  0.59470  1.0000
  H   H2116     1.0  0.50965  0.55258  0.53455  1.0000
  H   H2117     1.0  0.97022  0.57966  0.66053  1.0000
  C   C1186     1.0  0.62638  0.52963  0.69133  1.0000
  C   C1187     1.0  0.74932  0.66383  0.49809  1.0000
  C   C1188     1.0  0.53709  0.57062  0.55842  1.0000
  H   H2118     1.0  0.55760  0.56649  0.60948  1.0000
  C   C1189     1.0  0.54331  0.58630  0.58064  1.0000
  C   C1190     1.0  0.60458  0.62263  0.57444  1.0000
  H   H2119     1.0  0.93927  0.63238  0.56247  1.0000
  H   H2120     1.0  0.61907  0.61518  0.54219  1.0000
  H   H2121     1.0  0.91921  0.60701  0.57422  1.0000
  H   H2122     1.0  0.53230  0.57710  0.59592  1.0000
  H   H2123     1.0  0.53888  0.59928  0.57564  1.0000
  C   C1191     1.0  0.97184  0.58488  0.59573  1.0000
  H   H2124     1.0  0.51659  0.69826  0.63679  1.0000
  H   H2125     1.0  0.53707  0.59884  0.62667  1.0000
  H   H2126     1.0  0.76143  0.65305  0.52954  1.0000
  H   H2127     1.0  0.58986  0.54152  0.58190  1.0000
  H   H2128     1.0  0.54753  0.57770  0.54210  1.0000
  C   C1192     1.0  0.58120  0.56783  0.58213  1.0000
  H   H2129     1.0  0.61100  0.61464  0.58752  1.0000
  H   H2130     1.0  0.71934  0.66568  0.50311  1.0000
  C   C1193     1.0  0.51974  0.66870  0.64348  1.0000
  S   S273      1.0  0.57835  0.65617  0.49386  1.0000
  H   H2131     1.0  0.89132  0.50319  0.71709  1.0000
  H   H2132     1.0  0.52080  0.62633  0.72049  1.0000
  H   H2133     1.0  0.56693  0.62578  0.60110  1.0000
  C   C1194     1.0  0.67591  0.51208  0.64050  1.0000
  H   H2134     1.0  0.99417  0.62879  0.60031  1.0000
  C   C1195     1.0  0.62895  0.51552  0.59279  1.0000
  H   H2135     1.0  0.53790  0.55575  0.56397  1.0000
  H   H2136     1.0  0.69075  0.52281  0.59277  1.0000
  H   H2137     1.0  0.75673  0.67591  0.53610  1.0000
  H   H2138     1.0  0.59776  0.57909  0.57640  1.0000
  C   C1196     1.0  0.57196  0.57908  0.60006  1.0000
  C   C1197     1.0  0.68359  0.53417  0.62768  1.0000
  H   H2139     1.0  0.99005  0.56089  0.52780  1.0000
  H   H2140     1.0  0.67231  0.65202  0.53244  1.0000
  H   H2141     1.0  0.60593  0.63752  0.58340  1.0000
  C   C1198     1.0  0.95146  0.61682  0.58906  1.0000
  H   H2142     1.0  0.57149  0.56196  0.56507  1.0000
  C   C1199     1.0  0.56911  0.61220  0.60910  1.0000
  C   C1200     1.0  0.52015  0.52427  0.65970  1.0000
  H   H2143     1.0  0.51538  0.61921  0.61102  1.0000
  H   H2144     1.0  0.63822  0.54919  0.58894  1.0000
  C   C1201     1.0  0.97602  0.56323  0.52159  1.0000
  S   S274      1.0  0.56260  0.69408  0.49599  1.0000
  N   N66       1.0  0.97786  0.60168  0.57555  1.0000
  C   C1202     1.0  0.75050  0.66045  0.52600  1.0000
  H   H2145     1.0  0.70163  0.55142  0.59532  1.0000
  C   C1203     1.0  0.96620  0.57386  0.64112  1.0000
  C   C1204     1.0  0.93370  0.62195  0.57912  1.0000
  H   H2146     1.0  0.96213  0.61530  0.55158  1.0000
  C   C1205     1.0  0.59701  0.50398  0.52190  1.0000
  C   C1206     1.0  0.96705  0.57102  0.54312  1.0000
  H   H2147     1.0  0.71390  0.53748  0.61225  1.0000
  C   C1207     1.0  0.50243  0.50792  0.67123  1.0000
  C   C1208     1.0  0.51397  0.71789  0.49638  1.0000
  H   H2148     1.0  0.58798  0.51245  0.52943  1.0000
  H   H2149     1.0  0.87311  0.52901  0.79941  1.0000
  C   C1209     1.0  0.81692  0.58048  0.51276  1.0000
  C   C1210     1.0  0.62561  0.54997  0.52156  1.0000
  C   C1211     1.0  0.68572  0.52475  0.68467  1.0000
  H   H2150     1.0  0.73435  0.64951  0.53334  1.0000
  H   H2151     1.0  0.98685  0.60423  0.53661  1.0000
  H   H2152     1.0  0.99079  0.50936  0.65822  1.0000
  H   H2153     1.0  0.96343  0.54768  0.51476  1.0000
  Fe  Fe139     1.0  0.91546  0.55890  0.50634  1.0000
  H   H2154     1.0  0.65751  0.53538  0.66096  1.0000
  H   H2155     1.0  0.52744  0.65999  0.63343  1.0000
  C   C1212     1.0  0.95894  0.60580  0.56899  1.0000
  N   N67       1.0  0.60770  0.51390  0.49749  1.0000
  S   S275      1.0  0.68868  0.62392  0.51284  1.0000
  C   C1213     1.0  0.98393  0.59317  0.55259  1.0000
  H   H2156     1.0  0.81714  0.57176  0.52924  1.0000
  H   H2157     1.0  0.95459  0.57319  0.59408  1.0000
  C   C1214     1.0  0.62842  0.51209  0.49423  1.0000
  H   H2158     1.0  0.94841  0.56576  0.63921  1.0000
  H   H2159     1.0  0.63750  0.54698  0.69049  1.0000
  H   H2160     1.0  0.64100  0.54909  0.52324  1.0000
  S   S276      1.0  0.97503  0.63520  0.50129  1.0000
  H   H2161     1.0  0.86652  0.54408  0.77674  1.0000
  C   C1215     1.0  0.63057  0.57357  0.52001  1.0000
  H   H2162     1.0  0.89396  0.54829  0.77986  1.0000
  H   H2163     1.0  0.96946  0.60399  0.62756  1.0000
  H   H2164     1.0  0.50258  0.55681  0.56552  1.0000
  H   H2165     1.0  0.99321  0.64449  0.55752  1.0000
  H   H2166     1.0  0.78422  0.57581  0.51897  1.0000
  C   C1216     1.0  0.54442  0.70043  0.61736  1.0000
  H   H2167     1.0  0.98076  0.57515  0.59334  1.0000
  H   H2168     1.0  0.81173  0.51362  0.50059  1.0000
  H   H2169     1.0  0.69225  0.54757  0.64075  1.0000
  H   H2170     1.0  0.87557  0.52641  0.74249  1.0000
  H   H2171     1.0  0.90377  0.51917  0.75820  1.0000
  C   C1217     1.0  0.65079  0.51834  0.66673  1.0000
  C   C1218     1.0  0.63902  0.51650  0.69175  1.0000
  H   H2172     1.0  0.59812  0.53946  0.49704  1.0000
  H   H2173     1.0  0.51782  0.61296  0.69110  1.0000
  C   C1219     1.0  0.51126  0.62156  0.70306  1.0000
  C   C1220     1.0  0.88747  0.50771  0.76485  1.0000
  H   H2174     1.0  0.52112  0.70655  0.49855  1.0000
  H   H2175     1.0  0.99363  0.60092  0.62685  1.0000
  H   H2176     1.0  0.97245  0.56200  0.63756  1.0000
  C   C1221     1.0  0.99731  0.62187  0.58316  1.0000
  Fe  Fe140     1.0  0.94238  0.60590  0.49319  1.0000
  H   H2177     1.0  0.61654  0.52647  0.70845  1.0000
  H   H2178     1.0  0.51233  0.57851  0.54342  1.0000
  C   C1222     1.0  0.51401  0.56427  0.55002  1.0000
  H   H2179     1.0  0.85536  0.50700  0.76200  1.0000
  C   C1223     1.0  0.50719  0.61556  0.57221  1.0000
  C   C1224     1.0  0.52138  0.68733  0.62649  1.0000
  H   H2180     1.0  0.64023  0.58226  0.53643  1.0000
  H   H2181     1.0  0.63835  0.51733  0.51135  1.0000
  H   H2182     1.0  0.98089  0.57486  0.50603  1.0000
  H   H2183     1.0  0.64007  0.58112  0.50310  1.0000
  C   C1225     1.0  0.73450  0.67451  0.49250  1.0000
  H   H2184     1.0  0.54531  0.71386  0.60563  1.0000
  H   H2185     1.0  0.51090  0.72208  0.53667  1.0000
  H   H2186     1.0  0.51627  0.52711  0.59200  1.0000
  S   S277      1.0  0.67489  0.56745  0.48911  1.0000
  H   H2187     1.0  0.74057  0.54148  0.69591  1.0000
  H   H2188     1.0  0.52960  0.65214  0.68631  1.0000
  C   C1226     1.0  0.61309  0.53740  0.49827  1.0000
  H   H2189     1.0  0.51105  0.68142  0.60977  1.0000
  C   C1227     1.0  0.70891  0.52808  0.67893  1.0000
  C   C1228     1.0  0.83535  0.58924  0.49748  1.0000
  H   H2190     1.0  0.63825  0.50919  0.65266  1.0000
  C   C1229     1.0  0.53799  0.50118  0.65837  1.0000
  H   H2191     1.0  0.55347  0.74841  0.56278  1.0000
  H   H2192     1.0  0.70961  0.51292  0.67480  1.0000
  H   H2193     1.0  0.71716  0.70198  0.50004  1.0000
  H   H2194     1.0  0.68164  0.51830  0.70389  1.0000
  C   C1230     1.0  0.51239  0.64140  0.68988  1.0000
  H   H2195     1.0  0.51202  0.50354  0.57433  1.0000
  C   C1231     1.0  0.83662  0.50355  0.50105  1.0000
  N   N68       1.0  0.66813  0.51091  0.66687  1.0000
  H   H2196     1.0  0.57495  0.74106  0.55781  1.0000
  H   H2197     1.0  0.74252  0.69061  0.50123  1.0000
  H   H2198     1.0  0.52166  0.50666  0.60598  1.0000
  H   H2199     1.0  0.50068  0.67427  0.68247  1.0000
  H   H2200     1.0  0.56902  0.73867  0.51308  1.0000
  H   H2201     1.0  0.50696  0.62788  0.65293  1.0000
  N   N69       1.0  0.53102  0.73991  0.48967  1.0000
  H   H2202     1.0  0.84784  0.51720  0.51257  1.0000
  C   C1232     1.0  0.64849  0.50195  0.56658  1.0000
  C   C1233     1.0  0.55599  0.73872  0.52492  1.0000
  C   C1234     1.0  0.92168  0.50583  0.58988  1.0000
  H   H2203     1.0  0.71879  0.52836  0.71745  1.0000
  H   H2204     1.0  0.76592  0.67431  0.49188  1.0000
  H   H2205     1.0  0.74352  0.64791  0.48926  1.0000
  C   C1235     1.0  0.56609  0.74937  0.54954  1.0000
  Fe  Fe141     1.0  0.58191  0.89295  0.44922  1.0000
  S   S278      1.0  0.57583  0.89604  0.40848  1.0000
  S   S279      1.0  0.61451  0.89852  0.46367  1.0000
  H   H2206     1.0  0.71707  0.90525  0.45548  1.0000
  C   C1236     1.0  0.59751  0.80920  0.46692  1.0000
  H   H2207     1.0  0.66233  0.92521  0.46068  1.0000
  S   S280      1.0  0.51430  0.96826  0.29495  1.0000
  H   H2208     1.0  0.53126  0.91622  0.48048  1.0000
  H   H2209     1.0  0.54950  0.88794  0.29093  1.0000
  C   C1237     1.0  0.64588  0.98581  0.46988  1.0000
  H   H2210     1.0  0.65603  0.94661  0.46629  1.0000
  C   C1238     1.0  0.55092  0.89598  0.40180  1.0000
  C   C1239     1.0  0.53559  0.89171  0.42045  1.0000
  C   C1240     1.0  0.51565  0.89121  0.41483  1.0000
  H   H2211     1.0  0.56852  0.86620  0.27986  1.0000
  C   C1241     1.0  0.52631  0.89977  0.37194  1.0000
  C   C1242     1.0  0.54625  0.90004  0.37752  1.0000
  H   H2212     1.0  0.53897  0.88847  0.43917  1.0000
  H   H2213     1.0  0.52278  0.90285  0.35323  1.0000
  H   H2214     1.0  0.55807  0.90338  0.36304  1.0000
  C   C1243     1.0  0.60079  0.77636  0.47780  1.0000
  H   H2215     1.0  0.64789  0.91821  0.41800  1.0000
  H   H2216     1.0  0.59470  0.81882  0.45299  1.0000
  H   H2217     1.0  0.51811  0.92743  0.25924  1.0000
  C   C1244     1.0  0.54167  0.87058  0.29507  1.0000
  C   C1245     1.0  0.51427  0.99330  0.29907  1.0000
  H   H2218     1.0  0.53490  0.85995  0.25710  1.0000
  H   H2219     1.0  0.68569  0.94573  0.42389  1.0000
  H   H2220     1.0  0.52594  0.92194  0.22895  1.0000
  C   C1246     1.0  0.70676  0.94880  0.46852  1.0000
  C   C1247     1.0  0.52243  0.78752  0.46226  1.0000
  H   H2221     1.0  0.52597  0.89846  0.27462  1.0000
  H   H2222     1.0  0.59405  0.78412  0.44108  1.0000
  H   H2223     1.0  0.68754  0.91546  0.45564  1.0000
  N   N70       1.0  0.68851  0.95352  0.47638  1.0000
  H   H2224     1.0  0.68250  0.98127  0.47748  1.0000
  C   C1248     1.0  0.52538  0.85788  0.27436  1.0000
  C   C1249     1.0  0.66913  0.94284  0.45967  1.0000
  C   C1250     1.0  0.65220  0.93552  0.41676  1.0000
  H   H2225     1.0  0.71328  0.95635  0.45027  1.0000
  H   H2226     1.0  0.53716  0.96864  0.37052  1.0000
  C   C1251     1.0  0.55933  0.86336  0.29746  1.0000
  H   H2227     1.0  0.67642  0.96581  0.42886  1.0000
  H   H2228     1.0  0.63852  0.93817  0.42369  1.0000
  H   H2229     1.0  0.50381  0.88761  0.42930  1.0000
  H   H2230     1.0  0.72357  0.92843  0.43632  1.0000
  H   H2231     1.0  0.55868  0.75337  0.46562  1.0000
  C   C1252     1.0  0.59721  0.78942  0.46017  1.0000
  H   H2232     1.0  0.65487  0.94030  0.39693  1.0000
  H   H2233     1.0  0.70223  0.98319  0.45541  1.0000
  C   C1253     1.0  0.54875  0.97379  0.35486  1.0000
  H   H2234     1.0  0.52359  0.93483  0.46554  1.0000
  C   C1254     1.0  0.70190  0.92497  0.46713  1.0000
  H   H2235     1.0  0.55151  0.94056  0.46688  1.0000
  H   H2236     1.0  0.56270  0.97078  0.35960  1.0000
  H   H2237     1.0  0.54055  0.96394  0.33838  1.0000
  C   C1255     1.0  0.55609  0.99742  0.34899  1.0000
  S   S281      1.0  0.56359  0.86372  0.47250  1.0000
  C   C1256     1.0  0.50137  0.89402  0.24762  1.0000
  H   H2238     1.0  0.55232  0.84611  0.30226  1.0000
  H   H2239     1.0  0.63859  0.97303  0.45648  1.0000
  C   C1257     1.0  0.72075  0.92243  0.45573  1.0000
  H   H2240     1.0  0.54341  0.77376  0.45276  1.0000
  H   H2241     1.0  0.57065  0.87259  0.31249  1.0000
  C   C1258     1.0  0.51737  0.88677  0.25961  1.0000
  C   C1259     1.0  0.67258  0.94877  0.43173  1.0000
  S   S282      1.0  0.57821  0.91560  0.47586  1.0000
  C   C1260     1.0  0.51225  0.91794  0.24188  1.0000
  C   C1261     1.0  0.51090  0.89519  0.39061  1.0000
  H   H2242     1.0  0.52997  0.88920  0.24557  1.0000
  C   C1262     1.0  0.53609  0.93347  0.47723  1.0000
  H   H2243     1.0  0.51019  0.77850  0.44796  1.0000
  H   H2244     1.0  0.53369  0.86815  0.31342  1.0000
  H   H2245     1.0  0.53355  0.80332  0.45440  1.0000
  C   C1263     1.0  0.69617  0.97740  0.47439  1.0000
  S   S283      1.0  0.59941  0.75096  0.46805  1.0000
  H   H2246     1.0  0.73562  0.93127  0.46682  1.0000
  C   C1264     1.0  0.53515  0.77537  0.46967  1.0000
  H   H2247     1.0  0.51860  0.84053  0.27876  1.0000
  N   N71       1.0  0.50765  0.86424  0.26977  1.0000
  H   H2248     1.0  0.50671  0.87696  0.30622  1.0000
  H   H2249     1.0  0.51104  0.86339  0.21799  1.0000
  H   H2250     1.0  0.50045  0.92250  0.23305  1.0000
  H   H2251     1.0  0.69957  0.91814  0.48610  1.0000
  H   H2252     1.0  0.51091  0.83870  0.22735  1.0000
  H   H2253     1.0  0.72047  0.95629  0.48166  1.0000
  C   C1265     1.0  0.50091  0.84737  0.22586  1.0000
  H   H2254     1.0  0.51438  0.79032  0.47869  1.0000
  H   H2255     1.0  0.54169  0.99934  0.34381  1.0000
  C   C1266     1.0  0.52015  0.75315  0.48084  1.0000
  H   H2256     1.0  0.54756  0.78549  0.48323  1.0000
  S   S284      1.0  0.63255  0.95397  0.50677  1.0000
  H   H2257     1.0  0.55803  0.98219  0.58032  1.0000
  Fe  Fe142     1.0  0.56268  0.88703  0.50078  1.0000
  H   H2258     1.0  0.54831  0.95611  0.59469  1.0000
  C   C1267     1.0  0.59345  0.94773  0.54993  1.0000
  H   H2259     1.0  0.58564  0.98875  0.55127  1.0000
  C   C1268     1.0  0.50798  0.92284  0.75467  1.0000
  S   S285      1.0  0.53093  0.88157  0.51832  1.0000
  S   S286      1.0  0.59379  0.89239  0.51879  1.0000
  C   C1269     1.0  0.50717  0.89116  0.58336  1.0000
  H   H2260     1.0  0.57871  0.95955  0.57639  1.0000
  H   H2261     1.0  0.61710  0.93735  0.56173  1.0000
  H   H2262     1.0  0.52999  0.93764  0.55755  1.0000
  C   C1270     1.0  0.54233  0.89373  0.59229  1.0000
  H   H2263     1.0  0.60923  0.80927  0.52799  1.0000
  C   C1271     1.0  0.71445  0.99160  0.49244  1.0000
  C   C1272     1.0  0.52838  0.88616  0.55014  1.0000
  C   C1273     1.0  0.54471  0.88945  0.56722  1.0000
  H   H2264     1.0  0.56845  0.94383  0.50829  1.0000
  H   H2265     1.0  0.56195  0.93294  0.56678  1.0000
  H   H2266     1.0  0.51653  0.96381  0.67332  1.0000
  C   C1274     1.0  0.50960  0.88694  0.55832  1.0000
  H   H2267     1.0  0.55910  0.88857  0.56112  1.0000
  C   C1275     1.0  0.64447  0.98095  0.49525  1.0000
  H   H2268     1.0  0.60701  0.94769  0.58653  1.0000
  H   H2269     1.0  0.54684  0.92542  0.52564  1.0000
  H   H2270     1.0  0.52213  0.93823  0.51054  1.0000
  H   H2271     1.0  0.59489  0.98405  0.64580  1.0000
  H   H2272     1.0  0.58052  0.97917  0.61676  1.0000
  C   C1276     1.0  0.60565  0.80376  0.50900  1.0000
  C   C1277     1.0  0.60495  0.78378  0.50235  1.0000
  H   H2273     1.0  0.54323  0.96229  0.49797  1.0000
  H   H2274     1.0  0.60804  0.77430  0.51619  1.0000
  N   N72       1.0  0.56154  0.95690  0.54189  1.0000
  C   C1278     1.0  0.65424  0.99803  0.51218  1.0000
  C   C1279     1.0  0.57321  0.94905  0.55977  1.0000
  C   C1280     1.0  0.54142  0.95486  0.55484  1.0000
  H   H2275     1.0  0.59059  0.92138  0.57382  1.0000
  C   C1281     1.0  0.60251  0.93794  0.56928  1.0000
  H   H2276     1.0  0.51054  0.92310  0.73428  1.0000
  H   H2277     1.0  0.65751  0.93052  0.54576  1.0000
  H   H2278     1.0  0.55501  0.89625  0.60545  1.0000
  H   H2279     1.0  0.55840  0.76653  0.50598  1.0000
  H   H2280     1.0  0.67602  0.95765  0.51185  1.0000
  C   C1282     1.0  0.52439  0.96695  0.58939  1.0000
  S   S287      1.0  0.52120  0.90041  0.63195  1.0000
  C   C1283     1.0  0.57535  0.98009  0.53518  1.0000
  H   H2281     1.0  0.51060  0.95073  0.58985  1.0000
  C   C1284     1.0  0.52356  0.89462  0.60046  1.0000
  H   H2282     1.0  0.52046  0.97735  0.57690  1.0000
  H   H2283     1.0  0.52393  0.93024  0.76394  1.0000
  H   H2284     1.0  0.58989  0.93767  0.53303  1.0000
  C   C1285     1.0  0.53710  0.99791  0.67374  1.0000
  H   H2285     1.0  0.60630  0.96399  0.54604  1.0000
  C   C1286     1.0  0.54470  0.96572  0.58067  1.0000
  H   H2286     1.0  0.52688  0.97375  0.60846  1.0000
  H   H2287     1.0  0.53283  0.96170  0.54313  1.0000
  C   C1287     1.0  0.51713  0.97954  0.67336  1.0000
  C   C1288     1.0  0.55454  0.94235  0.51951  1.0000
  Fe  Fe143     1.0  0.59576  0.87015  0.48895  1.0000
  C   C1289     1.0  0.58188  0.98587  0.63568  1.0000
  H   H2288     1.0  0.67688  0.91978  0.54384  1.0000
  C   C1290     1.0  0.66446  0.92402  0.50811  1.0000
  H   H2289     1.0  0.57760  0.76642  0.54665  1.0000
  H   H2290     1.0  0.56519  0.98840  0.53157  1.0000
  C   C1291     1.0  0.59010  0.98465  0.51200  1.0000
  H   H2291     1.0  0.64875  0.92235  0.50125  1.0000
  C   C1292     1.0  0.54503  0.75101  0.51170  1.0000
  H   H2292     1.0  0.66764  0.91164  0.49879  1.0000
  H   H2293     1.0  0.58034  0.98112  0.49475  1.0000
  H   H2294     1.0  0.50549  0.95219  0.75603  1.0000
  C   C1293     1.0  0.53832  0.94516  0.50187  1.0000
  C   C1294     1.0  0.66183  0.91903  0.53586  1.0000
  H   H2295     1.0  0.56650  0.97652  0.64564  1.0000
  Fe  Fe144     1.0  0.60965  0.92010  0.49187  1.0000
  H   H2296     1.0  0.64869  0.90266  0.53875  1.0000
  H   H2297     1.0  0.65346  0.99462  0.53184  1.0000
  H   H2298     1.0  0.59887  0.97481  0.51145  1.0000
  S   S288      1.0  0.60365  0.84229  0.50111  1.0000
  C   C1295     1.0  0.68228  0.94706  0.50316  1.0000
  H   H2299     1.0  0.55176  0.99617  0.67415  1.0000
  H   H2300     1.0  0.53584  0.75535  0.52564  1.0000
  H   H2301     1.0  0.70988  0.98727  0.51211  1.0000
  C   C1296     1.0  0.60193  0.81675  0.49143  1.0000
  H   H2302     1.0  0.69668  0.94946  0.51431  1.0000
  H   H2303     1.0  0.72940  0.99013  0.48861  1.0000
  H   H2304     1.0  0.51142  0.75617  0.49647  1.0000
