data_image0
_chemical_formula_structural       HFeSCFeSFeSFeS4H3C4H2C2HCHCHCH2C4H4CHCHCH8CH2CH5CH2C4HCH4CH5CH3CNH3CH3NC3H2CHCH5C5H2CHCH4NCHCH3CHC2H2CHCH5CHCH2SHCHC2HC3H4CHCFeS2FeS2FeS2C2H3C6H4C2HCHCH2CHCNHCH10CSHCH3C2HFeH3CH3CHC3H2SHCH2C2H6CHSCHNH5CHSC2HCH10CH2CH2CHCFeH3CSH2CSHFeSH2FeC3FeH4CH2C5H3CH4C3H2CH4CHCNCH7S2CH2SHCH4CFeS2FeSCFeSFeS2FeHSCS2FeHC6H7CSHNC12H18CH9C2H8CSC3H4CH4CH2SHNH7CHCH2CHCSNHCH9CHC2HCH4CH2SH3CNH3CH2CH3SH4CH2C2HC7HCH2CH2C2HFeS2FeC2HFeSHS2CFeSCHSH4C5H9C7H2SC3H5CHCHCH2CHC3H12SNH2CHC3SHCH2CHCHC2NFeC3H2C4H3CH7CHCFeC2H4CH5CH3CH3CH3SC2H3CH4CHCH8C3HCHC2H9CH2CHCHCHSCH2CH2FeHSHCNH5CH2CH2C3H2C4H2NH2CH4C2HCHC3H5CHCHCSHCHCHCHC2H8NHC2H2CSH2FeHFeH3C2H4SCHSHC2H3CHCS2CHCFeHCH4NSFeHCSCSCH2Fe2HSFeH3CH6CH4SCSHSCH2SFeS2FeS2FeHFeS3FeS2HSHFeSCSHC2HC3HCH2C6H6CHC6H4C3H4CHCH3CHC2H3C2H2CH6FeC2HC2HC3NC5HCHFeCNCH17CH10C2H2SH2CH3C2HNH5CHC2H5SH5CH3CH2CHCH2CH4CH3FeS2FeS2Fe2HS2HCH2CH4CH4C6H4C4H8C2HCHC3HCH3CHCH7CH5NH3CH3CH9CSNC10H10SHC2HCH4NC2H4CH4C2HCHCH4CH2C2H2CH3C2H3CNCSHCHCH2C2HFeS2FeSHFeSFeCSFeS2FeHC2S2CHCHC6H5NC4HC3H2C2H8C2H6CH3CH7CH7CH2CH3SH3CH2CH2NC11H19FeH2SH9CH2CH2CH3CH2CH3SCH2C3SFeS2FeS2FeHFeS3FeS2H2FeHFeS3C4HC6H8CHC6H4CHC5H2C2H4SHCHCHCH6CH3CHNCHCH2C3H4NH4C2HC2H4NC6HCHNH5CHCH5CH4FeSC2HCH2CH2C2H6CH3NH2CHCH2CH3CH4C2H3C2FeSFeS2FeSFeS5HC2H3C3H3C6H4CHC4HCH11CHCH5C3H2CH2SHCH3C3HC2H2CHCHCHSH2CHC3HCH3CH3CH2FeH5CHC2NCH2CH2CH8CH4CSHNCH2CHCH2C2HCHCH9C2HCH2
_chemical_formula_sum              "H1024 Fe64 S128 C576 N32"
_cell_length_a       45.0866
_cell_length_b       46.9219
_cell_length_c       29.613
_cell_angle_alpha    87.2442
_cell_angle_beta     110.166
_cell_angle_gamma    90.2334

_space_group_name_H-M_alt    "P 1"
_space_group_IT_number       1

loop_
  _space_group_symop_operation_xyz
  'x, y, z'

loop_
  _atom_site_type_symbol
  _atom_site_label
  _atom_site_symmetry_multiplicity
  _atom_site_fract_x
  _atom_site_fract_y
  _atom_site_fract_z
  _atom_site_occupancy
  H   H1        1.0  0.38331  0.26919  0.28785  1.0000
  Fe  Fe1       1.0  0.11207  0.29473  0.29302  1.0000
  S   S1        1.0  0.12834  0.25749  0.26279  1.0000
  C   C1        1.0  0.22708  0.31939  0.30238  1.0000
  Fe  Fe2       1.0  0.04634  0.26762  0.27647  1.0000
  S   S2        1.0  0.05874  0.22851  0.24553  1.0000
  Fe  Fe3       1.0  0.10560  0.23067  0.30637  1.0000
  S   S3        1.0  0.13067  0.19274  0.35504  1.0000
  Fe  Fe4       1.0  0.07996  0.25959  0.20527  1.0000
  S   S4        1.0  0.07528  0.26154  0.12627  1.0000
  S   S5        1.0  0.09139  0.26785  0.33937  1.0000
  S   S6        1.0  0.06503  0.29887  0.23302  1.0000
  S   S7        1.0  0.50616  0.27458  0.31422  1.0000
  H   H2        1.0  0.42360  0.32309  0.35552  1.0000
  H   H3        1.0  0.05759  0.14131  0.49472  1.0000
  H   H4        1.0  0.50633  0.30031  0.17880  1.0000
  C   C2        1.0  0.32711  0.32696  0.17256  1.0000
  C   C3        1.0  0.14146  0.19843  0.41704  1.0000
  C   C4        1.0  0.14319  0.22612  0.43277  1.0000
  C   C5        1.0  0.14791  0.17530  0.45109  1.0000
  H   H5        1.0  0.14078  0.24409  0.40786  1.0000
  H   H6        1.0  0.14753  0.15378  0.43942  1.0000
  C   C6        1.0  0.10910  0.20146  0.07325  1.0000
  C   C7        1.0  0.06794  0.14085  0.42673  1.0000
  H   H7        1.0  0.37317  0.30963  0.17262  1.0000
  C   C8        1.0  0.07786  0.14331  0.48185  1.0000
  H   H8        1.0  0.42677  0.21218  0.18367  1.0000
  C   C9        1.0  0.45923  0.20645  0.25621  1.0000
  H   H9        1.0  0.29431  0.32954  0.43934  1.0000
  C   C10       1.0  0.48144  0.30272  0.17642  1.0000
  H   H10       1.0  0.46271  0.29175  0.10258  1.0000
  H   H11       1.0  0.07981  0.14545  0.33902  1.0000
  C   C11       1.0  0.03247  0.15029  0.34435  1.0000
  C   C12       1.0  0.03005  0.26828  0.03653  1.0000
  C   C13       1.0  0.48380  0.30479  0.31685  1.0000
  C   C14       1.0  0.45931  0.30162  0.33576  1.0000
  H   H12       1.0  0.29869  0.33528  0.23754  1.0000
  H   H13       1.0  0.43971  0.21470  0.11101  1.0000
  H   H14       1.0  0.12637  0.21372  0.10161  1.0000
  H   H15       1.0  0.45465  0.28078  0.34894  1.0000
  C   C15       1.0  0.52448  0.31037  0.09332  1.0000
  H   H16       1.0  0.18368  0.29739  0.40800  1.0000
  C   C16       1.0  0.22825  0.23031  0.36368  1.0000
  H   H17       1.0  0.34927  0.28418  0.19000  1.0000
  C   C17       1.0  0.20440  0.22541  0.31377  1.0000
  H   H18       1.0  0.43113  0.26865  0.04353  1.0000
  H   H19       1.0  0.04043  0.12718  0.26406  1.0000
  H   H20       1.0  0.23451  0.20908  0.38280  1.0000
  H   H21       1.0  0.49417  0.31955  0.42481  1.0000
  H   H22       1.0  0.38549  0.23567  0.02173  1.0000
  H   H23       1.0  0.18255  0.21576  0.31675  1.0000
  H   H24       1.0  0.19838  0.24587  0.29196  1.0000
  H   H25       1.0  0.21463  0.21056  0.29480  1.0000
  C   C18       1.0  0.14897  0.23082  0.48127  1.0000
  H   H26       1.0  0.04082  0.28872  0.03437  1.0000
  H   H27       1.0  0.41514  0.24415  0.10973  1.0000
  C   C19       1.0  0.21837  0.27267  0.46706  1.0000
  H   H28       1.0  0.06291  0.18069  0.32159  1.0000
  H   H29       1.0  0.17330  0.33487  0.45591  1.0000
  H   H30       1.0  0.32784  0.28979  0.24832  1.0000
  H   H31       1.0  0.51574  0.25602  0.16886  1.0000
  H   H32       1.0  0.50838  0.33445  0.28513  1.0000
  C   C20       1.0  0.49817  0.31726  0.05178  1.0000
  H   H33       1.0  0.30454  0.31644  0.17082  1.0000
  H   H34       1.0  0.25000  0.29526  0.40497  1.0000
  C   C21       1.0  0.36943  0.27786  0.30876  1.0000
  C   C22       1.0  0.43815  0.23828  0.10622  1.0000
  C   C23       1.0  0.43561  0.24555  0.05318  1.0000
  C   C24       1.0  0.50617  0.21327  0.14695  1.0000
  H   H35       1.0  0.46416  0.19659  0.18917  1.0000
  C   C25       1.0  0.04821  0.19030  0.39746  1.0000
  H   H36       1.0  0.08562  0.20376  0.07713  1.0000
  H   H37       1.0  0.49786  0.25398  0.10630  1.0000
  H   H38       1.0  0.27073  0.30534  0.49466  1.0000
  H   H39       1.0  0.44764  0.22249  0.27130  1.0000
  C   C26       1.0  0.44160  0.32547  0.33933  1.0000
  H   H40       1.0  0.27675  0.26627  0.41707  1.0000
  H   H41       1.0  0.45747  0.23922  0.04682  1.0000
  H   H42       1.0  0.38573  0.28710  0.34187  1.0000
  H   H43       1.0  0.48763  0.20008  0.12256  1.0000
  H   H44       1.0  0.03648  0.21077  0.11370  1.0000
  C   C27       1.0  0.19566  0.31657  0.30088  1.0000
  H   H45       1.0  0.31129  0.28485  0.10535  1.0000
  H   H46       1.0  0.44992  0.18504  0.26123  1.0000
  H   H47       1.0  0.13177  0.20983  0.02133  1.0000
  C   C28       1.0  0.34849  0.30292  0.16530  1.0000
  N   N1        1.0  0.04012  0.15887  0.39565  1.0000
  H   H48       1.0  0.10313  0.23633  0.02150  1.0000
  H   H49       1.0  0.35675  0.26002  0.31980  1.0000
  H   H50       1.0  0.06426  0.15544  0.25179  1.0000
  C   C29       1.0  0.05476  0.23763  0.43783  1.0000
  H   H51       1.0  0.16632  0.30012  0.47823  1.0000
  H   H52       1.0  0.35093  0.27505  0.11018  1.0000
  H   H53       1.0  0.33598  0.31042  0.08763  1.0000
  N   N2        1.0  0.46480  0.25217  0.14464  1.0000
  C   C30       1.0  0.45950  0.28410  0.13666  1.0000
  C   C31       1.0  0.46430  0.24375  0.19442  1.0000
  C   C32       1.0  0.49701  0.31955  0.46331  1.0000
  H   H54       1.0  0.04404  0.24923  0.40221  1.0000
  H   H55       1.0  0.21240  0.20308  0.44554  1.0000
  C   C33       1.0  0.47239  0.33432  0.16567  1.0000
  H   H56       1.0  0.43466  0.28963  0.13261  1.0000
  C   C34       1.0  0.45271  0.21339  0.20264  1.0000
  H   H57       1.0  0.26958  0.22255  0.45434  1.0000
  H   H58       1.0  0.45593  0.29264  0.45061  1.0000
  H   H59       1.0  0.19273  0.24034  0.39495  1.0000
  H   H60       1.0  0.48822  0.24645  0.22189  1.0000
  H   H61       1.0  0.44837  0.25831  0.20455  1.0000
  C   C35       1.0  0.10800  0.21304  0.02357  1.0000
  C   C36       1.0  0.30720  0.31178  0.46460  1.0000
  C   C37       1.0  0.18364  0.33448  0.32703  1.0000
  C   C38       1.0  0.25327  0.23226  0.47043  1.0000
  C   C39       1.0  0.20180  0.30119  0.44344  1.0000
  H   H62       1.0  0.38210  0.31679  0.25216  1.0000
  H   H63       1.0  0.23598  0.30557  0.28162  1.0000
  C   C40       1.0  0.36171  0.32547  0.26008  1.0000
  H   H64       1.0  0.04916  0.24968  0.46530  1.0000
  C   C41       1.0  0.49651  0.24521  0.14098  1.0000
  H   H65       1.0  0.18059  0.30080  0.27899  1.0000
  H   H66       1.0  0.11636  0.17861  0.07895  1.0000
  H   H67       1.0  0.24963  0.23950  0.35861  1.0000
  H   H68       1.0  0.33287  0.30862  0.30151  1.0000
  N   N3        1.0  0.23687  0.25831  0.44055  1.0000
  C   C42       1.0  0.28397  0.29213  0.47779  1.0000
  H   H69       1.0  0.08926  0.14621  0.41749  1.0000
  C   C43       1.0  0.21441  0.25035  0.39189  1.0000
  H   H70       1.0  0.06373  0.11794  0.41868  1.0000
  H   H71       1.0  0.20553  0.26986  0.36818  1.0000
  H   H72       1.0  0.07350  0.19323  0.40126  1.0000
  C   C44       1.0  0.26142  0.27796  0.43256  1.0000
  H   H73       1.0  0.05202  0.19710  0.47294  1.0000
  C   C45       1.0  0.23118  0.20877  0.47928  1.0000
  C   C46       1.0  0.04161  0.20750  0.43654  1.0000
  H   H74       1.0  0.48007  0.29692  0.21230  1.0000
  H   H75       1.0  0.32139  0.29982  0.44749  1.0000
  C   C47       1.0  0.34552  0.30039  0.27848  1.0000
  H   H76       1.0  0.12286  0.12066  0.49748  1.0000
  C   C48       1.0  0.04130  0.25104  0.07918  1.0000
  H   H77       1.0  0.48508  0.20633  0.27653  1.0000
  H   H78       1.0  0.21884  0.31699  0.43836  1.0000
  H   H79       1.0  0.51116  0.20549  0.18486  1.0000
  H   H80       1.0  0.02883  0.12689  0.34166  1.0000
  H   H81       1.0  0.08953  0.16404  0.49227  1.0000
  C   C49       1.0  0.48972  0.33179  0.30001  1.0000
  H   H82       1.0  0.44738  0.33021  0.44888  1.0000
  C   C50       1.0  0.05753  0.15763  0.32058  1.0000
  H   H83       1.0  0.16669  0.02567  0.47606  1.0000
  H   H84       1.0  0.14930  0.25240  0.49269  1.0000
  S   S8        1.0  0.14433  0.33134  0.32674  1.0000
  H   H85       1.0  0.08082  0.23684  0.44736  1.0000
  C   C51       1.0  0.33580  0.29276  0.11393  1.0000
  H   H86       1.0  0.48278  0.33491  0.05168  1.0000
  C   C52       1.0  0.46481  0.31304  0.46755  1.0000
  C   C53       1.0  0.04573  0.15027  0.26765  1.0000
  H   H87       1.0  0.41207  0.20623  0.02433  1.0000
  C   C54       1.0  0.49168  0.30160  0.01027  1.0000
  C   C55       1.0  0.18491  0.31452  0.47412  1.0000
  C   C56       1.0  0.51190  0.27908  0.01043  1.0000
  H   H88       1.0  0.03435  0.20185  0.36279  1.0000
  H   H89       1.0  0.51339  0.30194  0.48313  1.0000
  H   H90       1.0  0.19936  0.25850  0.47009  1.0000
  H   H91       1.0  0.25964  0.17189  0.47651  1.0000
  C   C57       1.0  0.40832  0.22969  0.01800  1.0000
  H   H92       1.0  0.32365  0.32108  0.49757  1.0000
  C   C58       1.0  0.02752  0.22448  0.08137  1.0000
  Fe  Fe5       1.0  0.16767  0.18161  0.63368  1.0000
  S   S9        1.0  0.17162  0.19973  0.70414  1.0000
  S   S10       1.0  0.16141  0.21575  0.57507  1.0000
  Fe  Fe6       1.0  0.17158  0.11992  0.67388  1.0000
  S   S11       1.0  0.17685  0.13382  0.74802  1.0000
  S   S12       1.0  0.15593  0.07539  0.64818  1.0000
  Fe  Fe7       1.0  0.13816  0.16581  0.71052  1.0000
  S   S13       1.0  0.09261  0.16831  0.72683  1.0000
  S   S14       1.0  0.13110  0.15046  0.63727  1.0000
  C   C59       1.0  0.17726  0.04271  0.66555  1.0000
  C   C60       1.0  0.16052  0.01744  0.66635  1.0000
  H   H93       1.0  0.13550  0.01864  0.66050  1.0000
  H   H94       1.0  0.08022  0.24203  0.88459  1.0000
  H   H95       1.0  0.10556  0.24559  0.94465  1.0000
  C   C61       1.0  0.10958  0.19158  0.92557  1.0000
  C   C62       1.0  0.07630  0.19806  0.74458  1.0000
  C   C63       1.0  0.04592  0.19557  0.74719  1.0000
  C   C64       1.0  0.04833  0.24361  0.77519  1.0000
  C   C65       1.0  0.07858  0.24637  0.77183  1.0000
  C   C66       1.0  0.09254  0.22367  0.75639  1.0000
  H   H96       1.0  0.16139  0.18418  0.89581  1.0000
  H   H97       1.0  0.09135  0.26600  0.78168  1.0000
  H   H98       1.0  0.11598  0.22577  0.75449  1.0000
  H   H99       1.0  0.05302  0.25324  0.61737  1.0000
  C   C67       1.0  0.05566  0.25469  0.93057  1.0000
  C   C68       1.0  0.08226  0.23703  0.92266  1.0000
  H   H100      1.0  0.13562  0.15386  0.87753  1.0000
  C   C69       1.0  0.05660  0.23381  0.59985  1.0000
  H   H101      1.0  0.10640  0.24350  0.61762  1.0000
  C   C70       1.0  0.06190  0.28666  0.92854  1.0000
  H   H102      1.0  0.09798  0.21940  0.66073  1.0000
  H   H103      1.0  0.11441  0.21686  0.86401  1.0000
  C   C71       1.0  0.13858  0.17694  0.87016  1.0000
  H   H104      1.0  0.08914  0.18656  0.84686  1.0000
  C   C72       1.0  0.11099  0.19431  0.87391  1.0000
  N   N4        1.0  0.08119  0.20524  0.93216  1.0000
  H   H105      1.0  0.09677  0.20706  0.60318  1.0000
  C   C73       1.0  0.09152  0.22534  0.62178  1.0000
  H   H106      1.0  0.13929  0.17976  0.83306  1.0000
  H   H107      1.0  0.05179  0.23939  0.56121  1.0000
  H   H108      1.0  0.13173  0.20112  0.94929  1.0000
  H   H109      1.0  0.04170  0.29868  0.93209  1.0000
  H   H110      1.0  0.11150  0.16855  0.93730  1.0000
  H   H111      1.0  0.04092  0.20515  0.64652  1.0000
  H   H112      1.0  0.15915  0.16227  0.52652  1.0000
  H   H113      1.0  0.03311  0.17592  0.73771  1.0000
  H   H114      1.0  0.08366  0.29204  0.95853  1.0000
  H   H115      1.0  0.04306  0.18956  0.59486  1.0000
  C   C74       1.0  0.10163  0.11966  0.50835  1.0000
  S   S15       1.0  0.20824  0.15053  0.66393  1.0000
  H   H116      1.0  0.10928  0.12205  0.54776  1.0000
  C   C75       1.0  0.20954  0.04091  0.67283  1.0000
  H   H117      1.0  0.05368  0.24919  0.96602  1.0000
  H   H118      1.0  0.03259  0.25061  0.90229  1.0000
  H   H119      1.0  0.06448  0.29347  0.89366  1.0000
  C   C76       1.0  0.04787  0.16130  0.89614  1.0000
  C   C77       1.0  0.05072  0.19424  0.89765  1.0000
  H   H120      1.0  0.16872  0.06332  0.55948  1.0000
  Fe  Fe8       1.0  0.21035  0.16687  0.73545  1.0000
  H   H121      1.0  0.06615  0.15183  0.88398  1.0000
  H   H122      1.0  0.04646  0.20312  0.86039  1.0000
  H   H123      1.0  0.05036  0.15160  0.93218  1.0000
  C   C78       1.0  0.21132  0.25974  0.79646  1.0000
  H   H124      1.0  0.20586  0.27321  0.82248  1.0000
  H   H125      1.0  0.21638  0.29570  0.75171  1.0000
  H   H126      1.0  0.08579  0.17462  0.99126  1.0000
  C   C79       1.0  0.15430  0.20791  0.51502  1.0000
  H   H127      1.0  0.18038  0.28412  0.68019  1.0000
  C   C80       1.0  0.16695  0.29306  0.60405  1.0000
  C   C81       1.0  0.03516  0.20928  0.60712  1.0000
  C   C82       1.0  0.18969  0.27949  0.65115  1.0000
  H   H128      1.0  0.18869  0.25615  0.64789  1.0000
  H   H129      1.0  0.14276  0.28487  0.59768  1.0000
  S   S16       1.0  0.03172  0.27177  0.79663  1.0000
  H   H130      1.0  0.16638  0.31665  0.60566  1.0000
  C   C83       1.0  0.03193  0.21827  0.76202  1.0000
  H   H131      1.0  0.16203  0.00864  0.57560  1.0000
  H   H132      1.0  0.20194  0.31914  0.51018  1.0000
  C   C84       1.0  0.08215  0.19799  0.98294  1.0000
  C   C85       1.0  0.16325  0.05934  0.52078  1.0000
  H   H133      1.0  0.05895  0.20268  0.98686  1.0000
  H   H134      1.0  0.17411  0.28730  0.57328  1.0000
  H   H135      1.0  0.12802  0.01527  0.52361  1.0000
  H   H136      1.0  0.19736  0.02566  0.53460  1.0000
  H   H137      1.0  0.52675  0.33561  0.92682  1.0000
  H   H138      1.0  0.22273  0.31326  0.67530  1.0000
  C   C86       1.0  0.17159  0.02852  0.51492  1.0000
  H   H139      1.0  0.18869  0.25280  0.76990  1.0000
  S   S17       1.0  0.25298  0.18405  0.79441  1.0000
  C   C87       1.0  0.15277  0.00703  0.53579  1.0000
  H   H140      1.0  0.45428  0.33124  0.62787  1.0000
  N   N5        1.0  0.25040  0.27399  0.69900  1.0000
  H   H141      1.0  0.48267  0.29213  0.66601  1.0000
  H   H142      1.0  0.33198  0.32659  0.75222  1.0000
  H   H143      1.0  0.27498  0.31955  0.65939  1.0000
  H   H144      1.0  0.22491  0.24058  0.81644  1.0000
  H   H145      1.0  0.42944  0.27851  0.59598  1.0000
  C   C88       1.0  0.31251  0.33490  0.71965  1.0000
  H   H146      1.0  0.03031  0.20206  0.90685  1.0000
  S   S18       1.0  0.38294  0.21993  0.76845  1.0000
  C   C89       1.0  0.42977  0.26272  0.62557  1.0000
  C   C90       1.0  0.28922  0.19342  0.78698  1.0000
  H   H147      1.0  0.17739  0.07422  0.50632  1.0000
  C   C91       1.0  0.23051  0.27675  0.77106  1.0000
  H   H148      1.0  0.22140  0.24283  0.72065  1.0000
  H   H149      1.0  0.46673  0.31101  0.50597  1.0000
  H   H150      1.0  0.47500  0.24949  0.71004  1.0000
  H   H151      1.0  0.26873  0.23832  0.50677  1.0000
  H   H152      1.0  0.33347  0.18308  0.71613  1.0000
  H   H153      1.0  0.23350  0.27616  0.50492  1.0000
  H   H154      1.0  0.22260  0.06016  0.67171  1.0000
  H   H155      1.0  0.43575  0.22446  0.56353  1.0000
  H   H156      1.0  0.29804  0.27580  0.50496  1.0000
  H   H157      1.0  0.25195  0.28449  0.79936  1.0000
  C   C92       1.0  0.24050  0.25803  0.73680  1.0000
  H   H158      1.0  0.49763  0.31105  0.59658  1.0000
  H   H159      1.0  0.22219  0.24210  0.61372  1.0000
  C   C93       1.0  0.22370  0.29135  0.66291  1.0000
  H   H160      1.0  0.23352  0.16568  0.51024  1.0000
  H   H161      1.0  0.51741  0.27027  0.68693  1.0000
  C   C94       1.0  0.24966  0.18140  0.50191  1.0000
  H   H162      1.0  0.22833  0.29463  0.62843  1.0000
  C   C95       1.0  0.51535  0.30011  0.62858  1.0000
  Fe  Fe9       1.0  0.44867  0.29658  0.88363  1.0000
  H   H163      1.0  0.21965  0.21612  0.50437  1.0000
  H   H164      1.0  0.34795  0.26693  0.60126  1.0000
  H   H165      1.0  0.26026  0.24427  0.76020  1.0000
  C   C96       1.0  0.22469  0.01401  0.67953  1.0000
  S   S19       1.0  0.52123  0.27460  0.78978  1.0000
  H   H166      1.0  0.24952  0.01278  0.68406  1.0000
  H   H167      1.0  0.44184  0.17339  0.53853  1.0000
  C   C97       1.0  0.37206  0.27568  0.60971  1.0000
  S   S20       1.0  0.46259  0.25514  0.86038  1.0000
  H   H168      1.0  0.39276  0.23448  0.63617  1.0000
  Fe  Fe10      1.0  0.41822  0.32045  0.78049  1.0000
  S   S21       1.0  0.46679  0.32443  0.83492  1.0000
  H   H169      1.0  0.27674  0.19855  0.64909  1.0000
  H   H170      1.0  0.29575  0.28163  0.75398  1.0000
  Fe  Fe11      1.0  0.47730  0.28324  0.80796  1.0000
  C   C98       1.0  0.24091  0.23091  0.64394  1.0000
  C   C99       1.0  0.30957  0.21208  0.81897  1.0000
  C   C100      1.0  0.45319  0.16665  0.57718  1.0000
  Fe  Fe12      1.0  0.41363  0.25689  0.80389  1.0000
  H   H171      1.0  0.48527  0.18734  0.76074  1.0000
  H   H172      1.0  0.47331  0.26322  0.58313  1.0000
  H   H173      1.0  0.26747  0.22281  0.59662  1.0000
  H   H174      1.0  0.24012  0.19525  0.59984  1.0000
  C   C101      1.0  0.29271  0.31040  0.69307  1.0000
  H   H175      1.0  0.35338  0.23540  0.83785  1.0000
  H   H176      1.0  0.50702  0.26676  0.97875  1.0000
  C   C102      1.0  0.33799  0.22097  0.81312  1.0000
  C   C103      1.0  0.46901  0.19198  0.60645  1.0000
  C   C104      1.0  0.26403  0.25291  0.67415  1.0000
  C   C105      1.0  0.48233  0.25509  0.62155  1.0000
  C   C106      1.0  0.49905  0.27962  0.65398  1.0000
  H   H177      1.0  0.28254  0.16864  0.72516  1.0000
  H   H178      1.0  0.30898  0.29607  0.68354  1.0000
  H   H179      1.0  0.47122  0.14989  0.58026  1.0000
  C   C107      1.0  0.29783  0.18328  0.74959  1.0000
  H   H180      1.0  0.26914  0.18567  0.53590  1.0000
  H   H181      1.0  0.47382  0.21971  0.78169  1.0000
  H   H182      1.0  0.44860  0.18910  0.77243  1.0000
  H   H183      1.0  0.40696  0.23544  0.98047  1.0000
  C   C108      1.0  0.32668  0.19152  0.74456  1.0000
  C   C109      1.0  0.44753  0.21195  0.70637  1.0000
  C   C110      1.0  0.46914  0.23082  0.68697  1.0000
  H   H184      1.0  0.26772  0.31002  0.74332  1.0000
  H   H185      1.0  0.28436  0.24102  0.70110  1.0000
  C   C111      1.0  0.27670  0.29376  0.72491  1.0000
  H   H186      1.0  0.42683  0.22449  0.70648  1.0000
  H   H187      1.0  0.30313  0.21995  0.84812  1.0000
  H   H188      1.0  0.23017  0.21769  0.66615  1.0000
  H   H189      1.0  0.37876  0.28563  0.64511  1.0000
  C   C112      1.0  0.34680  0.21049  0.77610  1.0000
  H   H190      1.0  0.43511  0.15726  0.59099  1.0000
  C   C113      1.0  0.39531  0.25175  0.61110  1.0000
  N   N6        1.0  0.45606  0.24070  0.63448  1.0000
  C   C114      1.0  0.46500  0.20140  0.75846  1.0000
  H   H191      1.0  0.48768  0.19943  0.59235  1.0000
  H   H192      1.0  0.50165  0.23977  0.62440  1.0000
  H   H193      1.0  0.37151  0.29223  0.58135  1.0000
  H   H194      1.0  0.48031  0.18396  0.64438  1.0000
  H   H195      1.0  0.27364  0.26416  0.64845  1.0000
  H   H196      1.0  0.43415  0.27570  0.65755  1.0000
  H   H197      1.0  0.42406  0.20579  0.60791  1.0000
  S   S22       1.0  0.43004  0.28132  0.75020  1.0000
  S   S23       1.0  0.39848  0.29628  0.83072  1.0000
  C   C115      1.0  0.44460  0.21620  0.60185  1.0000
  H   H198      1.0  0.49215  0.21941  0.69520  1.0000
  H   H199      1.0  0.38786  0.24340  0.57440  1.0000
  S   S24       1.0  0.45753  0.31035  0.95989  1.0000
  H   H200      1.0  0.43935  0.19288  0.68502  1.0000
  C   C116      1.0  0.25750  0.21071  0.62108  1.0000
  H   H201      1.0  0.13780  0.06390  0.50097  1.0000
  H   H202      1.0  0.44548  0.33620  0.70517  1.0000
  H   H203      1.0  0.50692  0.33541  0.77083  1.0000
  H   H204      1.0  0.09071  0.09835  0.50075  1.0000
  C   C117      1.0  0.15437  0.18004  0.50023  1.0000
  Fe  Fe13      1.0  0.39219  0.38145  0.36748  1.0000
  S   S25       1.0  0.40969  0.39930  0.44015  1.0000
  S   S26       1.0  0.42487  0.38261  0.32421  1.0000
  Fe  Fe14      1.0  0.32699  0.36965  0.37402  1.0000
  S   S27       1.0  0.33971  0.38713  0.44817  1.0000
  C   C118      1.0  0.26020  0.37961  0.21015  1.0000
  Fe  Fe15      1.0  0.36318  0.42270  0.41867  1.0000
  S   S28       1.0  0.37434  0.46733  0.44661  1.0000
  Fe  Fe16      1.0  0.38538  0.36317  0.46392  1.0000
  S   S29       1.0  0.31775  0.65458  0.30053  1.0000
  S   S30       1.0  0.34699  0.40713  0.34317  1.0000
  Fe  Fe17      1.0  0.32643  0.62997  0.37120  1.0000
  H   H205      1.0  0.26705  0.38832  0.24655  1.0000
  S   S31       1.0  0.30419  0.58603  0.36412  1.0000
  C   C119      1.0  0.31303  0.35364  0.23211  1.0000
  S   S32       1.0  0.31350  0.66717  0.40722  1.0000
  S   S33       1.0  0.37842  0.63861  0.39875  1.0000
  Fe  Fe18      1.0  0.36916  0.66553  0.33046  1.0000
  H   H206      1.0  0.24762  0.35920  0.21031  1.0000
  C   C120      1.0  0.35515  0.50008  0.42093  1.0000
  C   C121      1.0  0.36948  0.52566  0.43968  1.0000
  C   C122      1.0  0.35445  0.55219  0.42206  1.0000
  C   C123      1.0  0.32484  0.55335  0.38556  1.0000
  C   C124      1.0  0.31072  0.52779  0.36631  1.0000
  C   C125      1.0  0.32589  0.50124  0.38364  1.0000
  H   H207      1.0  0.39220  0.52498  0.46833  1.0000
  H   H208      1.0  0.36540  0.57170  0.43746  1.0000
  H   H209      1.0  0.28771  0.52852  0.33824  1.0000
  H   H210      1.0  0.31457  0.48171  0.36902  1.0000
  H   H211      1.0  0.34210  0.38357  0.17975  1.0000
  H   H212      1.0  0.50997  0.37945  0.40907  1.0000
  H   H213      1.0  0.41144  0.40294  0.22509  1.0000
  C   C126      1.0  0.38715  0.36409  0.19501  1.0000
  S   S34       1.0  0.37157  0.34321  0.39272  1.0000
  H   H214      1.0  0.35892  0.60319  0.19128  1.0000
  N   N7        1.0  0.37545  0.56256  0.27395  1.0000
  C   C127      1.0  0.40480  0.57441  0.31006  1.0000
  C   C128      1.0  0.38046  0.56190  0.22618  1.0000
  C   C129      1.0  0.34763  0.58147  0.27035  1.0000
  C   C130      1.0  0.36905  0.53270  0.28917  1.0000
  C   C131      1.0  0.39622  0.51059  0.29796  1.0000
  C   C132      1.0  0.40706  0.57165  0.36349  1.0000
  C   C133      1.0  0.31562  0.57358  0.23196  1.0000
  C   C134      1.0  0.38177  0.59148  0.20102  1.0000
  C   C135      1.0  0.20349  0.35514  0.35484  1.0000
  C   C136      1.0  0.38821  0.48191  0.31743  1.0000
  C   C137      1.0  0.43708  0.58556  0.39593  1.0000
  C   C138      1.0  0.29034  0.59650  0.22542  1.0000
  H   H215      1.0  0.40677  0.59753  0.30160  1.0000
  H   H216      1.0  0.42650  0.56446  0.30752  1.0000
  H   H217      1.0  0.40309  0.55068  0.23073  1.0000
  H   H218      1.0  0.36199  0.54905  0.20052  1.0000
  H   H219      1.0  0.35275  0.60428  0.26399  1.0000
  H   H220      1.0  0.34347  0.58092  0.30522  1.0000
  H   H221      1.0  0.36231  0.53288  0.32201  1.0000
  H   H222      1.0  0.34817  0.52387  0.26118  1.0000
  H   H223      1.0  0.41869  0.51780  0.32432  1.0000
  H   H224      1.0  0.40018  0.50683  0.26374  1.0000
  H   H225      1.0  0.38662  0.58228  0.36835  1.0000
  H   H226      1.0  0.40771  0.54899  0.37636  1.0000
  H   H227      1.0  0.30676  0.55335  0.24333  1.0000
  H   H228      1.0  0.31771  0.57106  0.19620  1.0000
  H   H229      1.0  0.37013  0.57569  0.12888  1.0000
  H   H230      1.0  0.40054  0.60488  0.22464  1.0000
  H   H231      1.0  0.32215  0.36380  0.26748  1.0000
  H   H232      1.0  0.36525  0.38226  0.24211  1.0000
  C   C139      1.0  0.38880  0.58828  0.15458  1.0000
  H   H233      1.0  0.40746  0.46614  0.32195  1.0000
  H   H234      1.0  0.38576  0.48424  0.35312  1.0000
  H   H235      1.0  0.36585  0.47350  0.29230  1.0000
  H   H236      1.0  0.43710  0.60868  0.38575  1.0000
  H   H237      1.0  0.43813  0.58323  0.43392  1.0000
  H   H238      1.0  0.45839  0.57512  0.39310  1.0000
  H   H239      1.0  0.28614  0.59920  0.25977  1.0000
  H   H240      1.0  0.29755  0.61719  0.21280  1.0000
  H   H241      1.0  0.26776  0.59009  0.19814  1.0000
  C   C140      1.0  0.35778  0.36939  0.20941  1.0000
  C   C141      1.0  0.50962  0.34834  0.48506  1.0000
  H   H242      1.0  0.32048  0.34201  0.14026  1.0000
  H   H243      1.0  0.25003  0.37385  0.37811  1.0000
  H   H244      1.0  0.37990  0.35480  0.15914  1.0000
  H   H245      1.0  0.30043  0.39630  0.19614  1.0000
  H   H246      1.0  0.24366  0.39503  0.18394  1.0000
  H   H247      1.0  0.42494  0.38761  0.18104  1.0000
  H   H248      1.0  0.51407  0.65095  0.39377  1.0000
  H   H249      1.0  0.47559  0.37620  0.28821  1.0000
  C   C142      1.0  0.23507  0.35782  0.35669  1.0000
  S   S35       1.0  0.28617  0.34244  0.33024  1.0000
  C   C143      1.0  0.44743  0.35241  0.32226  1.0000
  C   C144      1.0  0.40368  0.39207  0.19052  1.0000
  C   C145      1.0  0.47123  0.35543  0.30200  1.0000
  H   H250      1.0  0.51739  0.65131  0.29232  1.0000
  H   H251      1.0  0.38946  0.60974  0.13735  1.0000
  H   H252      1.0  0.38763  0.40664  0.16191  1.0000
  H   H253      1.0  0.19435  0.36913  0.37510  1.0000
  C   C146      1.0  0.24691  0.34003  0.33016  1.0000
  H   H254      1.0  0.49022  0.36464  0.47087  1.0000
  H   H255      1.0  0.52623  0.34646  0.40345  1.0000
  H   H256      1.0  0.43992  0.64237  0.48104  1.0000
  H   H257      1.0  0.41214  0.57766  0.16236  1.0000
  C   C147      1.0  0.28939  0.37510  0.19607  1.0000
  H   H258      1.0  0.28141  0.36742  0.15896  1.0000
  H   H259      1.0  0.45397  0.65835  0.25332  1.0000
  S   S36       1.0  0.40248  0.65839  0.28932  1.0000
  H   H260      1.0  0.40475  0.34985  0.22187  1.0000
  N   N8        1.0  0.34018  0.34336  0.21786  1.0000
  H   H261      1.0  0.44814  0.33810  0.16589  1.0000
  H   H262      1.0  0.47362  0.34166  0.13016  1.0000
  H   H263      1.0  0.48908  0.34718  0.19375  1.0000
  H   H264      1.0  0.37259  0.33911  0.29118  1.0000
  H   H265      1.0  0.51329  0.37460  0.83310  1.0000
  H   H266      1.0  0.42130  0.63887  0.52628  1.0000
  H   H267      1.0  0.38148  0.40895  0.56509  1.0000
  C   C148      1.0  0.34936  0.43489  0.58508  1.0000
  H   H268      1.0  0.48147  0.41664  0.76019  1.0000
  C   C149      1.0  0.43872  0.62925  0.51255  1.0000
  H   H269      1.0  0.47673  0.38893  0.54744  1.0000
  H   H270      1.0  0.46829  0.61439  0.58295  1.0000
  C   C150      1.0  0.45118  0.43171  0.68864  1.0000
  H   H271      1.0  0.37332  0.44205  0.53330  1.0000
  C   C151      1.0  0.39212  0.49465  0.56873  1.0000
  S   S37       1.0  0.40417  0.66723  0.70774  1.0000
  N   N9        1.0  0.40932  0.44323  0.60408  1.0000
  H   H272      1.0  0.41288  0.53322  0.60468  1.0000
  C   C152      1.0  0.43436  0.44117  0.58117  1.0000
  H   H273      1.0  0.51220  0.63798  0.74849  1.0000
  H   H274      1.0  0.45197  0.45377  0.70088  1.0000
  H   H275      1.0  0.32306  0.34661  0.69554  1.0000
  H   H276      1.0  0.45587  0.45299  0.60166  1.0000
  H   H277      1.0  0.51346  0.34476  0.52397  1.0000
  H   H278      1.0  0.50020  0.61574  0.67128  1.0000
  H   H279      1.0  0.51669  0.40808  0.86160  1.0000
  H   H280      1.0  0.49560  0.37934  0.87884  1.0000
  H   H281      1.0  0.35239  0.42208  0.61889  1.0000
  C   C153      1.0  0.48914  0.63684  0.67061  1.0000
  H   H282      1.0  0.48666  0.61466  0.53787  1.0000
  C   C154      1.0  0.37278  0.35692  0.62766  1.0000
  C   C155      1.0  0.47107  0.62695  0.55212  1.0000
  H   H283      1.0  0.48981  0.66587  0.53392  1.0000
  C   C156      1.0  0.37888  0.43194  0.56998  1.0000
  H   H284      1.0  0.37318  0.52606  0.60398  1.0000
  H   H285      1.0  0.46433  0.63694  0.64537  1.0000
  H   H286      1.0  0.31545  0.43659  0.51165  1.0000
  H   H287      1.0  0.35011  0.36440  0.62761  1.0000
  C   C157      1.0  0.41826  0.42572  0.65104  1.0000
  H   H288      1.0  0.43979  0.41272  0.74951  1.0000
  H   H289      1.0  0.45255  0.39746  0.60888  1.0000
  S   S38       1.0  0.39124  0.35476  0.72634  1.0000
  H   H290      1.0  0.41701  0.40259  0.64440  1.0000
  H   H291      1.0  0.40769  0.49513  0.54679  1.0000
  H   H292      1.0  0.39071  0.47596  0.63666  1.0000
  C   C158      1.0  0.47166  0.41102  0.55489  1.0000
  N   N10       1.0  0.51509  0.65785  0.61051  1.0000
  H   H293      1.0  0.45993  0.38891  0.72307  1.0000
  H   H294      1.0  0.40080  0.42915  0.66925  1.0000
  H   H295      1.0  0.42444  0.39954  0.54856  1.0000
  C   C159      1.0  0.45842  0.41124  0.73299  1.0000
  H   H296      1.0  0.36173  0.64793  0.61649  1.0000
  H   H297      1.0  0.42900  0.48271  0.63554  1.0000
  C   C160      1.0  0.40570  0.47404  0.61389  1.0000
  H   H298      1.0  0.47870  0.66204  0.72376  1.0000
  H   H299      1.0  0.29770  0.35020  0.73037  1.0000
  H   H300      1.0  0.42598  0.45187  0.54450  1.0000
  S   S39       1.0  0.41373  0.33711  0.53050  1.0000
  H   H301      1.0  0.47038  0.42899  0.67378  1.0000
  H   H302      1.0  0.52235  0.61184  0.61734  1.0000
  H   H303      1.0  0.36817  0.48829  0.54562  1.0000
  H   H304      1.0  0.35863  0.35758  0.55005  1.0000
  C   C161      1.0  0.39710  0.35034  0.67153  1.0000
  H   H305      1.0  0.49326  0.41955  0.58170  1.0000
  H   H306      1.0  0.47256  0.62436  0.72937  1.0000
  C   C162      1.0  0.44446  0.41050  0.57455  1.0000
  C   C163      1.0  0.43136  0.33776  0.62782  1.0000
  H   H307      1.0  0.46534  0.42434  0.52079  1.0000
  C   C164      1.0  0.48816  0.64061  0.72110  1.0000
  C   C165      1.0  0.37762  0.35322  0.58384  1.0000
  C   C166      1.0  0.40696  0.34353  0.58402  1.0000
  C   C167      1.0  0.51619  0.38457  0.86763  1.0000
  C   C168      1.0  0.38934  0.52514  0.58298  1.0000
  C   C169      1.0  0.48539  0.65682  0.56647  1.0000
  C   C170      1.0  0.50731  0.66140  0.65559  1.0000
  H   H308      1.0  0.34473  0.45742  0.59052  1.0000
  C   C171      1.0  0.37906  0.66176  0.60942  1.0000
  H   H309      1.0  0.37949  0.53932  0.54997  1.0000
  H   H310      1.0  0.32258  0.40122  0.54091  1.0000
  C   C172      1.0  0.42639  0.34075  0.67147  1.0000
  H   H311      1.0  0.35829  0.66020  0.53177  1.0000
  H   H312      1.0  0.29899  0.42677  0.55763  1.0000
  C   C173      1.0  0.31986  0.42418  0.54634  1.0000
  C   C174      1.0  0.37697  0.66882  0.56158  1.0000
  H   H313      1.0  0.43026  0.60767  0.50075  1.0000
  Fe  Fe19      1.0  0.10532  0.83085  0.30490  1.0000
  S   S40       1.0  0.09208  0.78936  0.33293  1.0000
  S   S41       1.0  0.14174  0.85795  0.35601  1.0000
  Fe  Fe20      1.0  0.06661  0.81917  0.20083  1.0000
  C   C175      1.0  0.23595  0.70605  0.46547  1.0000
  C   C176      1.0  0.30444  0.75120  0.43458  1.0000
  H   H314      1.0  0.10207  0.70937  0.43792  1.0000
  Fe  Fe21      1.0  0.10156  0.77075  0.27087  1.0000
  S   S42       1.0  0.12823  0.72874  0.28100  1.0000
  H   H315      1.0  0.46278  0.73029  0.03209  1.0000
  S   S43       1.0  0.11765  0.81172  0.24578  1.0000
  S   S44       1.0  0.35959  0.70529  0.36198  1.0000
  C   C177      1.0  0.15201  0.81500  0.12499  1.0000
  Fe  Fe22      1.0  0.30872  0.69219  0.33839  1.0000
  S   S45       1.0  0.27381  0.72855  0.30543  1.0000
  C   C178      1.0  0.51178  0.72015  0.07195  1.0000
  H   H316      1.0  0.15967  0.80688  0.48054  1.0000
  S   S46       1.0  0.49592  0.75602  0.26805  1.0000
  H   H317      1.0  0.14524  0.78737  0.18138  1.0000
  H   H318      1.0  0.22997  0.74718  0.42852  1.0000
  H   H319      1.0  0.22716  0.71943  0.19629  1.0000
  H   H320      1.0  0.14492  0.77606  0.05484  1.0000
  C   C179      1.0  0.42702  0.68617  0.28090  1.0000
  C   C180      1.0  0.42344  0.71415  0.29272  1.0000
  C   C181      1.0  0.44442  0.73542  0.28787  1.0000
  C   C182      1.0  0.46916  0.72894  0.27127  1.0000
  C   C183      1.0  0.47227  0.70112  0.25838  1.0000
  H   H321      1.0  0.38853  0.79028  0.03260  1.0000
  H   H322      1.0  0.40470  0.71938  0.30599  1.0000
  H   H323      1.0  0.44166  0.75696  0.29749  1.0000
  H   H324      1.0  0.49084  0.69601  0.24470  1.0000
  H   H325      1.0  0.17842  0.71998  0.09337  1.0000
  H   H326      1.0  0.13671  0.92707  0.46736  1.0000
  H   H327      1.0  0.23316  0.68367  0.32304  1.0000
  H   H328      1.0  0.17591  0.68437  0.31249  1.0000
  H   H329      1.0  0.07572  0.75884  0.11533  1.0000
  C   C184      1.0  0.13756  0.73019  0.41327  1.0000
  C   C185      1.0  0.16906  0.72898  0.29003  1.0000
  C   C186      1.0  0.18707  0.70370  0.30543  1.0000
  C   C187      1.0  0.21947  0.70325  0.31144  1.0000
  C   C188      1.0  0.23383  0.72801  0.30120  1.0000
  C   C189      1.0  0.21580  0.75322  0.28590  1.0000
  C   C190      1.0  0.18368  0.75380  0.28089  1.0000
  H   H330      1.0  0.22679  0.77244  0.27793  1.0000
  H   H331      1.0  0.17024  0.77339  0.26933  1.0000
  S   S47       1.0  0.05318  0.83783  0.12443  1.0000
  C   C191      1.0  0.15906  0.86669  0.45225  1.0000
  C   C192      1.0  0.13404  0.86249  0.40926  1.0000
  C   C193      1.0  0.10306  0.86176  0.40916  1.0000
  H   H332      1.0  0.18302  0.86775  0.45228  1.0000
  H   H333      1.0  0.08365  0.85902  0.37586  1.0000
  H   H334      1.0  0.09954  0.94362  0.45870  1.0000
  H   H335      1.0  0.08631  0.73647  0.38995  1.0000
  H   H336      1.0  0.14237  0.81862  0.08525  1.0000
  C   C194      1.0  0.11302  0.94460  0.39602  1.0000
  H   H337      1.0  0.12598  0.77027  0.43722  1.0000
  C   C195      1.0  0.09708  0.86550  0.45192  1.0000
  H   H338      1.0  0.47973  0.72792  0.39179  1.0000
  C   C196      1.0  0.45125  0.67985  0.26310  1.0000
  H   H339      1.0  0.12053  0.84717  0.13569  1.0000
  H   H340      1.0  0.17796  0.81189  0.13658  1.0000
  C   C197      1.0  0.22004  0.71778  0.15663  1.0000
  H   H341      1.0  0.09637  0.75851  0.17875  1.0000
  C   C198      1.0  0.17719  0.78420  0.41351  1.0000
  C   C199      1.0  0.20628  0.80347  0.41925  1.0000
  C   C200      1.0  0.21212  0.80867  0.37174  1.0000
  H   H342      1.0  0.15592  0.79832  0.39846  1.0000
  H   H343      1.0  0.17513  0.76934  0.38460  1.0000
  H   H344      1.0  0.03650  0.84961  0.02266  1.0000
  H   H345      1.0  0.20207  0.82454  0.43162  1.0000
  H   H346      1.0  0.22820  0.79427  0.44631  1.0000
  H   H347      1.0  0.13881  0.73796  0.37822  1.0000
  H   H348      1.0  0.23080  0.82485  0.37602  1.0000
  H   H349      1.0  0.22017  0.78862  0.36101  1.0000
  H   H350      1.0  0.19024  0.81664  0.34283  1.0000
  H   H351      1.0  0.28535  0.75939  0.48975  1.0000
  H   H352      1.0  0.46164  0.72624  0.46305  1.0000
  H   H353      1.0  0.17254  0.70613  0.14742  1.0000
  S   S48       1.0  0.05575  0.84268  0.25792  1.0000
  N   N11       1.0  0.17692  0.76855  0.45914  1.0000
  H   H354      1.0  0.07301  0.86606  0.45133  1.0000
  H   H355      1.0  0.28338  0.73916  0.41332  1.0000
  C   C201      1.0  0.47958  0.80678  0.03478  1.0000
  H   H356      1.0  0.30175  0.77360  0.41965  1.0000
  C   C202      1.0  0.30728  0.74997  0.48760  1.0000
  C   C203      1.0  0.13814  0.97439  0.46899  1.0000
  C   C204      1.0  0.09452  0.77139  0.04048  1.0000
  S   S49       1.0  0.05117  0.77662  0.22147  1.0000
  H   H357      1.0  0.41632  0.76089  0.04581  1.0000
  C   C205      1.0  0.45223  0.71155  0.43320  1.0000
  H   H358      1.0  0.06641  0.70660  0.12051  1.0000
  H   H359      1.0  0.11069  0.79522  0.13149  1.0000
  C   C206      1.0  0.14623  0.84234  0.14694  1.0000
  H   H360      1.0  0.47122  0.78442  0.03161  1.0000
  C   C207      1.0  0.12170  0.94588  0.45051  1.0000
  H   H361      1.0  0.15635  0.84028  0.18689  1.0000
  C   C208      1.0  0.48506  0.72346  0.02973  1.0000
  C   C209      1.0  0.13595  0.78912  0.14130  1.0000
  N   N12       1.0  0.14003  0.76071  0.12201  1.0000
  Fe  Fe23      1.0  0.04320  0.79943  0.28125  1.0000
  C   C210      1.0  0.12298  0.73754  0.14043  1.0000
  C   C211      1.0  0.17496  0.75337  0.14142  1.0000
  C   C212      1.0  0.12927  0.76194  0.06771  1.0000
  H   H362      1.0  0.50417  0.68047  0.35217  1.0000
  H   H363      1.0  0.04584  0.78180  0.40041  1.0000
  C   C213      1.0  0.18445  0.72290  0.13246  1.0000
  C   C214      1.0  0.09131  0.74582  0.14633  1.0000
  C   C215      1.0  0.20397  0.74732  0.47938  1.0000
  C   C216      1.0  0.21551  0.73237  0.44241  1.0000
  H   H364      1.0  0.07900  0.80325  0.43247  1.0000
  H   H365      1.0  0.37458  0.75400  0.02300  1.0000
  H   H366      1.0  0.22640  0.69602  0.14953  1.0000
  C   C217      1.0  0.05283  0.80275  0.41660  1.0000
  H   H367      1.0  0.11873  0.71894  0.11710  1.0000
  H   H368      1.0  0.13805  0.72920  0.17715  1.0000
  H   H369      1.0  0.18460  0.75590  0.18111  1.0000
  H   H370      1.0  0.32561  0.74133  0.43021  1.0000
  H   H371      1.0  0.51009  0.72457  0.10652  1.0000
  H   H372      1.0  0.13185  0.74061  0.05458  1.0000
  H   H373      1.0  0.47073  0.81717  0.06068  1.0000
  C   C218      1.0  0.51568  0.80737  0.05290  1.0000
  H   H374      1.0  0.13467  0.94484  0.38613  1.0000
  C   C219      1.0  0.39310  0.76913  0.02079  1.0000
  Fe  Fe24      1.0  0.36505  0.67780  0.42838  1.0000
  C   C220      1.0  0.47608  0.70701  0.40797  1.0000
  C   C221      1.0  0.14551  0.75407  0.44962  1.0000
  H   H375      1.0  0.44626  0.69088  0.44758  1.0000
  H   H376      1.0  0.15770  0.86054  0.13441  1.0000
  H   H377      1.0  0.18838  0.76830  0.12562  1.0000
  H   H378      1.0  0.04481  0.82001  0.38786  1.0000
  C   C222      1.0  0.03860  0.80703  0.45571  1.0000
  H   H379      1.0  0.10036  0.92447  0.38383  1.0000
  H   H380      1.0  0.23349  0.73353  0.14240  1.0000
  H   H381      1.0  0.09734  0.96284  0.37702  1.0000
  H   H382      1.0  0.15576  0.97890  0.45096  1.0000
  H   H383      1.0  0.43016  0.72115  0.40699  1.0000
  C   C223      1.0  0.50730  0.69375  0.44339  1.0000
  H   H384      1.0  0.14409  0.74361  0.48323  1.0000
  H   H385      1.0  0.05100  0.72604  0.15872  1.0000
  H   H386      1.0  0.15399  0.71176  0.42768  1.0000
  C   C224      1.0  0.07301  0.71941  0.15303  1.0000
  H   H387      1.0  0.08833  0.79135  0.05391  1.0000
  H   H388      1.0  0.07834  0.75422  0.04399  1.0000
  H   H389      1.0  0.46528  0.69232  0.37872  1.0000
  C   C225      1.0  0.10417  0.71904  0.40419  1.0000
  H   H390      1.0  0.08742  0.70599  0.18495  1.0000
  H   H391      1.0  0.50081  0.67240  0.45465  1.0000
  H   H392      1.0  0.52244  0.72602  0.36936  1.0000
  S   S50       1.0  0.39716  0.69841  0.49444  1.0000
  C   C226      1.0  0.17919  0.79079  0.49553  1.0000
  C   C227      1.0  0.03203  0.81778  0.07483  1.0000
  H   H393      1.0  0.19593  0.72545  0.41069  1.0000
  H   H394      1.0  0.04774  0.82721  0.47282  1.0000
  H   H395      1.0  0.24602  0.69738  0.43948  1.0000
  C   C228      1.0  0.52392  0.67088  0.38306  1.0000
  H   H396      1.0  0.51502  0.70607  0.47658  1.0000
  H   H397      1.0  0.11959  0.99130  0.45399  1.0000
  H   H398      1.0  0.09895  0.70245  0.37706  1.0000
  H   H399      1.0  0.52459  0.74937  0.44608  1.0000
  C   C229      1.0  0.12212  0.86849  0.49528  1.0000
  H   H400      1.0  0.04756  0.78926  0.48321  1.0000
  C   C230      1.0  0.15317  0.86892  0.49549  1.0000
  H   H401      1.0  0.18805  0.93309  0.49137  1.0000
  H   H402      1.0  0.02727  0.88713  0.16770  1.0000
  H   H403      1.0  0.22145  0.68922  0.47505  1.0000
  H   H404      1.0  0.52423  0.76843  0.02327  1.0000
  H   H405      1.0  0.52406  0.79678  0.08957  1.0000
  H   H406      1.0  0.52312  0.82998  0.05555  1.0000
  H   H407      1.0  0.30877  0.72707  0.49953  1.0000
  H   H408      1.0  0.25568  0.71150  0.49842  1.0000
  C   C231      1.0  0.08455  0.79882  0.74090  1.0000
  C   C232      1.0  0.06414  0.82448  0.79300  1.0000
  C   C233      1.0  0.06288  0.80096  0.76510  1.0000
  H   H409      1.0  0.08025  0.88277  0.68718  1.0000
  C   C234      1.0  0.06261  0.84251  0.61899  1.0000
  H   H410      1.0  0.06050  0.89817  0.62881  1.0000
  C   C235      1.0  0.05623  0.88710  0.66012  1.0000
  C   C236      1.0  0.06018  0.92462  0.71619  1.0000
  H   H411      1.0  0.06832  0.96113  0.67243  1.0000
  H   H412      1.0  0.07559  0.91095  0.74733  1.0000
  H   H413      1.0  0.06059  0.85462  0.58491  1.0000
  H   H414      1.0  0.05401  0.82054  0.61065  1.0000
  H   H415      1.0  0.06030  0.95455  0.55585  1.0000
  H   H416      1.0  0.04776  0.82621  0.81217  1.0000
  H   H417      1.0  0.06290  0.78255  0.96790  1.0000
  H   H418      1.0  0.04787  0.93970  0.73163  1.0000
  H   H419      1.0  0.03694  0.87668  0.73813  1.0000
  C   C237      1.0  0.04320  0.85711  0.64482  1.0000
  H   H420      1.0  0.04461  0.84340  0.67716  1.0000
  H   H421      1.0  0.08793  0.84114  0.64213  1.0000
  C   C238      1.0  0.08359  0.94574  0.55795  1.0000
  H   H422      1.0  0.07949  0.92838  0.53234  1.0000
  C   C239      1.0  0.08206  0.94342  0.69677  1.0000
  H   H423      1.0  0.09794  0.96993  0.75912  1.0000
  C   C240      1.0  0.08700  0.84565  0.79659  1.0000
  H   H424      1.0  0.09370  0.93094  0.67671  1.0000
  S   S51       1.0  0.03491  0.77369  0.75966  1.0000
  C   C241      1.0  0.08822  0.77676  0.98663  1.0000
  H   H425      1.0  0.09355  0.75730  0.97071  1.0000
  H   H426      1.0  0.08798  0.86370  0.81843  1.0000
  C   C242      1.0  0.10818  0.95672  0.73786  1.0000
  H   H427      1.0  0.51438  0.79826  0.98164  1.0000
  H   H428      1.0  0.09024  0.97749  0.50773  1.0000
  Fe  Fe25      1.0  0.21543  0.84826  0.69139  1.0000
  H   H429      1.0  0.08390  0.78059  0.71958  1.0000
  S   S52       1.0  0.39530  0.80633  0.74083  1.0000
  H   H430      1.0  0.09583  0.93675  0.59504  1.0000
  C   C243      1.0  0.19479  0.93607  0.53056  1.0000
  N   N13       1.0  0.03708  0.90614  0.68011  1.0000
  H   H431      1.0  0.20110  0.98043  0.52099  1.0000
  H   H432      1.0  0.10275  0.79467  0.98035  1.0000
  H   H433      1.0  0.10489  0.98703  0.56952  1.0000
  H   H434      1.0  0.16720  0.82051  0.56797  1.0000
  H   H435      1.0  0.35749  0.75465  0.51419  1.0000
  C   C244      1.0  0.40310  0.67323  0.64804  1.0000
  H   H436      1.0  0.24400  0.94301  0.53711  1.0000
  H   H437      1.0  0.50872  0.71871  0.62286  1.0000
  C   C245      1.0  0.33702  0.76590  0.51857  1.0000
  H   H438      1.0  0.15474  0.77148  0.54231  1.0000
  H   H439      1.0  0.38411  0.78465  0.83187  1.0000
  C   C246      1.0  0.13704  0.95872  0.55100  1.0000
  C   C247      1.0  0.17848  0.77957  0.54537  1.0000
  C   C248      1.0  0.51593  0.70924  0.98186  1.0000
  H   H440      1.0  0.12297  0.97059  0.72295  1.0000
  H   H441      1.0  0.28803  0.79008  0.82597  1.0000
  C   C249      1.0  0.10322  0.96931  0.54514  1.0000
  C   C250      1.0  0.10703  0.82018  0.74392  1.0000
  C   C251      1.0  0.10825  0.84377  0.77154  1.0000
  C   C252      1.0  0.40240  0.77305  0.59838  1.0000
  H   H442      1.0  0.02826  0.93813  0.62176  1.0000
  H   H443      1.0  0.23838  0.93145  0.59275  1.0000
  N   N14       1.0  0.15360  0.97629  0.52295  1.0000
  H   H444      1.0  0.23434  0.90641  0.54677  1.0000
  H   H445      1.0  0.25434  0.80571  0.55602  1.0000
  C   C253      1.0  0.17581  0.99060  0.67401  1.0000
  H   H446      1.0  0.44840  0.83832  0.89464  1.0000
  H   H447      1.0  0.33678  0.78764  0.50165  1.0000
  H   H448      1.0  0.49242  0.68078  0.65167  1.0000
  H   H449      1.0  0.22519  0.75775  0.50424  1.0000
  C   C254      1.0  0.51616  0.71267  0.59256  1.0000
  C   C255      1.0  0.33776  0.78202  0.73283  1.0000
  H   H450      1.0  0.29361  0.80813  0.51258  1.0000
  C   C256      1.0  0.43764  0.81729  0.88375  1.0000
  H   H451      1.0  0.34407  0.71260  0.70691  1.0000
  C   C257      1.0  0.20786  0.98874  0.67969  1.0000
  C   C258      1.0  0.34515  0.70317  0.85070  1.0000
  C   C259      1.0  0.48719  0.71854  0.98450  1.0000
  H   H452      1.0  0.46665  0.67062  0.57049  1.0000
  H   H453      1.0  0.43837  0.81351  0.84744  1.0000
  H   H454      1.0  0.31907  0.75362  0.86385  1.0000
  H   H455      1.0  0.51774  0.70512  0.94726  1.0000
  H   H456      1.0  0.40578  0.77122  0.89021  1.0000
  C   C260      1.0  0.40342  0.81748  0.88206  1.0000
  H   H457      1.0  0.20139  0.80295  0.50298  1.0000
  C   C261      1.0  0.34233  0.75651  0.85917  1.0000
  H   H458      1.0  0.39034  0.83364  0.85347  1.0000
  C   C262      1.0  0.42286  0.69862  0.59131  1.0000
  S   S53       1.0  0.47630  0.69598  0.81709  1.0000
  H   H459      1.0  0.34458  0.82883  0.87036  1.0000
  C   C263      1.0  0.30468  0.83427  0.70992  1.0000
  H   H460      1.0  0.29274  0.76558  0.56807  1.0000
  C   C264      1.0  0.36066  0.72839  0.88054  1.0000
  H   H461      1.0  0.13572  0.93596  0.54207  1.0000
  C   C265      1.0  0.30075  0.80615  0.85191  1.0000
  H   H462      1.0  0.16268  0.97138  0.67470  1.0000
  C   C266      1.0  0.39873  0.68765  0.55270  1.0000
  C   C267      1.0  0.28838  0.80918  0.71264  1.0000
  H   H463      1.0  0.29262  0.76357  0.72600  1.0000
  H   H464      1.0  0.42634  0.81370  0.59973  1.0000
  H   H465      1.0  0.38053  0.72666  0.66539  1.0000
  H   H466      1.0  0.33486  0.69349  0.65268  1.0000
  H   H467      1.0  0.12369  0.93979  0.76202  1.0000
  H   H468      1.0  0.37117  0.79187  0.63079  1.0000
  H   H469      1.0  0.40342  0.76866  0.56248  1.0000
  H   H470      1.0  0.38536  0.72919  0.88152  1.0000
  N   N15       1.0  0.35747  0.78386  0.88034  1.0000
  H   H471      1.0  0.28376  0.84146  0.79837  1.0000
  C   C268      1.0  0.27384  0.82127  0.56471  1.0000
  C   C269      1.0  0.18550  0.80336  0.58095  1.0000
  H   H472      1.0  0.18199  0.92072  0.54632  1.0000
  H   H473      1.0  0.36047  0.72379  0.91755  1.0000
  C   C270      1.0  0.33740  0.83311  0.71817  1.0000
  S   S54       1.0  0.47260  0.76573  0.82895  1.0000
  H   H474      1.0  0.26492  0.84164  0.54379  1.0000
  H   H475      1.0  0.15114  0.95824  0.59020  1.0000
  Fe  Fe26      1.0  0.43003  0.70216  0.75589  1.0000
  H   H476      1.0  0.36405  0.72582  0.58395  1.0000
  Fe  Fe27      1.0  0.48978  0.73623  0.78497  1.0000
  H   H477      1.0  0.34986  0.85260  0.71595  1.0000
  H   H478      1.0  0.35035  0.76186  0.74234  1.0000
  H   H479      1.0  0.35877  0.68330  0.86684  1.0000
  C   C271      1.0  0.28299  0.83452  0.83437  1.0000
  C   C272      1.0  0.30504  0.78307  0.72374  1.0000
  H   H480      1.0  0.29950  0.80003  0.88787  1.0000
  H   H481      1.0  0.49488  0.71233  0.55955  1.0000
  H   H482      1.0  0.41358  0.78588  0.97003  1.0000
  H   H483      1.0  0.25783  0.83195  0.83105  1.0000
  S   S55       1.0  0.45362  0.72486  0.93227  1.0000
  C   C273      1.0  0.39374  0.77171  0.96950  1.0000
  H   H484      1.0  0.39954  0.75041  0.96026  1.0000
  S   S56       1.0  0.16373  0.83865  0.67426  1.0000
  H   H485      1.0  0.35619  0.75577  0.66611  1.0000
  C   C274      1.0  0.30160  0.80980  0.55222  1.0000
  C   C275      1.0  0.18791  0.96711  0.53949  1.0000
  H   H486      1.0  0.36751  0.80658  0.57334  1.0000
  H   H487      1.0  0.29209  0.85452  0.70145  1.0000
  H   H488      1.0  0.34497  0.70634  0.81317  1.0000
  C   C276      1.0  0.35412  0.80700  0.72989  1.0000
  H   H489      1.0  0.31036  0.72364  0.65504  1.0000
  C   C277      1.0  0.33553  0.80828  0.85388  1.0000
  S   S57       1.0  0.11369  0.87198  0.54830  1.0000
  S   S58       1.0  0.24739  0.80909  0.70274  1.0000
  C   C278      1.0  0.36985  0.78586  0.59423  1.0000
  H   H490      1.0  0.33743  0.75759  0.81964  1.0000
  C   C279      1.0  0.34615  0.73761  0.59400  1.0000
  Fe  Fe28      1.0  0.45560  0.72576  0.85661  1.0000
  H   H491      1.0  0.45218  0.78349  0.62610  1.0000
  C   C280      1.0  0.33488  0.71497  0.66695  1.0000
  H   H492      1.0  0.32431  0.72508  0.57852  1.0000
  H   H493      1.0  0.19935  0.97047  0.57876  1.0000
  H   H494      1.0  0.33489  0.81083  0.81596  1.0000
  H   H495      1.0  0.32068  0.82576  0.56286  1.0000
  N   N16       1.0  0.34153  0.76747  0.57137  1.0000
  S   S59       1.0  0.22733  0.95540  0.68427  1.0000
  Fe  Fe29      1.0  0.15487  0.87411  0.61782  1.0000
  H   H496      1.0  0.42923  0.79851  0.65851  1.0000
  C   C281      1.0  0.35603  0.73512  0.64989  1.0000
  S   S60       1.0  0.15132  0.90792  0.66650  1.0000
  C   C282      1.0  0.31304  0.78042  0.57865  1.0000
  S   S61       1.0  0.13540  0.87157  0.77459  1.0000
  C   C283      1.0  0.38799  0.78780  0.87052  1.0000
  H   H497      1.0  0.18536  0.79456  0.61637  1.0000
  H   H498      1.0  0.12355  0.81818  0.72518  1.0000
  Fe  Fe30      1.0  0.16377  0.87284  0.72435  1.0000
  Fe  Fe31      1.0  0.20332  0.91266  0.68359  1.0000
  H   H499      1.0  0.31784  0.78338  0.61763  1.0000
  S   S62       1.0  0.40760  0.72743  0.79836  1.0000
  Fe  Fe32      1.0  0.42530  0.76607  0.76923  1.0000
  H   H500      1.0  0.32051  0.70051  0.85007  1.0000
  H   H501      1.0  0.17259  0.87118  0.52876  1.0000
  H   H502      1.0  0.40293  0.82459  0.91696  1.0000
  C   C284      1.0  0.42908  0.79353  0.62209  1.0000
  H   H503      1.0  0.43980  0.71312  0.58469  1.0000
  H   H504      1.0  0.44517  0.69823  0.66784  1.0000
  H   H505      1.0  0.36014  0.80622  0.94424  1.0000
  H   H506      1.0  0.29338  0.85134  0.86014  1.0000
  H   H507      1.0  0.19775  0.73046  0.50230  1.0000
  H   H508      1.0  0.28136  0.82538  0.60370  1.0000
  C   C285      1.0  0.23006  0.92890  0.55321  1.0000
  H   H509      1.0  0.20913  0.81261  0.58644  1.0000
  H   H510      1.0  0.40732  0.75288  0.62066  1.0000
  H   H511      1.0  0.19621  0.76224  0.56124  1.0000
  H   H512      1.0  0.45177  0.80048  0.91000  1.0000
  S   S63       1.0  0.44440  0.74128  0.72264  1.0000
  C   C286      1.0  0.36194  0.78406  0.93338  1.0000
  S   S64       1.0  0.20628  0.88103  0.63018  1.0000
  H   H513      1.0  0.34233  0.77244  0.94064  1.0000
  S   S65       1.0  0.21627  0.88019  0.74632  1.0000
  C   C287      1.0  0.42551  0.69079  0.63861  1.0000
  H   H514      1.0  0.46962  0.81842  0.99915  1.0000
  H   H515      1.0  0.52431  0.75701  0.57642  1.0000
  S   S66       1.0  0.00042  0.27418  0.29017  1.0000
  Fe  Fe33      1.0  0.88327  0.16775  0.35445  1.0000
  S   S67       1.0  0.90088  0.15593  0.43379  1.0000
  S   S68       1.0  0.91677  0.16860  0.31190  1.0000
  Fe  Fe34      1.0  0.81441  0.17078  0.35050  1.0000
  S   S69       1.0  0.82696  0.15949  0.42931  1.0000
  S   S70       1.0  0.76451  0.17958  0.29925  1.0000
  Fe  Fe35      1.0  0.86702  0.18962  0.43805  1.0000
  H   H516      1.0  0.68850  0.30485  0.42367  1.0000
  Fe  Fe36      1.0  0.85942  0.12645  0.41754  1.0000
  S   S71       1.0  0.86706  0.08300  0.45738  1.0000
  S   S72       1.0  0.85215  0.20364  0.35974  1.0000
  S   S73       1.0  0.84412  0.13563  0.33775  1.0000
  Fe  Fe37      1.0  0.58297  0.28308  0.22332  1.0000
  S   S74       1.0  0.56901  0.24637  0.26337  1.0000
  S   S75       1.0  0.57806  0.27833  0.14473  1.0000
  H   H517      1.0  0.68347  0.27699  0.38219  1.0000
  S   S76       1.0  0.59856  0.28164  0.36154  1.0000
  H   H518      1.0  0.64577  0.12025  0.32557  1.0000
  Fe  Fe38      1.0  0.61665  0.25108  0.32054  1.0000
  S   S77       1.0  0.65091  0.21667  0.36494  1.0000
  C   C288      1.0  0.93971  0.27079  0.05733  1.0000
  S   S78       1.0  0.63202  0.28510  0.27825  1.0000
  H   H519      1.0  0.70159  0.32390  0.36143  1.0000
  C   C289      1.0  0.72428  0.26804  0.27359  1.0000
  C   C290      1.0  0.01095  0.15379  0.40887  1.0000
  H   H520      1.0  0.01426  0.16095  0.44538  1.0000
  C   C291      1.0  0.85359  0.05040  0.42991  1.0000
  C   C292      1.0  0.83561  0.04957  0.38099  1.0000
  C   C293      1.0  0.82334  0.02350  0.36118  1.0000
  H   H521      1.0  0.88824  0.26545  0.02273  1.0000
  C   C294      1.0  0.86033  0.02477  0.45833  1.0000
  H   H522      1.0  0.83100  0.06901  0.35859  1.0000
  H   H523      1.0  0.70419  0.26350  0.32940  1.0000
  C   C295      1.0  0.73380  0.19066  0.31886  1.0000
  C   C296      1.0  0.70459  0.19885  0.28418  1.0000
  C   C297      1.0  0.67941  0.20774  0.29807  1.0000
  C   C298      1.0  0.68293  0.20763  0.34683  1.0000
  C   C299      1.0  0.71201  0.19907  0.38165  1.0000
  C   C300      1.0  0.73756  0.19101  0.36776  1.0000
  H   H524      1.0  0.70152  0.19857  0.24631  1.0000
  H   H525      1.0  0.65705  0.21411  0.27098  1.0000
  H   H526      1.0  0.71476  0.19858  0.41942  1.0000
  H   H527      1.0  0.75988  0.18457  0.39474  1.0000
  H   H528      1.0  0.01571  0.20975  0.42801  1.0000
  H   H529      1.0  0.71360  0.13306  0.39059  1.0000
  C   C301      1.0  0.94572  0.22443  0.10136  1.0000
  H   H530      1.0  0.80889  0.02312  0.32352  1.0000
  C   C302      1.0  0.97744  0.24472  0.29663  1.0000
  C   C303      1.0  0.95443  0.24812  0.31812  1.0000
  C   C304      1.0  0.93524  0.22514  0.32256  1.0000
  C   C305      1.0  0.93867  0.19874  0.30485  1.0000
  C   C306      1.0  0.96070  0.19578  0.28151  1.0000
  C   C307      1.0  0.98059  0.21840  0.27849  1.0000
  H   H531      1.0  0.95144  0.26860  0.33143  1.0000
  H   H532      1.0  0.91757  0.22796  0.33908  1.0000
  H   H533      1.0  0.96242  0.17577  0.26588  1.0000
  H   H534      1.0  0.99786  0.21567  0.26124  1.0000
  C   C308      1.0  0.77899  0.30999  0.43015  1.0000
  C   C309      1.0  0.78777  0.10825  0.48023  1.0000
  C   C310      1.0  0.59354  0.29159  0.49426  1.0000
  H   H535      1.0  0.99343  0.19405  0.04211  1.0000
  H   H536      1.0  0.76079  0.26482  0.37026  1.0000
  H   H537      1.0  0.53291  0.21574  0.09793  1.0000
  H   H538      1.0  0.54827  0.30506  0.44485  1.0000
  C   C311      1.0  0.91030  0.26114  0.01549  1.0000
  H   H539      1.0  0.76174  0.12381  0.38605  1.0000
  C   C312      1.0  0.73007  0.00660  0.31780  1.0000
  H   H540      1.0  0.66141  0.26304  0.44455  1.0000
  H   H541      1.0  0.95447  0.21943  0.07178  1.0000
  H   H542      1.0  0.02416  0.16301  0.24718  1.0000
  C   C313      1.0  0.71767  0.27975  0.31653  1.0000
  H   H543      1.0  0.77014  0.06831  0.45082  1.0000
  C   C314      1.0  0.54457  0.28770  0.09365  1.0000
  C   C315      1.0  0.96695  0.20596  0.14550  1.0000
  H   H544      1.0  0.99086  0.16705  0.38414  1.0000
  H   H545      1.0  0.75397  0.00401  0.31549  1.0000
  H   H546      1.0  0.69566  0.24097  0.45321  1.0000
  C   C316      1.0  0.97132  0.11993  0.42508  1.0000
  C   C317      1.0  0.72050  0.03814  0.31186  1.0000
  H   H547      1.0  0.54281  0.18555  0.14057  1.0000
  H   H548      1.0  0.55628  0.22045  0.16045  1.0000
  C   C318      1.0  0.74886  0.28594  0.35752  1.0000
  H   H549      1.0  0.94296  0.26687  0.20036  1.0000
  H   H550      1.0  0.96514  0.23096  0.43162  1.0000
  H   H551      1.0  0.64269  0.32389  0.43930  1.0000
  H   H552      1.0  0.99583  0.25864  0.12804  1.0000
  H   H553      1.0  0.58046  0.32492  0.43868  1.0000
  H   H554      1.0  0.87111  0.25864  0.16388  1.0000
  Fe  Fe39      1.0  0.61119  0.31536  0.31591  1.0000
  C   C319      1.0  0.69660  0.28320  0.41929  1.0000
  C   C320      1.0  0.72647  0.32867  0.38292  1.0000
  H   H555      1.0  0.79034  0.32343  0.40889  1.0000
  C   C321      1.0  0.53637  0.20860  0.13572  1.0000
  C   C322      1.0  0.97646  0.26639  0.13979  1.0000
  H   H556      1.0  0.99238  0.30272  0.18501  1.0000
  C   C323      1.0  0.95296  0.21311  0.44373  1.0000
  C   C324      1.0  0.91785  0.26471  0.12220  1.0000
  C   C325      1.0  0.99958  0.12249  0.40793  1.0000
  N   N17       1.0  0.73707  0.08692  0.35008  1.0000
  C   C326      1.0  0.74264  0.05508  0.35388  1.0000
  C   C327      1.0  0.76284  0.10008  0.39072  1.0000
  C   C328      1.0  0.70482  0.09268  0.35273  1.0000
  C   C329      1.0  0.73790  0.09989  0.30288  1.0000
  C   C330      1.0  0.76743  0.09246  0.29007  1.0000
  H   H557      1.0  0.97770  0.16148  0.16891  1.0000
  C   C331      1.0  0.69695  0.12436  0.35727  1.0000
  H   H558      1.0  0.74323  0.28788  0.46882  1.0000
  Fe  Fe40      1.0  0.55230  0.28054  0.30024  1.0000
  C   C332      1.0  0.76507  0.10578  0.24082  1.0000
  N   N18       1.0  0.94497  0.25644  0.10631  1.0000
  C   C333      1.0  0.00334  0.21497  0.04067  1.0000
  H   H559      1.0  0.69574  0.03949  0.31097  1.0000
  H   H560      1.0  0.76756  0.05003  0.35814  1.0000
  H   H561      1.0  0.78654  0.09415  0.38991  1.0000
  H   H562      1.0  0.93698  0.16846  0.13267  1.0000
  H   H563      1.0  0.70129  0.07982  0.38300  1.0000
  H   H564      1.0  0.68611  0.08543  0.31985  1.0000
  H   H565      1.0  0.71652  0.09412  0.27241  1.0000
  H   H566      1.0  0.73692  0.12357  0.30282  1.0000
  H   H567      1.0  0.77054  0.06913  0.28886  1.0000
  H   H568      1.0  0.78886  0.10089  0.31694  1.0000
  H   H569      1.0  0.91261  0.28798  0.11548  1.0000
  H   H570      1.0  0.72125  0.04624  0.27650  1.0000
  H   H571      1.0  0.69796  0.13774  0.32595  1.0000
  H   H572      1.0  0.65872  0.15035  0.36261  1.0000
  H   H573      1.0  0.98844  0.31173  0.07908  1.0000
  H   H574      1.0  0.78163  0.13137  0.47459  1.0000
  H   H575      1.0  0.60310  0.30401  0.05066  1.0000
  C   C334      1.0  0.98006  0.29914  0.14615  1.0000
  H   H576      1.0  0.73521  0.28463  0.25657  1.0000
  H   H577      1.0  0.74439  0.09733  0.21208  1.0000
  H   H578      1.0  0.76285  0.12938  0.24026  1.0000
  H   H579      1.0  0.78681  0.10055  0.23313  1.0000
  H   H580      1.0  0.74041  0.24917  0.28500  1.0000
  H   H581      1.0  0.69799  0.27028  0.49183  1.0000
  H   H582      1.0  0.70175  0.26150  0.24630  1.0000
  H   H583      1.0  0.96364  0.09738  0.42433  1.0000
  H   H584      1.0  0.80883  0.27399  0.42501  1.0000
  H   H585      1.0  0.00984  0.16035  0.32110  1.0000
  C   C335      1.0  0.73286  0.28242  0.43031  1.0000
  C   C336      1.0  0.92160  0.25707  0.17532  1.0000
  H   H586      1.0  0.55397  0.25489  0.05170  1.0000
  H   H587      1.0  0.77775  0.32336  0.45962  1.0000
  S   S79       1.0  0.88011  0.22475  0.49028  1.0000
  H   H588      1.0  0.02363  0.30292  0.12963  1.0000
  H   H589      1.0  0.96198  0.19241  0.43670  1.0000
  C   C337      1.0  0.89344  0.26805  0.18729  1.0000
  H   H590      1.0  0.96707  0.16842  0.10484  1.0000
  H   H591      1.0  0.73973  0.04564  0.38726  1.0000
  H   H592      1.0  0.96077  0.26732  0.04659  1.0000
  C   C338      1.0  0.66368  0.12754  0.35913  1.0000
  C   C339      1.0  0.96177  0.17414  0.13728  1.0000
  H   H593      1.0  0.92736  0.21486  0.42232  1.0000
  N   N19       1.0  0.74609  0.30161  0.39927  1.0000
  H   H594      1.0  0.63063  0.32956  0.04154  1.0000
  H   H595      1.0  0.89665  0.26182  0.22539  1.0000
  H   H596      1.0  0.92138  0.21569  0.09020  1.0000
  H   H597      1.0  0.96227  0.21040  0.17861  1.0000
  H   H598      1.0  0.89569  0.25444  0.09995  1.0000
  C   C340      1.0  0.68752  0.26311  0.45449  1.0000
  H   H599      1.0  0.70279  0.29914  0.30276  1.0000
  C   C341      1.0  0.76349  0.09121  0.44229  1.0000
  C   C342      1.0  0.53837  0.27233  0.05186  1.0000
  H   H600      1.0  0.66151  0.11508  0.39067  1.0000
  H   H601      1.0  0.01853  0.10811  0.43188  1.0000
  H   H602      1.0  0.74032  0.09476  0.44645  1.0000
  H   H603      1.0  0.98219  0.25633  0.17656  1.0000
  H   H604      1.0  0.93718  0.29429  0.05839  1.0000
  S   S80       1.0  0.56342  0.31708  0.25684  1.0000
  H   H605      1.0  0.92260  0.23366  0.18227  1.0000
  H   H606      1.0  0.99179  0.11482  0.37084  1.0000
  H   H607      1.0  0.99230  0.21021  0.15185  1.0000
  H   H608      1.0  0.97750  0.12695  0.46248  1.0000
  H   H609      1.0  0.79272  0.26875  0.47232  1.0000
  C   C343      1.0  0.60709  0.32708  0.04519  1.0000
  H   H610      1.0  0.89170  0.29169  0.18280  1.0000
  H   H611      1.0  0.95119  0.13306  0.40083  1.0000
  H   H612      1.0  0.73975  0.25971  0.42937  1.0000
  C   C344      1.0  0.80261  0.28486  0.45313  1.0000
  H   H613      1.0  0.76456  0.29764  0.34126  1.0000
  H   H614      1.0  0.84525  0.31048  0.47141  1.0000
  C   C345      1.0  0.83324  0.29549  0.48947  1.0000
  H   H615      1.0  0.91161  0.23802  0.00991  1.0000
  C   C346      1.0  0.57068  0.31526  0.46541  1.0000
  H   H616      1.0  0.95720  0.31069  0.13623  1.0000
  H   H617      1.0  0.62647  0.33062  0.12272  1.0000
  C   C347      1.0  0.99989  0.31318  0.11852  1.0000
  H   H618      1.0  0.59707  0.27609  0.46930  1.0000
  H   H619      1.0  0.81177  0.10486  0.47877  1.0000
  H   H620      1.0  0.87434  0.02519  0.49619  1.0000
  H   H621      1.0  0.52959  0.32291  0.12475  1.0000
  C   C348      1.0  0.95742  0.21478  0.49699  1.0000
  H   H622      1.0  0.78431  0.21520  0.48726  1.0000
  H   H623      1.0  0.00311  0.33608  0.12666  1.0000
  H   H624      1.0  0.99088  0.18944  0.63970  1.0000
  Fe  Fe41      1.0  0.95178  0.23999  0.87265  1.0000
  S   S81       1.0  0.96550  0.28443  0.85678  1.0000
  S   S82       1.0  0.96165  0.21951  0.94772  1.0000
  Fe  Fe42      1.0  0.92611  0.22714  0.76487  1.0000
  S   S83       1.0  0.93834  0.27063  0.74278  1.0000
  S   S84       1.0  0.90540  0.19347  0.71073  1.0000
  Fe  Fe43      1.0  0.98394  0.26373  0.80426  1.0000
  Fe  Fe44      1.0  0.91797  0.28610  0.79672  1.0000
  H   H625      1.0  0.98517  0.23194  0.66440  1.0000
  S   S85       1.0  0.97280  0.21936  0.82371  1.0000
  S   S86       1.0  0.90313  0.24277  0.81571  1.0000
  H   H626      1.0  0.86556  0.18959  0.77224  1.0000
  C   C349      1.0  0.75867  0.24639  0.68440  1.0000
  H   H627      1.0  0.77249  0.23736  0.72087  1.0000
  H   H628      1.0  0.76185  0.26980  0.68342  1.0000
  C   C350      1.0  0.84354  0.32147  0.76469  1.0000
  H   H629      1.0  0.83565  0.16620  0.77936  1.0000
  H   H630      1.0  0.60806  0.31607  0.74499  1.0000
  H   H631      1.0  0.82463  0.21621  0.52701  1.0000
  H   H632      1.0  0.84522  0.31724  0.66679  1.0000
  C   C351      1.0  0.83074  0.29652  0.77771  1.0000
  H   H633      1.0  0.82526  0.17939  0.69357  1.0000
  H   H634      1.0  0.56465  0.28648  0.88156  1.0000
  H   H635      1.0  0.53078  0.28626  0.90037  1.0000
  H   H636      1.0  0.84604  0.27860  0.79501  1.0000
  C   C352      1.0  0.90070  0.20167  0.64987  1.0000
  C   C353      1.0  0.90478  0.22944  0.63398  1.0000
  C   C354      1.0  0.89900  0.23608  0.58507  1.0000
  C   C355      1.0  0.88925  0.21494  0.55153  1.0000
  C   C356      1.0  0.88568  0.18694  0.56714  1.0000
  C   C357      1.0  0.89125  0.18037  0.61627  1.0000
  H   H637      1.0  0.91158  0.24607  0.65895  1.0000
  H   H638      1.0  0.90170  0.25778  0.57315  1.0000
  H   H639      1.0  0.87808  0.17048  0.54133  1.0000
  H   H640      1.0  0.88799  0.15880  0.62821  1.0000
  C   C358      1.0  0.79805  0.29495  0.76911  1.0000
  C   C359      1.0  0.57503  0.29661  0.95740  1.0000
  C   C360      1.0  0.54127  0.30330  0.77261  1.0000
  C   C361      1.0  0.56981  0.29800  0.76505  1.0000
  H   H641      1.0  0.90452  0.30048  0.97053  1.0000
  H   H642      1.0  0.96003  0.27955  0.63632  1.0000
  H   H643      1.0  0.79450  0.19191  0.71391  1.0000
  H   H644      1.0  0.78844  0.27572  0.77993  1.0000
  H   H645      1.0  0.57937  0.27649  0.77021  1.0000
  H   H646      1.0  0.79961  0.18716  0.53322  1.0000
  H   H647      1.0  0.70865  0.25074  0.64087  1.0000
  H   H648      1.0  0.83512  0.20326  0.79270  1.0000
  C   C362      1.0  0.98712  0.16004  0.58488  1.0000
  C   C363      1.0  0.96749  0.13875  0.60299  1.0000
  H   H649      1.0  0.71727  0.25108  0.70487  1.0000
  C   C364      1.0  0.99725  0.24759  0.64760  1.0000
  H   H650      1.0  0.60947  0.30643  0.88842  1.0000
  C   C365      1.0  0.55956  0.24843  0.92111  1.0000
  C   C366      1.0  0.98603  0.27727  0.65428  1.0000
  C   C367      1.0  0.00527  0.25908  0.99630  1.0000
  H   H651      1.0  0.75329  0.24326  0.61030  1.0000
  C   C368      1.0  0.72379  0.24106  0.67627  1.0000
  H   H652      1.0  0.86145  0.26653  0.67049  1.0000
  H   H653      1.0  0.99900  0.26020  0.57686  1.0000
  H   H654      1.0  0.99673  0.27264  0.96377  1.0000
  C   C369      1.0  0.58609  0.32036  0.75070  1.0000
  H   H655      1.0  0.61684  0.30050  0.51493  1.0000
  C   C370      1.0  0.99288  0.21355  0.52854  1.0000
  H   H656      1.0  0.58383  0.28002  0.51957  1.0000
  H   H657      1.0  0.97935  0.15874  0.54522  1.0000
  H   H658      1.0  0.76470  0.22368  0.55185  1.0000
  H   H659      1.0  0.82845  0.30627  0.51884  1.0000
  H   H660      1.0  0.86915  0.31158  0.63033  1.0000
  H   H661      1.0  0.97467  0.13860  0.64288  1.0000
  H   H662      1.0  0.01223  0.15303  0.60067  1.0000
  C   C371      1.0  0.77774  0.31810  0.74678  1.0000
  H   H663      1.0  0.58459  0.24149  0.93062  1.0000
  H   H664      1.0  0.92938  0.27364  0.95901  1.0000
  H   H665      1.0  0.99641  0.16029  0.87295  1.0000
  H   H666      1.0  0.97113  0.11695  0.59263  1.0000
  H   H667      1.0  0.56290  0.29075  0.98331  1.0000
  N   N20       1.0  0.00006  0.21394  0.58220  1.0000
  H   H668      1.0  0.54522  0.23778  0.88802  1.0000
  H   H669      1.0  0.56475  0.32745  0.53202  1.0000
  H   H670      1.0  0.00833  0.21609  0.76295  1.0000
  C   C372      1.0  0.98287  0.19062  0.59962  1.0000
  H   H671      1.0  0.99177  0.28045  0.69326  1.0000
  H   H672      1.0  0.79047  0.27750  0.61110  1.0000
  H   H673      1.0  0.96322  0.24460  0.57695  1.0000
  C   C373      1.0  0.55636  0.28078  0.91172  1.0000
  H   H674      1.0  0.94192  0.14429  0.58676  1.0000
  H   H675      1.0  0.84401  0.26573  0.60589  1.0000
  H   H676      1.0  0.55085  0.24159  0.95070  1.0000
  H   H677      1.0  0.88722  0.26940  0.93841  1.0000
  H   H678      1.0  0.79314  0.25062  0.55127  1.0000
  H   H679      1.0  0.71922  0.21782  0.67786  1.0000
  H   H680      1.0  0.95709  0.19561  0.58774  1.0000
  H   H681      1.0  0.80791  0.27956  0.67408  1.0000
  H   H682      1.0  0.01215  0.16184  0.82418  1.0000
  C   C374      1.0  0.98935  0.24232  0.59344  1.0000
  S   S87       1.0  0.88444  0.32450  0.77424  1.0000
  N   N21       1.0  0.80309  0.23638  0.65012  1.0000
  C   C375      1.0  0.80959  0.21898  0.61289  1.0000
  C   C376      1.0  0.82478  0.22599  0.69947  1.0000
  C   C377      1.0  0.76880  0.23302  0.64505  1.0000
  C   C378      1.0  0.80926  0.26766  0.64316  1.0000
  C   C379      1.0  0.84173  0.27485  0.63843  1.0000
  C   C380      1.0  0.79020  0.22773  0.55958  1.0000
  C   C381      1.0  0.81929  0.19513  0.71603  1.0000
  C   C382      1.0  0.84020  0.18826  0.76828  1.0000
  C   C383      1.0  0.84586  0.30709  0.63403  1.0000
  C   C384      1.0  0.80035  0.21044  0.52484  1.0000
  H   H683      1.0  0.80430  0.19614  0.61803  1.0000
  H   H684      1.0  0.83520  0.21907  0.61779  1.0000
  H   H685      1.0  0.84979  0.22655  0.70126  1.0000
  H   H686      1.0  0.82377  0.24071  0.72733  1.0000
  H   H687      1.0  0.76216  0.21012  0.64323  1.0000
  H   H688      1.0  0.59904  0.28665  0.97309  1.0000
  H   H689      1.0  0.94421  0.19697  0.50675  1.0000
  H   H690      1.0  0.82696  0.31667  0.60201  1.0000
  H   H691      1.0  0.00365  0.23218  0.51576  1.0000
  H   H692      1.0  0.78817  0.10101  0.51670  1.0000
  S   S88       1.0  0.73645  0.31445  0.73353  1.0000
  H   H693      1.0  0.00388  0.19450  0.51933  1.0000
  C   C385      1.0  0.90779  0.27722  0.96811  1.0000
  C   C386      1.0  0.01575  0.15274  0.86108  1.0000
  H   H694      1.0  0.01457  0.12913  0.85980  1.0000
  C   C387      1.0  0.99221  0.23216  0.99790  1.0000
  H   H695      1.0  0.99805  0.29404  0.63945  1.0000
  H   H696      1.0  0.02302  0.24607  0.66754  1.0000
  H   H697      1.0  0.54220  0.33217  0.88008  1.0000
  H   H698      1.0  0.62773  0.32619  0.96641  1.0000
  N   N22       1.0  0.57735  0.32874  0.95237  1.0000
  C   C388      1.0  0.60620  0.32975  0.88976  1.0000
  C   C389      1.0  0.52906  0.33113  0.76574  1.0000
  H   H699      1.0  0.84943  0.27710  0.50577  1.0000
  H   H700      1.0  0.53284  0.28847  0.61733  1.0000
  H   H701      1.0  0.52798  0.31661  0.65367  1.0000
  H   H702      1.0  0.94650  0.23521  0.50091  1.0000
  C   C390      1.0  0.64264  0.39485  0.41029  1.0000
  H   H703      1.0  0.72308  0.39151  0.31238  1.0000
  H   H704      1.0  0.64167  0.40950  0.38043  1.0000
  H   H705      1.0  0.93597  0.65937  0.99998  1.0000
  H   H706      1.0  0.55511  0.63362  0.45669  1.0000
  C   C391      1.0  0.73802  0.35097  0.35247  1.0000
  C   C392      1.0  0.64336  0.40558  0.45389  1.0000
  H   H707      1.0  0.64250  0.42842  0.45708  1.0000
  C   C393      1.0  0.64165  0.36547  0.40430  1.0000
  H   H708      1.0  0.76025  0.36088  0.37504  1.0000
  C   C394      1.0  0.55512  0.37844  0.35834  1.0000
  H   H709      1.0  0.55784  0.35563  0.35181  1.0000
  H   H710      1.0  0.61428  0.36426  0.08925  1.0000
  H   H711      1.0  0.72503  0.33957  0.41478  1.0000
  H   H712      1.0  0.57401  0.39059  0.35016  1.0000
  C   C395      1.0  0.56067  0.64949  0.48489  1.0000
  H   H713      1.0  0.57071  0.65243  0.39058  1.0000
  H   H714      1.0  0.53005  0.62168  0.33646  1.0000
  C   C396      1.0  0.53759  0.64178  0.32250  1.0000
  C   C397      1.0  0.55821  0.38191  0.41079  1.0000
  H   H715      1.0  0.58191  0.37404  0.43386  1.0000
  H   H716      1.0  0.55789  0.33810  0.00763  1.0000
  C   C398      1.0  0.64324  0.34666  0.44351  1.0000
  H   H717      1.0  0.55691  0.40510  0.41611  1.0000
  H   H718      1.0  0.74210  0.34118  0.32174  1.0000
  H   H719      1.0  0.65858  0.64959  0.45177  1.0000
  C   C399      1.0  0.64466  0.38711  0.49302  1.0000
  C   C400      1.0  0.64551  0.35753  0.48833  1.0000
  H   H720      1.0  0.70802  0.38527  0.36107  1.0000
  H   H721      1.0  0.55669  0.63666  0.30833  1.0000
  H   H722      1.0  0.69152  0.36665  0.30600  1.0000
  C   C401      1.0  0.71365  0.37505  0.33184  1.0000
  N   N23       1.0  0.53917  0.35930  0.47738  1.0000
  C   C402      1.0  0.54995  0.66273  0.36251  1.0000
  S   S89       1.0  0.63950  0.35379  0.34750  1.0000
  H   H723      1.0  0.56881  0.39645  0.49731  1.0000
  C   C403      1.0  0.56642  0.33839  0.49876  1.0000
  H   H724      1.0  0.58521  0.36388  0.00021  1.0000
  C   C404      1.0  0.53186  0.36601  0.42415  1.0000
  H   H725      1.0  0.53190  0.38680  0.33375  1.0000
  H   H726      1.0  0.58513  0.33955  0.09659  1.0000
  C   C405      1.0  0.60823  0.34137  0.09108  1.0000
  C   C406      1.0  0.58055  0.34060  0.00046  1.0000
  H   H727      1.0  0.52802  0.40310  0.48648  1.0000
  Fe  Fe45      1.0  0.63857  0.37507  0.70840  1.0000
  S   S90       1.0  0.64377  0.41547  0.66817  1.0000
  S   S91       1.0  0.59345  0.37723  0.72657  1.0000
  Fe  Fe46      1.0  0.70215  0.35217  0.70821  1.0000
  S   S92       1.0  0.71147  0.39091  0.66774  1.0000
  H   H728      1.0  0.54226  0.64858  0.50182  1.0000
  Fe  Fe47      1.0  0.69393  0.41565  0.71684  1.0000
  S   S93       1.0  0.71643  0.45541  0.75413  1.0000
  Fe  Fe48      1.0  0.66029  0.38749  0.62193  1.0000
  C   C407      1.0  0.56671  0.62937  0.65710  1.0000
  S   S94       1.0  0.68825  0.37713  0.76116  1.0000
  Fe  Fe49      1.0  0.69599  0.61635  0.66775  1.0000
  S   S95       1.0  0.70817  0.62442  0.74621  1.0000
  S   S96       1.0  0.69664  0.57394  0.63427  1.0000
  Fe  Fe50      1.0  0.66173  0.64845  0.72320  1.0000
  H   H729      1.0  0.57008  0.41269  0.61875  1.0000
  C   C408      1.0  0.53519  0.63161  0.61433  1.0000
  C   C409      1.0  0.57395  0.34824  0.74408  1.0000
  S   S97       1.0  0.71976  0.65589  0.65072  1.0000
  S   S98       1.0  0.64814  0.63740  0.64594  1.0000
  C   C410      1.0  0.79057  0.34309  0.73401  1.0000
  H   H730      1.0  0.89613  0.65351  0.93428  1.0000
  C   C411      1.0  0.56874  0.56502  0.78166  1.0000
  H   H731      1.0  0.81662  0.42231  0.84031  1.0000
  C   C412      1.0  0.71126  0.48815  0.72037  1.0000
  C   C413      1.0  0.72459  0.51295  0.74351  1.0000
  C   C414      1.0  0.72027  0.53946  0.71759  1.0000
  C   C415      1.0  0.70313  0.54118  0.66817  1.0000
  C   C416      1.0  0.69079  0.51619  0.64481  1.0000
  C   C417      1.0  0.69411  0.48989  0.67098  1.0000
  H   H732      1.0  0.73815  0.51171  0.78165  1.0000
  H   H733      1.0  0.73046  0.55852  0.73566  1.0000
  H   H734      1.0  0.67790  0.51733  0.60642  1.0000
  H   H735      1.0  0.68350  0.47097  0.65283  1.0000
  H   H736      1.0  0.86204  0.62241  0.87315  1.0000
  N   N24       1.0  0.63688  0.51919  0.76699  1.0000
  C   C418      1.0  0.63510  0.53145  0.71802  1.0000
  C   C419      1.0  0.66699  0.52845  0.80511  1.0000
  C   C420      1.0  0.63801  0.48699  0.76541  1.0000
  C   C421      1.0  0.60813  0.52702  0.77904  1.0000
  H   H737      1.0  0.56570  0.58822  0.78521  1.0000
  C   C422      1.0  0.60548  0.52374  0.67494  1.0000
  C   C423      1.0  0.64709  0.46972  0.81451  1.0000
  C   C424      1.0  0.67850  0.55935  0.80001  1.0000
  H   H738      1.0  0.56457  0.55315  0.81224  1.0000
  H   H739      1.0  0.54545  0.43040  0.56309  1.0000
  C   C425      1.0  0.60855  0.53410  0.62698  1.0000
  C   C426      1.0  0.64570  0.43764  0.80713  1.0000
  H   H740      1.0  0.65631  0.52453  0.71024  1.0000
  H   H741      1.0  0.63609  0.55506  0.71697  1.0000
  H   H742      1.0  0.66500  0.52542  0.84150  1.0000
  H   H743      1.0  0.68716  0.51457  0.80563  1.0000
  H   H744      1.0  0.65514  0.48052  0.74803  1.0000
  H   H745      1.0  0.61474  0.47874  0.74283  1.0000
  H   H746      1.0  0.58655  0.51787  0.75295  1.0000
  H   H747      1.0  0.60964  0.51709  0.81458  1.0000
  C   C427      1.0  0.82333  0.34478  0.74318  1.0000
  C   C428      1.0  0.54689  0.37430  0.90669  1.0000
  H   H748      1.0  0.60176  0.50043  0.67309  1.0000
  H   H749      1.0  0.58411  0.53391  0.67791  1.0000
  H   H750      1.0  0.63084  0.47456  0.83399  1.0000
  H   H751      1.0  0.67158  0.47437  0.83795  1.0000
  H   H752      1.0  0.77520  0.36095  0.71682  1.0000
  H   H753      1.0  0.66006  0.57579  0.79497  1.0000
  C   C429      1.0  0.84260  0.63709  0.87244  1.0000
  H   H754      1.0  0.70000  0.56527  0.87710  1.0000
  H   H755      1.0  0.83318  0.36410  0.73340  1.0000
  H   H756      1.0  0.58759  0.59985  0.62158  1.0000
  C   C430      1.0  0.60630  0.33695  0.94037  1.0000
  H   H757      1.0  0.88900  0.42408  0.67887  1.0000
  H   H758      1.0  0.58526  0.53323  0.59767  1.0000
  H   H759      1.0  0.61735  0.55629  0.62833  1.0000
  H   H760      1.0  0.62528  0.52006  0.61807  1.0000
  H   H761      1.0  0.62141  0.43130  0.78521  1.0000
  H   H762      1.0  0.66224  0.43161  0.78864  1.0000
  H   H763      1.0  0.65269  0.42561  0.84251  1.0000
  C   C431      1.0  0.87096  0.41613  0.64598  1.0000
  H   H764      1.0  0.78497  0.53962  0.71391  1.0000
  H   H765      1.0  0.71139  0.42262  0.57187  1.0000
  H   H766      1.0  0.73078  0.45012  0.64634  1.0000
  H   H767      1.0  0.78907  0.53313  0.65700  1.0000
  H   H768      1.0  0.82297  0.42381  0.60093  1.0000
  H   H769      1.0  0.72291  0.45157  0.53897  1.0000
  H   H770      1.0  0.68634  0.56161  0.76844  1.0000
  C   C432      1.0  0.70670  0.56640  0.84431  1.0000
  H   H771      1.0  0.82310  0.52967  0.71212  1.0000
  H   H772      1.0  0.74283  0.47851  0.61300  1.0000
  C   C433      1.0  0.58373  0.60144  0.65641  1.0000
  H   H773      1.0  0.60713  0.60070  0.68553  1.0000
  H   H774      1.0  0.61092  0.36014  0.94494  1.0000
  H   H775      1.0  0.60516  0.57212  0.75191  1.0000
  S   S99       1.0  0.62685  0.64089  0.76256  1.0000
  H   H776      1.0  0.91226  0.65795  0.86091  1.0000
  H   H777      1.0  0.78471  0.44625  0.80666  1.0000
  H   H778      1.0  0.69261  0.45708  0.56464  1.0000
  C   C434      1.0  0.60218  0.55922  0.78216  1.0000
  H   H779      1.0  0.87961  0.41983  0.61534  1.0000
  H   H780      1.0  0.59962  0.65622  0.55172  1.0000
  C   C435      1.0  0.63345  0.34426  0.87849  1.0000
  H   H781      1.0  0.72671  0.55141  0.84928  1.0000
  H   H782      1.0  0.63068  0.36784  0.87688  1.0000
  N   N25       1.0  0.79787  0.44415  0.67455  1.0000
  C   C436      1.0  0.78673  0.43299  0.71459  1.0000
  C   C437      1.0  0.77224  0.43976  0.62664  1.0000
  C   C438      1.0  0.82603  0.42607  0.67651  1.0000
  C   C439      1.0  0.80758  0.47509  0.67922  1.0000
  C   C440      1.0  0.78952  0.49482  0.70198  1.0000
  C   C441      1.0  0.81242  0.43034  0.76554  1.0000
  C   C442      1.0  0.83939  0.43179  0.63517  1.0000
  C   C443      1.0  0.74022  0.45511  0.61709  1.0000
  C   C444      1.0  0.71542  0.44596  0.57027  1.0000
  C   C445      1.0  0.79728  0.52618  0.69580  1.0000
  C   C446      1.0  0.79774  0.42656  0.80483  1.0000
  H   H783      1.0  0.65651  0.33779  0.90610  1.0000
  H   H784      1.0  0.77660  0.41138  0.70675  1.0000
  H   H785      1.0  0.76700  0.44613  0.71689  1.0000
  H   H786      1.0  0.77994  0.44740  0.59637  1.0000
  H   H787      1.0  0.76755  0.41649  0.62224  1.0000
  H   H788      1.0  0.82007  0.40299  0.67675  1.0000
  H   H789      1.0  0.84607  0.42907  0.71062  1.0000
  H   H790      1.0  0.83301  0.47681  0.70172  1.0000
  H   H791      1.0  0.80567  0.48490  0.64329  1.0000
  H   H792      1.0  0.79618  0.48953  0.74118  1.0000
  H   H793      1.0  0.76366  0.49271  0.68593  1.0000
  H   H794      1.0  0.82761  0.41125  0.76852  1.0000
  H   H795      1.0  0.82775  0.44934  0.77288  1.0000
  H   H796      1.0  0.84318  0.45490  0.62981  1.0000
  H   H797      1.0  0.71466  0.58843  0.83957  1.0000
  H   H798      1.0  0.56252  0.62945  0.69187  1.0000
  H   H799      1.0  0.80320  0.65709  0.72365  1.0000
  H   H800      1.0  0.58273  0.64703  0.65527  1.0000
  H   H801      1.0  0.56972  0.58303  0.66216  1.0000
  Fe  Fe51      1.0  0.72833  0.66567  0.72776  1.0000
  H   H802      1.0  0.86821  0.39278  0.65133  1.0000
  H   H803      1.0  0.58905  0.61936  0.54098  1.0000
  S   S100      1.0  0.64022  0.40243  0.54357  1.0000
  H   H804      1.0  0.78126  0.40828  0.79768  1.0000
  H   H805      1.0  0.58414  0.33681  0.86070  1.0000
  H   H806      1.0  0.57496  0.37008  0.57614  1.0000
  H   H807      1.0  0.53580  0.37498  0.74647  1.0000
  H   H808      1.0  0.56658  0.38116  0.89446  1.0000
  H   H809      1.0  0.61040  0.63759  0.50738  1.0000
  H   H810      1.0  0.52913  0.66549  0.68656  1.0000
  H   H811      1.0  0.66745  0.66086  0.53661  1.0000
  H   H812      1.0  0.57737  0.64407  0.80292  1.0000
  C   C447      1.0  0.54541  0.35350  0.75171  1.0000
  H   H813      1.0  0.61880  0.56686  0.81656  1.0000
  H   H814      1.0  0.83401  0.63089  0.90242  1.0000
  C   C448      1.0  0.54745  0.38706  0.50262  1.0000
  H   H815      1.0  0.82278  0.63501  0.83782  1.0000
  H   H816      1.0  0.58930  0.34987  0.51125  1.0000
  C   C449      1.0  0.59185  0.64021  0.52366  1.0000
  H   H817      1.0  0.63348  0.33791  0.84283  1.0000
  H   H818      1.0  0.54866  0.38543  0.93969  1.0000
  H   H819      1.0  0.55094  0.55878  0.74719  1.0000
  C   C450      1.0  0.54740  0.34139  0.91576  1.0000
  H   H820      1.0  0.58633  0.42208  0.57240  1.0000
  H   H821      1.0  0.96559  0.65294  0.85734  1.0000
  C   C451      1.0  0.56482  0.41447  0.57918  1.0000
  H   H822      1.0  0.54076  0.63011  0.58067  1.0000
  H   H823      1.0  0.64659  0.34320  0.51853  1.0000
  H   H824      1.0  0.85439  0.66646  0.71153  1.0000
  S   S101      1.0  0.65152  0.34687  0.65832  1.0000
  C   C452      1.0  0.55518  0.38535  0.55810  1.0000
  H   H825      1.0  0.94176  0.65749  0.91948  1.0000
  H   H826      1.0  0.53450  0.37879  0.56790  1.0000
  C   C453      1.0  0.60043  0.66891  0.76184  1.0000
  C   C454      1.0  0.57806  0.66447  0.78473  1.0000
  C   C455      1.0  0.85379  0.66793  0.87618  1.0000
  S   S102      1.0  0.99953  0.78822  0.29921  1.0000
  Fe  Fe52      1.0  0.81607  0.85868  0.37435  1.0000
  S   S103      1.0  0.82556  0.88808  0.43577  1.0000
  S   S104      1.0  0.78268  0.82071  0.36403  1.0000
  Fe  Fe53      1.0  0.87152  0.88279  0.34579  1.0000
  S   S105      1.0  0.88455  0.91379  0.40462  1.0000
  S   S106      1.0  0.90189  0.88517  0.29854  1.0000
  Fe  Fe54      1.0  0.87692  0.87740  0.45127  1.0000
  H   H827      1.0  0.98842  0.76233  0.16080  1.0000
  Fe  Fe55      1.0  0.83246  0.92207  0.38343  1.0000
  S   S107      1.0  0.80995  0.96646  0.36522  1.0000
  S   S108      1.0  0.86735  0.84585  0.39359  1.0000
  S   S109      1.0  0.81948  0.89317  0.32083  1.0000
  Fe  Fe56      1.0  0.60507  0.77305  0.25860  1.0000
  S   S110      1.0  0.62467  0.73103  0.24849  1.0000
  S   S111      1.0  0.63254  0.81465  0.26852  1.0000
  H   H828      1.0  0.98160  0.67009  0.07133  1.0000
  H   H829      1.0  0.97403  0.70782  0.05908  1.0000
  Fe  Fe57      1.0  0.60303  0.71308  0.30147  1.0000
  H   H830      1.0  0.62462  0.78925  0.17278  1.0000
  Fe  Fe58      1.0  0.57673  0.72467  0.19231  1.0000
  S   S112      1.0  0.57519  0.70806  0.12079  1.0000
  S   S113      1.0  0.58609  0.75549  0.31491  1.0000
  S   S114      1.0  0.55826  0.76815  0.19877  1.0000
  C   C456      1.0  0.87049  0.84398  0.17160  1.0000
  C   C457      1.0  0.63746  0.69052  0.42202  1.0000
  C   C458      1.0  0.62919  0.71737  0.43277  1.0000
  C   C459      1.0  0.54121  0.71948  0.40417  1.0000
  H   H831      1.0  0.61882  0.73321  0.40435  1.0000
  C   C460      1.0  0.74117  0.81996  0.33339  1.0000
  C   C461      1.0  0.72642  0.79335  0.32369  1.0000
  C   C462      1.0  0.69332  0.79146  0.30246  1.0000
  C   C463      1.0  0.67448  0.81618  0.29135  1.0000
  C   C464      1.0  0.68922  0.84284  0.30049  1.0000
  C   C465      1.0  0.72240  0.84476  0.32139  1.0000
  H   H832      1.0  0.74069  0.77403  0.33289  1.0000
  H   H833      1.0  0.68238  0.77081  0.29550  1.0000
  H   H834      1.0  0.67487  0.86212  0.29194  1.0000
  H   H835      1.0  0.73338  0.86538  0.32883  1.0000
  H   H836      1.0  0.84796  0.79112  0.47088  1.0000
  H   H837      1.0  0.74296  0.75364  0.46583  1.0000
  H   H838      1.0  0.57755  0.76893  0.40913  1.0000
  H   H839      1.0  0.95142  0.76979  0.42623  1.0000
  C   C466      1.0  0.95007  0.81617  0.44159  1.0000
  H   H840      1.0  0.93322  0.76675  0.49546  1.0000
  C   C467      1.0  0.97297  0.81542  0.30019  1.0000
  C   C468      1.0  0.97966  0.84417  0.29436  1.0000
  C   C469      1.0  0.95786  0.86541  0.29464  1.0000
  C   C470      1.0  0.92963  0.85809  0.30206  1.0000
  C   C471      1.0  0.92314  0.82934  0.30870  1.0000
  C   C472      1.0  0.94474  0.80806  0.30764  1.0000
  H   H841      1.0  0.00163  0.85011  0.28976  1.0000
  H   H842      1.0  0.96290  0.88763  0.28928  1.0000
  H   H843      1.0  0.90112  0.82354  0.31351  1.0000
  H   H844      1.0  0.93945  0.78583  0.31225  1.0000
  C   C473      1.0  0.65181  0.67034  0.45974  1.0000
  H   H845      1.0  0.55717  0.78979  0.43904  1.0000
  C   C474      1.0  0.00192  0.80696  0.43479  1.0000
  C   C475      1.0  0.54238  0.70509  0.02421  1.0000
  C   C476      1.0  0.69409  0.76966  0.42715  1.0000
  C   C477      1.0  0.54631  0.74464  0.43811  1.0000
  C   C478      1.0  0.82954  0.99793  0.38981  1.0000
  H   H846      1.0  0.67036  0.83762  0.43663  1.0000
  H   H847      1.0  0.98461  0.81799  0.14464  1.0000
  C   C479      1.0  0.71839  0.74587  0.45365  1.0000
  C   C480      1.0  0.56870  0.82637  0.01408  1.0000
  H   H848      1.0  0.02420  0.89925  0.48843  1.0000
  H   H849      1.0  0.60908  0.87363  0.02847  1.0000
  H   H850      1.0  0.94701  0.78593  0.09239  1.0000
  H   H851      1.0  0.88029  0.82399  0.11495  1.0000
  S   S115      1.0  0.62918  0.68128  0.36198  1.0000
  H   H852      1.0  0.73023  0.99716  0.35302  1.0000
  C   C481      1.0  0.00012  0.89887  0.46086  1.0000
  H   H853      1.0  0.99906  0.91443  0.43084  1.0000
  C   C482      1.0  0.58190  0.78825  0.07977  1.0000
  H   H854      1.0  0.57533  0.80298  0.10321  1.0000
  C   C483      1.0  0.99431  0.84671  0.48268  1.0000
  H   H855      1.0  0.62799  0.77681  0.07367  1.0000
  H   H856      1.0  0.85775  0.86250  0.14829  1.0000
  H   H857      1.0  0.57536  0.76652  0.08972  1.0000
  H   H858      1.0  0.00067  0.91765  0.15461  1.0000
  H   H859      1.0  0.53601  0.77750  0.37982  1.0000
  H   H860      1.0  0.69274  0.71269  0.40677  1.0000
  C   C484      1.0  0.01958  0.79121  0.08128  1.0000
  H   H861      1.0  0.99230  0.86038  0.20425  1.0000
  H   H862      1.0  0.92110  0.78708  0.12626  1.0000
  H   H863      1.0  0.95187  0.85966  0.03134  1.0000
  C   C485      1.0  0.76614  0.85130  0.48761  1.0000
  H   H864      1.0  0.94413  0.82919  0.40726  1.0000
  N   N26       1.0  0.69639  0.79744  0.45183  1.0000
  C   C486      1.0  0.61247  0.82955  0.37940  1.0000
  H   H865      1.0  0.90509  0.81213  0.17532  1.0000
  C   C487      1.0  0.93465  0.78652  0.42775  1.0000
  H   H866      1.0  0.96363  0.82420  0.05591  1.0000
  H   H867      1.0  0.69565  0.77384  0.39079  1.0000
  C   C488      1.0  0.73171  0.84203  0.47263  1.0000
  C   C489      1.0  0.67104  0.81740  0.41884  1.0000
  C   C490      1.0  0.72796  0.81068  0.45728  1.0000
  H   H868      1.0  0.85287  0.82778  0.17346  1.0000
  H   H869      1.0  0.85332  0.97912  0.46082  1.0000
  H   H870      1.0  0.99199  0.75580  0.04640  1.0000
  H   H871      1.0  0.73243  0.81048  0.42254  1.0000
  N   N27       1.0  0.53379  0.69105  0.42365  1.0000
  H   H872      1.0  0.96572  0.81699  0.18786  1.0000
  H   H873      1.0  0.67655  0.82369  0.38585  1.0000
  H   H874      1.0  0.56297  0.71767  0.39488  1.0000
  H   H875      1.0  0.56454  0.69778  0.02197  1.0000
  C   C491      1.0  0.00971  0.89855  0.17915  1.0000
  C   C492      1.0  0.55476  0.77184  0.41498  1.0000
  H   H876      1.0  0.98246  0.90554  0.47693  1.0000
  C   C493      1.0  0.63693  0.80576  0.40177  1.0000
  C   C494      1.0  0.96281  0.68653  0.05502  1.0000
  H   H877      1.0  0.61245  0.84487  0.40683  1.0000
  H   H878      1.0  0.94594  0.68542  0.07492  1.0000
  H   H879      1.0  0.88280  0.85114  0.20851  1.0000
  H   H880      1.0  0.58857  0.82021  0.36473  1.0000
  N   N28       1.0  0.94193  0.84439  0.12464  1.0000
  C   C495      1.0  0.92303  0.84150  0.07195  1.0000
  C   C496      1.0  0.91988  0.85263  0.15058  1.0000
  C   C497      1.0  0.96452  0.86877  0.12771  1.0000
  C   C498      1.0  0.96077  0.81767  0.14821  1.0000
  C   C499      1.0  0.94608  0.78868  0.12889  1.0000
  C   C500      1.0  0.84859  0.99860  0.43832  1.0000
  H   H881      1.0  0.73340  0.70398  0.44092  1.0000
  C   C501      1.0  0.89403  0.83098  0.15134  1.0000
  H   H882      1.0  0.99378  0.82000  0.40028  1.0000
  N   N29       1.0  0.98530  0.81659  0.46793  1.0000
  H   H883      1.0  0.90722  0.86050  0.05758  1.0000
  H   H884      1.0  0.90675  0.82323  0.06650  1.0000
  H   H885      1.0  0.93324  0.85576  0.18929  1.0000
  H   H886      1.0  0.90816  0.87355  0.13525  1.0000
  H   H887      1.0  0.95178  0.88782  0.10565  1.0000
  C   C502      1.0  0.71696  0.72145  0.42062  1.0000
  H   H888      1.0  0.65948  0.77969  0.16012  1.0000
  C   C503      1.0  0.96396  0.76344  0.16108  1.0000
  H   H889      1.0  0.61756  0.84114  0.34931  1.0000
  H   H890      1.0  0.95204  0.74325  0.14741  1.0000
  H   H891      1.0  0.63444  0.79031  0.37357  1.0000
  H   H892      1.0  0.93712  0.82748  0.46135  1.0000
  H   H893      1.0  0.96455  0.76528  0.19867  1.0000
  C   C504      1.0  0.63341  0.77749  0.14812  1.0000
  H   H894      1.0  0.81446  0.81160  0.47205  1.0000
  H   H895      1.0  0.67319  0.77558  0.49620  1.0000
  H   H896      1.0  0.56895  0.69433  0.49471  1.0000
  H   H897      1.0  0.96650  0.89114  0.19228  1.0000
  Fe  Fe59      1.0  0.54141  0.74602  0.25480  1.0000
  S   S116      1.0  0.55706  0.70221  0.24453  1.0000
  C   C505      1.0  0.61838  0.78945  0.09624  1.0000
  C   C506      1.0  0.54061  0.71108  0.06925  1.0000
  H   H898      1.0  0.74774  0.79797  0.48308  1.0000
  C   C507      1.0  0.94292  0.83847  0.03873  1.0000
  H   H899      1.0  0.67072  0.75973  0.42093  1.0000
  H   H900      1.0  0.72390  0.72897  0.38956  1.0000
  C   C508      1.0  0.91672  0.77525  0.46027  1.0000
  H   H901      1.0  0.91701  0.78901  0.39066  1.0000
  H   H902      1.0  0.62594  0.81195  0.09548  1.0000
  C   C509      1.0  0.94592  0.68108  0.00179  1.0000
  C   C510      1.0  0.52909  0.79145  0.01923  1.0000
  H   H903      1.0  0.90148  0.79222  0.46605  1.0000
  H   H904      1.0  0.96885  0.87003  0.41341  1.0000
  H   H905      1.0  0.57171  0.83975  0.04542  1.0000
  H   H906      1.0  0.01022  0.86402  0.42423  1.0000
  H   H907      1.0  0.99546  0.78486  0.42390  1.0000
  H   H908      1.0  0.90128  0.75749  0.44287  1.0000
  C   C511      1.0  0.00187  0.77617  0.04111  1.0000
  H   H909      1.0  0.61893  0.82234  0.01927  1.0000
  H   H910      1.0  0.58383  0.68075  0.45234  1.0000
  H   H911      1.0  0.63124  0.79496  0.43188  1.0000
  N   N30       1.0  0.56378  0.79559  0.02718  1.0000
  H   H912      1.0  0.62793  0.75449  0.15073  1.0000
  H   H913      1.0  0.02185  0.90570  0.21617  1.0000
  C   C512      1.0  0.63377  0.72360  0.48049  1.0000
  H   H914      1.0  0.98282  0.86284  0.11219  1.0000
  C   C513      1.0  0.99271  0.86907  0.44149  1.0000
  H   H915      1.0  0.71273  0.73679  0.48504  1.0000
  H   H916      1.0  0.62639  0.74413  0.48833  1.0000
  C   C514      1.0  0.98256  0.87887  0.17891  1.0000
  H   H917      1.0  0.57308  0.75255  0.01224  1.0000
  H   H918      1.0  0.56581  0.73986  0.47264  1.0000
  H   H919      1.0  0.85169  0.82875  0.48079  1.0000
  C   C515      1.0  0.56288  0.68008  0.46394  1.0000
  H   H920      1.0  0.55805  0.68191  0.34694  1.0000
  H   H921      1.0  0.71316  0.99463  0.28861  1.0000
  H   H922      1.0  0.71796  0.85656  0.44179  1.0000
  H   H923      1.0  0.77494  0.84951  0.45710  1.0000
  C   C516      1.0  0.84048  0.80884  0.48824  1.0000
  C   C517      1.0  0.69057  0.79295  0.49902  1.0000
  H   H924      1.0  0.02323  0.78240  0.11712  1.0000
  H   H925      1.0  0.90541  0.70634  0.00076  1.0000
  H   H926      1.0  0.76799  0.87394  0.49751  1.0000
  C   C518      1.0  0.02696  0.82902  0.02791  1.0000
  C   C519      1.0  0.98707  0.88703  0.76210  1.0000
  Fe  Fe60      1.0  0.99385  0.77824  0.78637  1.0000
  S   S117      1.0  0.98372  0.81413  0.82693  1.0000
  Fe  Fe61      1.0  0.93051  0.74832  0.77557  1.0000
  S   S118      1.0  0.91591  0.78229  0.81422  1.0000
  S   S119      1.0  0.89995  0.71090  0.74217  1.0000
  Fe  Fe62      1.0  0.93487  0.81307  0.77085  1.0000
  S   S120      1.0  0.90454  0.84943  0.72617  1.0000
  Fe  Fe63      1.0  0.96596  0.77938  0.86652  1.0000
  S   S121      1.0  0.97304  0.76816  0.94524  1.0000
  S   S122      1.0  0.94611  0.77920  0.72875  1.0000
  S   S123      1.0  0.97963  0.74353  0.82953  1.0000
  S   S124      1.0  0.68280  0.69018  0.71146  1.0000
  S   S125      1.0  0.64986  0.71085  0.57660  1.0000
  H   H927      1.0  0.54550  0.73189  0.55418  1.0000
  C   C520      1.0  0.91825  0.69982  0.89316  1.0000
  C   C521      1.0  0.01493  0.92531  0.64071  1.0000
  H   H928      1.0  0.81165  0.79734  0.61511  1.0000
  H   H929      1.0  0.99970  0.89848  0.57843  1.0000
  H   H930      1.0  0.83300  0.68168  0.87266  1.0000
  C   C522      1.0  0.86281  0.70570  0.74873  1.0000
  C   C523      1.0  0.85068  0.72505  0.77251  1.0000
  C   C524      1.0  0.82169  0.71982  0.77901  1.0000
  H   H931      1.0  0.62169  0.86851  0.97790  1.0000
  H   H932      1.0  0.86379  0.74386  0.78649  1.0000
  H   H933      1.0  0.81275  0.73459  0.79837  1.0000
  C   C525      1.0  0.90728  0.85346  0.66828  1.0000
  C   C526      1.0  0.93399  0.84336  0.66010  1.0000
  C   C527      1.0  0.93639  0.84675  0.61433  1.0000
  C   C528      1.0  0.91198  0.85986  0.57595  1.0000
  C   C529      1.0  0.88506  0.86995  0.58371  1.0000
  C   C530      1.0  0.88283  0.86692  0.63003  1.0000
  H   H934      1.0  0.95328  0.83351  0.68929  1.0000
  H   H935      1.0  0.95750  0.83944  0.60898  1.0000
  H   H936      1.0  0.86622  0.88037  0.55430  1.0000
  H   H937      1.0  0.86219  0.87499  0.63623  1.0000
  C   C531      1.0  0.83627  0.78952  0.63428  1.0000
  H   H938      1.0  0.55477  0.68633  0.63738  1.0000
  C   C532      1.0  0.58026  0.71748  0.73922  1.0000
  C   C533      1.0  0.60108  0.69539  0.73841  1.0000
  C   C534      1.0  0.84521  0.68151  0.73015  1.0000
  C   C535      1.0  0.56655  0.75777  0.91363  1.0000
  H   H939      1.0  0.80879  0.78036  0.54038  1.0000
  C   C536      1.0  0.99649  0.90526  0.72514  1.0000
  H   H940      1.0  0.78222  0.74317  0.55674  1.0000
  H   H941      1.0  0.93351  0.72505  0.66200  1.0000
  H   H942      1.0  0.00346  0.94121  0.65636  1.0000
  H   H943      1.0  0.72303  0.84506  0.50289  1.0000
  H   H944      1.0  0.82548  0.76282  0.69016  1.0000
  H   H945      1.0  0.90796  0.75615  0.89877  1.0000
  H   H946      1.0  0.96880  0.89846  0.77192  1.0000
  H   H947      1.0  0.87673  0.80109  0.55671  1.0000
  H   H948      1.0  0.02061  0.79682  0.53081  1.0000
  H   H949      1.0  0.75303  0.71328  0.59639  1.0000
  H   H950      1.0  0.90409  0.70860  0.85643  1.0000
  C   C537      1.0  0.98084  0.80472  0.55155  1.0000
  H   H951      1.0  0.97728  0.94739  0.55038  1.0000
  C   C538      1.0  0.53751  0.73637  0.58469  1.0000
  H   H952      1.0  0.01829  0.85812  0.62068  1.0000
  H   H953      1.0  0.97854  0.85505  0.50102  1.0000
  H   H954      1.0  0.95477  0.80681  0.53715  1.0000
  H   H955      1.0  0.54675  0.79692  0.92699  1.0000
  H   H956      1.0  0.55029  0.75770  0.87563  1.0000
  C   C539      1.0  0.96522  0.93170  0.56719  1.0000
  C   C540      1.0  0.57307  0.77468  0.99697  1.0000
  C   C541      1.0  0.60222  0.86465  0.99229  1.0000
  H   H957      1.0  0.89221  0.75221  0.56390  1.0000
  H   H958      1.0  0.85917  0.72309  0.93208  1.0000
  C   C542      1.0  0.77929  0.71225  0.61049  1.0000
  H   H959      1.0  0.94271  0.75704  0.63314  1.0000
  H   H960      1.0  0.95253  0.94315  0.58722  1.0000
  S   S126      1.0  0.77128  0.68721  0.77818  1.0000
  H   H961      1.0  0.99043  0.82535  0.56640  1.0000
  C   C543      1.0  0.88939  0.75462  0.91522  1.0000
  H   H962      1.0  0.78433  0.75746  0.61322  1.0000
  H   H963      1.0  0.88315  0.72104  0.59434  1.0000
  H   H964      1.0  0.83813  0.75811  0.53297  1.0000
  C   C544      1.0  0.80455  0.69523  0.76181  1.0000
  C   C545      1.0  0.55828  0.71324  0.76284  1.0000
  C   C546      1.0  0.00944  0.81384  0.98763  1.0000
  H   H965      1.0  0.87472  0.79867  0.89403  1.0000
  C   C547      1.0  0.83997  0.78150  0.68740  1.0000
  C   C548      1.0  0.71980  0.78600  0.54473  1.0000
  H   H966      1.0  0.78714  0.70911  0.65029  1.0000
  H   H967      1.0  0.58061  0.87586  0.96768  1.0000
  C   C549      1.0  0.98895  0.91014  0.60081  1.0000
  H   H968      1.0  0.97559  0.89499  0.61605  1.0000
  C   C550      1.0  0.87549  0.72421  0.91105  1.0000
  H   H969      1.0  0.88693  0.75187  0.66515  1.0000
  C   C551      1.0  0.82910  0.73858  0.61228  1.0000
  H   H970      1.0  0.97711  0.86646  0.74726  1.0000
  S   S127      1.0  0.91680  0.86346  0.51953  1.0000
  H   H971      1.0  0.86506  0.77654  0.70896  1.0000
  H   H972      1.0  0.83892  0.72929  0.64988  1.0000
  C   C552      1.0  0.81613  0.67625  0.73666  1.0000
  H   H973      1.0  0.55855  0.73847  0.61778  1.0000
  C   C553      1.0  0.55697  0.68649  0.78508  1.0000
  C   C554      1.0  0.64717  0.70314  0.51796  1.0000
  C   C555      1.0  0.89466  0.74211  0.59969  1.0000
  H   H974      1.0  0.00492  0.87204  0.68462  1.0000
  C   C556      1.0  0.92983  0.73660  0.62677  1.0000
  H   H975      1.0  0.73125  0.77262  0.62021  1.0000
  H   H976      1.0  0.89297  0.78226  0.63234  1.0000
  H   H977      1.0  0.97963  0.76150  0.58145  1.0000
  C   C557      1.0  0.99013  0.78245  0.59359  1.0000
  H   H978      1.0  0.00547  0.82273  0.95159  1.0000
  H   H979      1.0  0.84356  0.82178  0.55795  1.0000
  H   H980      1.0  0.84493  0.77667  0.90564  1.0000
  C   C558      1.0  0.88028  0.76158  0.62803  1.0000
  H   H981      1.0  0.73454  0.76887  0.53902  1.0000
  H   H982      1.0  0.78710  0.69365  0.59538  1.0000
  Fe  Fe64      1.0  0.67271  0.67740  0.63568  1.0000
  H   H983      1.0  0.97463  0.91110  0.69437  1.0000
  H   H984      1.0  0.00789  0.88260  0.79525  1.0000
  H   H985      1.0  0.86030  0.72266  0.87283  1.0000
  H   H986      1.0  0.52860  0.76478  0.93963  1.0000
  H   H987      1.0  0.93981  0.72332  0.60530  1.0000
  C   C559      1.0  0.79255  0.73996  0.59648  1.0000
  H   H988      1.0  0.78122  0.83800  0.51915  1.0000
  C   C560      1.0  0.85060  0.80293  0.54256  1.0000
  C   C561      1.0  0.83463  0.77570  0.55465  1.0000
  N   N31       1.0  0.84500  0.76635  0.60724  1.0000
  C   C562      1.0  0.01962  0.88867  0.70696  1.0000
  H   H989      1.0  0.73476  0.80511  0.55498  1.0000
  H   H990      1.0  0.93841  0.71475  0.90583  1.0000
  C   C563      1.0  0.86398  0.77717  0.88981  1.0000
  H   H991      1.0  0.85360  0.77356  0.85069  1.0000
  H   H992      1.0  0.91569  0.80468  0.99573  1.0000
  C   C564      1.0  0.70997  0.77642  0.58753  1.0000
  H   H993      1.0  0.85125  0.80861  0.63533  1.0000
  H   H994      1.0  0.69496  0.79298  0.59498  1.0000
  H   H995      1.0  0.84235  0.82566  0.70837  1.0000
  H   H996      1.0  0.83340  0.80008  0.74898  1.0000
  H   H997      1.0  0.58150  0.73811  0.72204  1.0000
  H   H998      1.0  0.83439  0.72221  0.59016  1.0000
  H   H999      1.0  0.80342  0.81030  0.69207  1.0000
  H   H1000     1.0  0.61806  0.69908  0.72048  1.0000
  C   C565      1.0  0.82908  0.80596  0.71042  1.0000
  H   H1001     1.0  0.89972  0.76004  0.95352  1.0000
  H   H1002     1.0  0.69668  0.75618  0.58020  1.0000
  H   H1003     1.0  0.57093  0.73530  0.92815  1.0000
  H   H1004     1.0  0.94743  0.92039  0.53801  1.0000
  C   C566      1.0  0.93146  0.67052  0.88558  1.0000
  S   S128      1.0  0.53379  0.74219  0.76507  1.0000
  H   H1005     1.0  0.58916  0.76742  0.91403  1.0000
  N   N32       1.0  0.89910  0.69970  0.92633  1.0000
  C   C567      1.0  0.99458  0.79688  0.51240  1.0000
  H   H1006     1.0  0.90242  0.84052  0.97172  1.0000
  H   H1007     1.0  0.54031  0.68302  0.80366  1.0000
  C   C568      1.0  0.95713  0.67419  0.86311  1.0000
  H   H1008     1.0  0.86154  0.67344  0.84519  1.0000
  C   C569      1.0  0.55160  0.77485  0.94312  1.0000
  H   H1009     1.0  0.98855  0.77445  0.50278  1.0000
  H   H1010     1.0  0.98146  0.78942  0.62221  1.0000
  C   C570      1.0  0.65686  0.67670  0.50774  1.0000
  C   C571      1.0  0.88054  0.67267  0.92490  1.0000
  H   H1011     1.0  0.67924  0.81220  0.50707  1.0000
  C   C572      1.0  0.99668  0.78742  0.99419  1.0000
  H   H1012     1.0  0.93343  0.72432  0.97970  1.0000
  C   C573      1.0  0.92013  0.70410  0.97759  1.0000
  H   H1013     1.0  0.93808  0.82586  0.96699  1.0000
  H   H1014     1.0  0.01849  0.84715  0.50997  1.0000
  H   H1015     1.0  0.94766  0.68606  0.82769  1.0000
  H   H1016     1.0  0.96414  0.68187  0.98436  1.0000
  H   H1017     1.0  0.00654  0.92510  0.74258  1.0000
  H   H1018     1.0  0.97753  0.68584  0.88719  1.0000
  H   H1019     1.0  0.59774  0.77776  0.99842  1.0000
  H   H1020     1.0  0.54385  0.68006  0.57496  1.0000
  H   H1021     1.0  0.54725  0.83530  0.98514  1.0000
  C   C574      1.0  0.53402  0.68345  0.60409  1.0000
  C   C575      1.0  0.92343  0.82667  0.99036  1.0000
  H   H1022     1.0  0.59124  0.82455  0.95913  1.0000
  C   C576      1.0  0.59657  0.83260  0.99570  1.0000
  H   H1023     1.0  0.86924  0.67250  0.95299  1.0000
  H   H1024     1.0  0.01623  0.77996  0.60960  1.0000
