data_image0
_chemical_formula_structural       FeSCSH2SHFeCFeSC2H2C2H2CH3FeS2FeS2CHCH2CSCH2C5H3CS2HFeHCSH2NC3H2C2H6CSHFeC7H4C6H10NC2HC4H17FeH4C2H3CH3CH4CH2NC2HSC2H2CH7C2H5CH5C2NC5H2CHC3H5SHCH3C2H4CH2CH2CH3CHCH7CFeH3C2HSC2HCH2SHCH2CH6FeHCHSHC2H2CHCS2H2CFeCFeSFeS2FeHC2H3C2SH2CHFeS2FeS2FeSH2S2FeSFeS2FeCFeS3C2SH2C2H7CHC6H5C3HC2H8C2HCHCNC6H6C2H3C2HCHCH4CHCHCHNCHC2H9CHFeCHNH2CHCHCHCHC2HNHC2HSCHSCFeCH3CH2CH5CNCHCH4CHNCHC5HCHCH15CH3CH4NC12H17SH16CHCHCH11C2H6C2H3SH3C2HCHCHCH2CH3CHCHC2H4CHCHC2HCHCHCHNCHCHCSHC3FeS2FeS2FeSFeS3FeS2FeS2FeSFeS3FeHSFeS2FeHSHCHC6H4C6H4C4H2C6H4CHC4H4C5H4CHCH4C2H6CH13CH2CHCFeHSC2HCNH2SC2H2C2H4C3H4CH2CH4CH5C2H2C3HC2H5CH2C2HNCH4CH4CH2CH3CH2CH2CH4CHC4H4CHNHSH2C2H7C2NH3C2H2C2H2CHCH3CH3CH4C2H4CH3CFeCHC2H6CH3CH2CH2CHCH2CHCH2C2H3CHNH4C2HC2S2HFeSCFe2S3CFeSFeCSH3S2HCHCHCH3C2H2CHC2HC6H4C2HCHNC12H17CHSCH4CHNSH4FeH2C3HCHSC2H2CSH3CH2CHSH3CHSHCHCH4CHCHCNHC2H2FeC2H3CH5SHCH8CHCH5SH3C2SFeH2CH3C2HCHCSCH6FeHCH2CH2CH6CH10C2H2CH2CH2CNC8HCH2SNHC2H3C2H2FeH3SNH6C2SH6CH16CH4CH5CFe2S2FeSFeCS3FeS2FeS2FeSFeHS2C6H2CHC6H4C6H5C5H3SFeC2HCH2SHC3H3CHSH3SFeNC6HC4H12C2H11SCHCHCH3FeCSHCH3C2H4C2HC3HFeH8CHNC5SC5H26CHCHSCH4SFeH13CH3NC7H2C3H9CH11CH2CH8C6SC2HNH4C2NH5CSHCH3CH2CSC2SCH2C2SHSCH2CH2CH4SH2C2SHCH2CH3C2HCH3CH2CH2CH2C2HCH10C2H2C4FeS2FeS2FeSFeS3FeS2FeS2FeHFeS3FeS2H3SFeSHSCHCHC4H5C6H4C6H4CH3SCNCH6CHCH2C3HCH4CH2C2H6CHCHC2FeCNCH2C2HCH2CNC12H28CH2C3H2NC2HCHCH19NCH3CH3CHNHCHC2H2C3H2CH5SH3CH2CH5C2H8C2H2C3HCH2CH2NC3HCH4CHC2H2C3H3CH2CH2CH2CH5CHCH3C2HC2H6CH2CH2C2H3CHCH3C2H2C2H2SH2CHC2H3CHNHFeS2FeS2FeHFe2S2FeS2CHCSH2S2CFeCH2CH3C7H4SH3FeC7H12CHC2FeH4C3H2FeCHNHCH5CH3SNH2SH4CH2CH2CH3CSHSHCHCH2CFeHCHCHCHSNC12H27CH2C3HC2H7CH2CH2CH5CHCH2CH2SH2FeSCFeS2FeCFeSCSFeS2FeS2FeSFeS3H6CH2C4H5C2H4CHC6H5CH2C2HCH3C2H11C2HCH3CH3CH2CH2CH2CHCHC2HCH3NC2SCH3CH2CH4CNCH5CH4C4H2CH4CSH9CSC2HCHCH2CSH2CNC10HCH20SH3CH3NCHC2HC2H4CNH2CHC3H6C2FeH3NH4C2H2CHSFeH2C2H3SH2CHCHCH2CH5C3HC2H2CH3CHCH9FeS2FeS3HSHFe2HSH2FeHS3HSFeC7H3CH2FeCHNSC6H5CHCH2CH5SH3C6H5C2H2CNHSC2H5CSH2C2HCHC2H5CH2FeHC4HCNSH15CHS2H2C2HNH2CH7CHCH2CHCH2CH3CHNC12H14CH2CH3CHCHCH2CH2C3HCH4CHCH5CH3CHC2HCH2NC3HCH3CFeCHCH2NH2SHFeS2FeS2FeSFeS3CNC2HFe2H3C6H2NH2C3H4SCH4NCH2CH2CHCHCH3CHCH2CH4SC2H2CH2CHCHC2HCH2CH2CH3CH3SCHC3HC3HC2H2CH2SHCHC2HCHFe2C2H2CH4CH3CH3CH6SHC2H4CH2CH4CH9CH2C3HCHCH4CH2CH4CH5CH2C2H3CHCNSHCH2CH2C2H3CH4CH3CHCHSH2SH3CH3CFe2S2FeS2FeHFeS3HSFeS2FeSFeS2H2SH2C6H4CHC2HCH4C6H4CH4C6H8CSHCHCH3CH3CHCHCH6CHCH4NSCHC2HSCH2CHSNC12H13CH12CH4CHSCH2SHCH3C2HFeC4H4NC9H23CH3CH2CH5CHC2H7CH4CNC5HC4HC2HFeHCSCH3CHSH2CH2CH2CH5CHCHFeS2FeS2FeSFeS3FeS2FeS2FeSFeHS2HFeS2H5C2HSH5CFeHC2H7SCHC6H8CH2CH2C3H4C6H4C2H3CHC3H2CHC2HC2H3C3H2CNCH5C4HC3HCHCSCHC4H2CH6CH2C3H2C2HCH4CH2CHCHCHNHCH2CH2CH4CH2CHNCHC2HC2H2C3H16CHNCH7C4H3CH3CHCH2C2HCH2C2HNH2CH10CH5CH2CH2CH10C2H3CHC4H4C2H2FeS2FeS2FeSFeS3H2C2SHCH2CFeS2FeSCFeSFeS3FeHSFeHSFeSCSHSHCHC6H4CH2C3H4C6H4C6H2SH2C3H3CH2C5SH2NHCH2SCH5CH3C2H3NC12H20SH4CH5C3HCHC2HCH2CH2CHC2H3C2H2CH7CNH3C3H2CH2C2HCH5C2SC2H9CH6CHCHSCH2CHCH2CH3C2H2C3H2CHCH2NC12H18SCH2NH5CH4CNH2C2HCSCHCFeH4CH6C2H4NH2CH2SHCH4SHSHFeS2FeCFeSHSH2Fe3CSH4S2H4SH6C6H5SC2HFeHCH2C6H4CHCH3NC5HC6H10CH8CHSH6SH2C2FeH3SC2H2C2HCHCH2CH5CH2SHC4NHC9H18CHCHNCH2C4H6CH4CSH2CSHCHFeHCH2C3H4SH7C2FeH3SH2CHCSHFeCHCH3FeHFeS2H3CHFeSHS2HFeS2HCHCSNH3SH3C2H2FeC2H2C4H2C6H5FeHCH2CH2CSH2C2H3SCHFeH2CH4C2H3CH2C5H2CH5CSHCHCH9SHC4H2CSH3C2HC4HC2H3SH7C5H2SNHC3H2SH9CH3FeCH2CSHFeNC5HC4HCH11SH2CH9FeH3CH4C2SCFeH3CHCNC5H3C3HCHCH8CSHSNCH8CH4CH2CHSH2SH2SHCHCH2C2H2CSCH3FeS2FeSFeHFeHS2FeS2CHFeHFeSCSH2CH5SFeS2FeSFeS3HCH2CH5C6SH5NH2CNCHC7H6C2H2CHCH4CHC7H2C2H2CH3C2HCHC2SCHCH2CHCH3CH5C3H9NC3HCFeC3HC2HCH4CH3C2H8CH8C5H13C2H5CH2CHSHCH2CH2FeHCHCHSHSCHCHCHCNH2CHC2H2SH7NHCH3CH4C2H3CHCHC2HCH9CFeCH3CFeS2FeS2FeHFeHS2CSCFeS2HFeSCSCH2C6H6CHC2H3SC6H3NFeHCH3CSCH2CH4SNCH12CH6FeH4C2H2C2H3C2H5C2H3C2NH2C3HC2HC5H14FeH2SCHC3HCH2CH5CFe2S2FeS2FeSFeS3FeS2FeS2FeSH2S2C2H3C2HCH3C2H2SHC8H4C2H2C5H2Fe2HC3HSC2H2CH2CHCH4CH2C3HCHCNC6H3CH10CH6CH4CH2CHC2H4CNCH3C2H6CHCHCHC2H4FeCHCHC2HSCH2CH2S2H2NH5CH3CH8CH2CH10CH5CH2CH2CH3CHCH4NH3NC4HC4HC2H2CH7CH4C4HCH2C2H5CH2C2H2CH5FeS2FeS2Fe2S3H3CH5Fe2CSFeSFeHFeHS2H2C2H4C2NCSC6H4C6H7CSHC5H3C3H4CFeHCSH3CHNC10H23C2H3C2HSHCH5CH4C2HCHCHSHC3HCHCHC2HNCH6CH4CHCH3C2H4SHC3HSHCHFeNC6H10CH4CSHCNC3H2C2H3CH3FeCH5CH5CH2FeS2H7SCHCSHCH6C2HCFeCHCH2CHCHCH6FeH3CH2CH4SCHC3H2NH2C2SHCSHCHCS2H5CFeS2H2FeSFeS2FeSFeS3HFeHSFeCSCHCHCSH5CH3C3H3CH2CHC8H5CSHCH4C6H5CH4CH7CHCH2C2H5CH7CH2S2HSH4NHC2H4SCHCH2SH3CH4CH5CH2CH2CHNC6H4CH7CH2CH3CHCH3C2H2FeC2HCNC12H3CH3NH4CH4C2H3CH2CH2C3H2CH4CH6C2HSHCHSHCH2NH3FeHCHCH3CHCHFeHCH2NH6NHCSFeS2FeS2FeHFeS3HCHS2FeS2FeSFeSH2C6H6CHCSC2H2C6H4C6H5C3H4CHFeHCH5C5H3CHNC5HCH8CH2CH2CH2CH2CH2CHCH2CHFeH3FeH2CH3CHC2HFeHC2SH2NHC3HC4SH11CHCH4CH2CH4CH2SHCHCH7CH5NH2CH2CNH2CSCHCH6C2H5C2H7CHC3H4CH2CH2C3H2SHSH7CHSHC3H2SH7CH2C2HC2H4CH4SFeS2FeSFeS3H2CH2CH2C3FeS2FeS2FeSFeS3C4HCH5C3H5CHC6H4C6H6C3HCH2CH4C3H3CH15C2HFeCH2CHCHCH2SH3C3H3CHC2H4SH3CH2FeH4CH2NC7H6CH5C2H6NC7HCH14C3H4SCH4C2HC2H2CH2CH7NH6CH2C2H3CH2CH2C2HCH2CHC2SHCH7NH3CH2CH2CH3CH3CHCNH5CH3CNH6CNCH4CH2FeS2H3CH3S2CFeSC4H2CHCH2FeS2FeHFeSCHS2H2C5H3CHC2H2SC5H3CHC2H3C7H3C3HC2H2CH2SH4C4HC3FeHC2H2CHC3HSC2H5CH4CH2CSCH2C2NHC3H3CHCH2SHCFeH7FeH2CHNH2C2HCNC4HC2H2C2H16SHC3H5NCHCHC3H2CH2SH3CH8SH2CH8CHSHNH2C3H5CHC2HCH6FeH11SHCH2CHFeH4FeS2FeS2FeSFeS3FeC2HC3HCH2C2HC4H6CHC2H2CHC2H7CH4CHC2H3C3H5CHC3H5CHC2H3C2HCHCH3C4H4CH2SHC2HCH7CH2CHC5H2CHC2HNHSCSNCHCH8CHCH4FeCHSHCHNC9H2CH20CH8C2NH12C3NH7CHCHC2H2C3NHCH2C3H7C2H2C2
_chemical_formula_sum              "Fe256 S512 C2304 H4096 N128"
_cell_length_a       66.7865
_cell_length_b       67.0013
_cell_length_c       67.4053
_cell_angle_alpha    74.39
_cell_angle_beta     74.8042
_cell_angle_gamma    75.032

_space_group_name_H-M_alt    "P 1"
_space_group_IT_number       1

loop_
  _space_group_symop_operation_xyz
  'x, y, z'

loop_
  _atom_site_type_symbol
  _atom_site_label
  _atom_site_symmetry_multiplicity
  _atom_site_fract_x
  _atom_site_fract_y
  _atom_site_fract_z
  _atom_site_occupancy
  Fe  Fe1       1.0  0.32686  0.15522  0.16939  1.0000
  S   S1        1.0  0.29604  0.16530  0.15836  1.0000
  C   C1        1.0  0.42200  0.13502  0.01120  1.0000
  S   S2        1.0  0.24235  0.28339  0.17103  1.0000
  H   H1        1.0  0.15613  0.29691  0.04970  1.0000
  H   H2        1.0  0.30146  0.18934  0.23262  1.0000
  S   S3        1.0  0.21607  0.28552  0.13448  1.0000
  H   H3        1.0  0.43891  0.08911  0.08746  1.0000
  Fe  Fe2       1.0  0.20850  0.28933  0.16799  1.0000
  C   C2        1.0  0.26005  0.18849  0.22343  1.0000
  Fe  Fe3       1.0  0.24971  0.28300  0.13665  1.0000
  S   S4        1.0  0.27954  0.26379  0.12113  1.0000
  C   C3        1.0  0.99459  0.30031  0.99304  1.0000
  C   C4        1.0  0.42972  0.10531  0.08254  1.0000
  H   H4        1.0  0.16957  0.26751  0.15029  1.0000
  H   H5        1.0  0.21978  0.29819  0.21416  1.0000
  C   C5        1.0  0.39186  0.23234  0.20478  1.0000
  C   C6        1.0  0.05914  0.31568  0.99979  1.0000
  H   H6        1.0  0.42022  0.12662  0.05540  1.0000
  H   H7        1.0  0.37236  0.16625  0.22009  1.0000
  C   C7        1.0  0.32726  0.27403  0.18395  1.0000
  H   H8        1.0  0.33723  0.29476  0.13755  1.0000
  H   H9        1.0  0.15090  0.26123  0.12550  1.0000
  H   H10       1.0  0.27898  0.15673  0.20053  1.0000
  Fe  Fe4       1.0  0.42327  0.02662  0.08080  1.0000
  S   S5        1.0  0.45471  0.03592  0.06548  1.0000
  S   S6        1.0  0.39318  0.04932  0.09076  1.0000
  Fe  Fe5       1.0  0.45490  0.01830  0.04145  1.0000
  S   S7        1.0  0.46687  0.03091  0.00701  1.0000
  S   S8        1.0  0.35853  0.16041  0.14943  1.0000
  C   C8        1.0  0.32522  0.28473  0.14551  1.0000
  H   H11       1.0  0.23560  0.17131  0.22800  1.0000
  C   C9        1.0  0.26520  0.30901  0.20593  1.0000
  H   H12       1.0  0.08929  0.29319  0.99900  1.0000
  H   H13       1.0  0.41470  0.15270  0.23481  1.0000
  C   C10       1.0  0.32817  0.30029  0.20463  1.0000
  S   S9        1.0  0.39849  0.10395  0.15202  1.0000
  C   C11       1.0  0.01716  0.30375  0.98901  1.0000
  H   H14       1.0  0.21857  0.23892  0.03052  1.0000
  H   H15       1.0  0.18072  0.24424  0.08085  1.0000
  C   C12       1.0  0.17889  0.27395  0.10659  1.0000
  C   C13       1.0  0.18956  0.20635  0.21943  1.0000
  C   C14       1.0  0.37495  0.06483  0.03825  1.0000
  C   C15       1.0  0.19079  0.25629  0.07671  1.0000
  C   C16       1.0  0.37411  0.98942  0.06805  1.0000
  H   H16       1.0  0.19741  0.22840  0.04985  1.0000
  H   H17       1.0  0.25615  0.15269  0.17862  1.0000
  H   H18       1.0  0.27415  0.19259  0.21142  1.0000
  C   C17       1.0  0.28984  0.10964  0.22066  1.0000
  S   S10       1.0  0.37921  0.19698  0.17167  1.0000
  S   S11       1.0  0.37684  0.13769  0.19233  1.0000
  H   H19       1.0  0.27865  0.22747  0.18314  1.0000
  Fe  Fe6       1.0  0.36212  0.17037  0.17740  1.0000
  H   H20       1.0  0.25661  0.26145  0.21230  1.0000
  C   C18       1.0  0.24509  0.14556  0.19267  1.0000
  S   S12       1.0  0.33874  0.12109  0.18361  1.0000
  H   H21       1.0  0.21949  0.28140  0.07443  1.0000
  H   H22       1.0  0.17508  0.31020  0.07552  1.0000
  N   N1        1.0  0.17799  0.27625  0.08387  1.0000
  C   C19       1.0  0.25017  0.17419  0.21631  1.0000
  C   C20       1.0  0.23502  0.13080  0.18588  1.0000
  C   C21       1.0  0.29876  0.31652  0.13173  1.0000
  H   H23       1.0  0.30546  0.30947  0.16239  1.0000
  H   H24       1.0  0.20655  0.30139  0.08924  1.0000
  C   C22       1.0  0.30418  0.30037  0.15139  1.0000
  C   C23       1.0  0.38079  0.99511  0.12973  1.0000
  H   H25       1.0  0.38215  0.18065  0.23304  1.0000
  H   H26       1.0  0.37121  0.00600  0.06991  1.0000
  H   H27       1.0  0.38650  0.00475  0.09618  1.0000
  H   H28       1.0  0.20386  0.24876  0.08544  1.0000
  H   H29       1.0  0.31194  0.30936  0.20332  1.0000
  H   H30       1.0  0.19563  0.27053  0.10830  1.0000
  C   C24       1.0  0.18579  0.25012  0.20337  1.0000
  S   S13       1.0  0.42252  0.01116  0.05538  1.0000
  H   H31       1.0  0.21073  0.24188  0.17749  1.0000
  Fe  Fe7       1.0  0.46836  0.00401  0.08345  1.0000
  C   C25       1.0  0.21044  0.23687  0.04736  1.0000
  C   C26       1.0  0.39602  0.08825  0.13596  1.0000
  C   C27       1.0  0.41331  0.07233  0.13026  1.0000
  C   C28       1.0  0.41244  0.06014  0.11661  1.0000
  C   C29       1.0  0.39425  0.06384  0.10856  1.0000
  C   C30       1.0  0.37684  0.07960  0.11439  1.0000
  C   C31       1.0  0.37769  0.09178  0.12811  1.0000
  H   H32       1.0  0.42752  0.06955  0.13629  1.0000
  H   H33       1.0  0.42592  0.04799  0.11227  1.0000
  H   H34       1.0  0.36271  0.08250  0.10821  1.0000
  H   H35       1.0  0.16603  0.24064  0.15602  1.0000
  C   C32       1.0  0.29111  0.19256  0.14755  1.0000
  C   C33       1.0  0.30772  0.20227  0.13500  1.0000
  C   C34       1.0  0.30386  0.22412  0.12664  1.0000
  C   C35       1.0  0.28351  0.23640  0.13121  1.0000
  C   C36       1.0  0.26685  0.22677  0.14386  1.0000
  C   C37       1.0  0.27061  0.20477  0.15178  1.0000
  H   H36       1.0  0.32351  0.19292  0.13157  1.0000
  H   H37       1.0  0.31675  0.23154  0.11684  1.0000
  H   H38       1.0  0.25111  0.23623  0.14742  1.0000
  H   H39       1.0  0.25773  0.19729  0.16149  1.0000
  H   H40       1.0  0.47965  0.07410  0.99425  1.0000
  H   H41       1.0  0.37387  0.00537  0.01418  1.0000
  H   H42       1.0  0.39800  0.15706  0.99503  1.0000
  H   H43       1.0  0.21334  0.20309  0.19119  1.0000
  H   H44       1.0  0.06618  0.28133  0.01008  1.0000
  H   H45       1.0  0.34999  0.99928  0.04881  1.0000
  N   N2        1.0  0.33297  0.26745  0.16309  1.0000
  C   C38       1.0  0.32459  0.24779  0.16584  1.0000
  C   C39       1.0  0.35687  0.26157  0.15709  1.0000
  H   H46       1.0  0.19165  0.24671  0.14314  1.0000
  C   C40       1.0  0.36602  0.25140  0.13758  1.0000
  C   C41       1.0  0.30051  0.24898  0.17433  1.0000
  C   C42       1.0  0.29569  0.22672  0.18192  1.0000
  C   C43       1.0  0.39007  0.24917  0.13112  1.0000
  H   H47       1.0  0.33079  0.26001  0.19677  1.0000
  H   H48       1.0  0.32792  0.24287  0.15059  1.0000
  H   H49       1.0  0.33311  0.23435  0.17633  1.0000
  H   H50       1.0  0.36332  0.25048  0.17052  1.0000
  H   H51       1.0  0.36396  0.27574  0.15374  1.0000
  H   H52       1.0  0.32342  0.27771  0.13298  1.0000
  H   H53       1.0  0.35906  0.26105  0.12392  1.0000
  H   H54       1.0  0.36274  0.23524  0.14114  1.0000
  H   H55       1.0  0.29398  0.25688  0.18775  1.0000
  H   H56       1.0  0.29196  0.25763  0.16149  1.0000
  H   H57       1.0  0.32737  0.28763  0.21921  1.0000
  H   H58       1.0  0.29979  0.21929  0.19754  1.0000
  H   H59       1.0  0.35542  0.28333  0.18668  1.0000
  H   H60       1.0  0.39619  0.24139  0.11749  1.0000
  H   H61       1.0  0.22208  0.22715  0.05710  1.0000
  H   H62       1.0  0.39767  0.23918  0.14429  1.0000
  H   H63       1.0  0.11821  0.30165  0.06832  1.0000
  Fe  Fe8       1.0  0.37079  0.12725  0.16589  1.0000
  H   H64       1.0  0.12330  0.29009  0.04584  1.0000
  H   H65       1.0  0.39720  0.03547  0.99326  1.0000
  H   H66       1.0  0.14553  0.29332  0.08986  1.0000
  H   H67       1.0  0.38256  0.04945  0.04711  1.0000
  C   C44       1.0  0.21824  0.31347  0.05654  1.0000
  C   C45       1.0  0.20163  0.25853  0.05301  1.0000
  H   H68       1.0  0.23973  0.14652  0.15263  1.0000
  H   H69       1.0  0.30085  0.12050  0.21773  1.0000
  H   H70       1.0  0.28444  0.12417  0.18924  1.0000
  C   C46       1.0  0.37683  0.21063  0.19131  1.0000
  H   H71       1.0  0.43723  0.11675  0.08581  1.0000
  H   H72       1.0  0.02145  0.31358  0.05128  1.0000
  H   H73       1.0  0.24937  0.23992  0.20640  1.0000
  C   C47       1.0  0.26565  0.15301  0.21381  1.0000
  H   H74       1.0  0.39451  0.12374  0.03254  1.0000
  H   H75       1.0  0.29607  0.30847  0.12051  1.0000
  H   H76       1.0  0.40213  0.09786  0.06300  1.0000
  H   H77       1.0  0.37739  0.02055  0.03094  1.0000
  C   C48       1.0  0.40852  0.11760  0.02098  1.0000
  H   H78       1.0  0.34124  0.23077  0.23118  1.0000
  H   H79       1.0  0.21513  0.26663  0.04932  1.0000
  N   N3        1.0  0.25633  0.13598  0.21081  1.0000
  C   C49       1.0  0.30309  0.08780  0.21826  1.0000
  C   C50       1.0  0.22673  0.25323  0.23105  1.0000
  H   H80       1.0  0.31491  0.08291  0.22848  1.0000
  S   S14       1.0  0.43686  0.99626  0.10103  1.0000
  C   C51       1.0  0.22659  0.14206  0.16586  1.0000
  C   C52       1.0  0.20222  0.21404  0.20005  1.0000
  H   H81       1.0  0.35768  0.06755  0.04509  1.0000
  H   H82       1.0  0.40191  0.11635  0.00789  1.0000
  C   C53       1.0  0.15499  0.27958  0.08285  1.0000
  H   H83       1.0  0.19076  0.26784  0.04245  1.0000
  H   H84       1.0  0.29282  0.07594  0.22310  1.0000
  H   H85       1.0  0.33747  0.00224  0.08928  1.0000
  H   H86       1.0  0.24653  0.11631  0.18255  1.0000
  H   H87       1.0  0.48476  0.11451  0.03245  1.0000
  H   H88       1.0  0.23507  0.10130  0.22216  1.0000
  H   H89       1.0  0.40949  0.07868  0.01389  1.0000
  C   C54       1.0  0.44606  0.08814  0.99703  1.0000
  C   C55       1.0  0.17432  0.25265  0.14435  1.0000
  H   H90       1.0  0.21719  0.26352  0.21954  1.0000
  H   H91       1.0  0.31001  0.28013  0.18849  1.0000
  H   H92       1.0  0.27269  0.14726  0.22793  1.0000
  H   H93       1.0  0.36433  0.10406  0.13241  1.0000
  H   H94       1.0  0.40502  0.23932  0.20406  1.0000
  C   C56       1.0  0.37294  0.23654  0.21935  1.0000
  H   H95       1.0  0.30489  0.21648  0.17079  1.0000
  H   H96       1.0  0.17134  0.28908  0.11174  1.0000
  H   H97       1.0  0.17345  0.24122  0.11771  1.0000
  H   H98       1.0  0.14818  0.26566  0.09243  1.0000
  H   H99       1.0  0.33899  0.30383  0.17102  1.0000
  C   C57       1.0  0.39380  0.21944  0.19087  1.0000
  C   C58       1.0  0.38169  0.16452  0.23210  1.0000
  N   N4        1.0  0.41960  0.09607  0.03117  1.0000
  C   C59       1.0  0.44243  0.09022  0.02020  1.0000
  C   C60       1.0  0.41874  0.09473  0.05414  1.0000
  C   C61       1.0  0.40830  0.07947  0.03043  1.0000
  C   C62       1.0  0.20832  0.29689  0.07408  1.0000
  C   C63       1.0  0.17272  0.24239  0.22231  1.0000
  H   H100      1.0  0.29084  0.29208  0.15883  1.0000
  H   H101      1.0  0.21452  0.15655  0.16844  1.0000
  C   C64       1.0  0.42943  0.11023  0.05914  1.0000
  H   H102      1.0  0.26772  0.29735  0.19666  1.0000
  C   C65       1.0  0.21016  0.30725  0.22622  1.0000
  C   C66       1.0  0.07310  0.29509  0.00894  1.0000
  C   C67       1.0  0.20068  0.23596  0.19223  1.0000
  H   H103      1.0  0.45020  0.07477  0.02897  1.0000
  H   H104      1.0  0.45168  0.10172  0.02026  1.0000
  H   H105      1.0  0.18703  0.29798  0.05420  1.0000
  H   H106      1.0  0.42572  0.07833  0.06171  1.0000
  H   H107      1.0  0.41603  0.06347  0.03824  1.0000
  S   S15       1.0  0.18299  0.27760  0.19430  1.0000
  H   H108      1.0  0.43592  0.10116  0.98785  1.0000
  C   C68       1.0  0.15016  0.28314  0.06076  1.0000
  H   H109      1.0  0.43284  0.13201  0.99627  1.0000
  H   H110      1.0  0.22127  0.31121  0.23342  1.0000
  H   H111      1.0  0.15712  0.26874  0.05428  1.0000
  C   C69       1.0  0.17495  0.22058  0.23062  1.0000
  C   C70       1.0  0.33878  0.29082  0.18527  1.0000
  H   H112      1.0  0.27677  0.28655  0.23231  1.0000
  H   H113      1.0  0.44607  0.10943  0.05047  1.0000
  H   H114      1.0  0.41056  0.16215  0.20818  1.0000
  H   H115      1.0  0.43199  0.13583  0.02155  1.0000
  C   C71       1.0  0.35596  0.22748  0.22010  1.0000
  H   H116      1.0  0.41331  0.10671  0.09209  1.0000
  H   H117      1.0  0.37554  0.09787  0.03178  1.0000
  C   C72       1.0  0.42776  0.03375  0.99933  1.0000
  H   H118      1.0  0.35890  0.00792  0.10894  1.0000
  H   H119      1.0  0.24821  0.20320  0.22546  1.0000
  C   C73       1.0  0.37948  0.00428  0.02864  1.0000
  H   H120      1.0  0.07428  0.29545  0.02497  1.0000
  H   H121      1.0  0.34449  0.20853  0.20566  1.0000
  H   H122      1.0  0.25925  0.23572  0.23006  1.0000
  C   C74       1.0  0.12632  0.28736  0.06190  1.0000
  H   H123      1.0  0.11949  0.27364  0.07201  1.0000
  C   C75       1.0  0.38415  0.08277  0.04009  1.0000
  H   H124      1.0  0.42146  0.03524  0.01539  1.0000
  H   H125      1.0  0.31169  0.08812  0.20170  1.0000
  H   H126      1.0  0.39447  0.26493  0.12651  1.0000
  H   H127      1.0  0.21909  0.13136  0.16142  1.0000
  H   H128      1.0  0.23170  0.15873  0.19652  1.0000
  H   H129      1.0  0.26906  0.10507  0.20303  1.0000
  H   H130      1.0  0.40843  0.21658  0.17946  1.0000
  C   C76       1.0  0.18632  0.29581  0.07124  1.0000
  Fe  Fe9       1.0  0.34374  0.13429  0.20881  1.0000
  H   H131      1.0  0.38062  0.08299  0.05701  1.0000
  H   H132      1.0  0.24595  0.18300  0.20101  1.0000
  H   H133      1.0  0.22129  0.12647  0.19831  1.0000
  C   C77       1.0  0.27041  0.30294  0.22599  1.0000
  C   C78       1.0  0.35785  0.21470  0.20589  1.0000
  H   H134      1.0  0.37738  0.06406  0.02150  1.0000
  S   S16       1.0  0.32934  0.16802  0.19610  1.0000
  C   C79       1.0  0.16843  0.25641  0.12298  1.0000
  C   C80       1.0  0.27463  0.11849  0.20498  1.0000
  H   H135      1.0  0.44219  0.07319  0.99663  1.0000
  C   C81       1.0  0.37465  0.99720  0.10885  1.0000
  H   H136      1.0  0.41786  0.16890  0.99851  1.0000
  H   H137      1.0  0.38218  0.01086  0.13108  1.0000
  S   S17       1.0  0.19184  0.17901  0.22965  1.0000
  H   H138      1.0  0.22161  0.30903  0.04109  1.0000
  C   C82       1.0  0.41398  0.03411  0.98671  1.0000
  H   H139      1.0  0.02266  0.29767  0.00411  1.0000
  H   H140      1.0  0.39659  0.99692  0.02614  1.0000
  C   C83       1.0  0.40787  0.15686  0.00607  1.0000
  H   H141      1.0  0.16088  0.25337  0.23061  1.0000
  H   H142      1.0  0.30236  0.00670  0.08120  1.0000
  H   H143      1.0  0.16942  0.32213  0.12752  1.0000
  H   H144      1.0  0.33750  0.31124  0.20584  1.0000
  H   H145      1.0  0.39738  0.16124  0.02068  1.0000
  H   H146      1.0  0.99427  0.28340  0.00028  1.0000
  Fe  Fe10      1.0  0.23874  0.31842  0.15993  1.0000
  H   H147      1.0  0.13441  0.31965  0.12296  1.0000
  C   C84       1.0  0.40427  0.15331  0.22417  1.0000
  H   H148      1.0  0.04324  0.31698  0.01019  1.0000
  S   S18       1.0  0.13205  0.31326  0.99566  1.0000
  H   H149      1.0  0.23334  0.31463  0.05976  1.0000
  C   C85       1.0  0.36681  0.99108  0.04757  1.0000
  C   C86       1.0  0.24102  0.12868  0.23090  1.0000
  H   H150      1.0  0.47940  0.99326  0.99419  1.0000
  H   H151      1.0  0.30997  0.21233  0.23417  1.0000
  C   C87       1.0  0.24949  0.24723  0.21929  1.0000
  H   H152      1.0  0.40450  0.13696  0.22316  1.0000
  C   C88       1.0  0.44944  0.03209  0.99095  1.0000
  S   S19       1.0  0.24856  0.31779  0.12576  1.0000
  S   S20       1.0  0.37113  0.25395  0.23547  1.0000
  H   H153      1.0  0.22506  0.13918  0.23105  1.0000
  H   H154      1.0  0.18614  0.28922  0.23300  1.0000
  C   C89       1.0  0.30267  0.98995  0.08964  1.0000
  Fe  Fe11      1.0  0.21441  0.32061  0.12637  1.0000
  C   C90       1.0  0.23829  0.10536  0.23570  1.0000
  Fe  Fe12      1.0  0.29792  0.28419  0.27225  1.0000
  S   S21       1.0  0.32981  0.29118  0.26892  1.0000
  Fe  Fe13      1.0  0.31053  0.23890  0.29535  1.0000
  S   S22       1.0  0.34321  0.24240  0.29450  1.0000
  S   S23       1.0  0.30147  0.20724  0.30903  1.0000
  Fe  Fe14      1.0  0.32751  0.27392  0.30258  1.0000
  H   H155      1.0  0.00488  0.03977  0.41260  1.0000
  C   C91       1.0  0.41054  0.25893  0.37751  1.0000
  C   C92       1.0  0.19453  0.29424  0.24255  1.0000
  H   H156      1.0  0.06211  0.12422  0.32765  1.0000
  H   H157      1.0  0.13088  0.08418  0.29678  1.0000
  H   H158      1.0  0.13060  0.08322  0.32351  1.0000
  C   C93       1.0  0.34223  0.12032  0.31675  1.0000
  C   C94       1.0  0.30913  0.09935  0.27310  1.0000
  S   S24       1.0  0.33301  0.28669  0.32812  1.0000
  H   H159      1.0  0.29182  0.31135  0.31204  1.0000
  H   H160      1.0  0.45541  0.30919  0.32313  1.0000
  C   C95       1.0  0.01920  0.99667  0.43098  1.0000
  H   H161      1.0  0.06430  0.10602  0.37442  1.0000
  Fe  Fe15      1.0  0.21975  0.14222  0.29365  1.0000
  S   S25       1.0  0.19124  0.13884  0.28407  1.0000
  S   S26       1.0  0.24688  0.11470  0.29826  1.0000
  Fe  Fe16      1.0  0.20069  0.18709  0.29879  1.0000
  S   S27       1.0  0.17079  0.18798  0.28911  1.0000
  S   S28       1.0  0.20575  0.21440  0.30877  1.0000
  Fe  Fe17      1.0  0.17245  0.15542  0.30994  1.0000
  S   S29       1.0  0.14359  0.14688  0.33372  1.0000
  H   H162      1.0  0.00479  0.06506  0.35907  1.0000
  H   H163      1.0  0.14897  0.06516  0.47756  1.0000
  S   S30       1.0  0.20083  0.15584  0.32138  1.0000
  S   S31       1.0  0.22223  0.17363  0.27196  1.0000
  Fe  Fe18      1.0  0.07412  0.03931  0.37854  1.0000
  S   S32       1.0  0.06576  0.01638  0.40882  1.0000
  Fe  Fe19      1.0  0.11718  0.03843  0.38634  1.0000
  S   S33       1.0  0.11224  0.01537  0.41749  1.0000
  S   S34       1.0  0.14827  0.04933  0.37291  1.0000
  Fe  Fe20      1.0  0.09911  0.99865  0.40069  1.0000
  C   C96       1.0  0.03759  0.01705  0.36848  1.0000
  Fe  Fe21      1.0  0.07950  0.03508  0.42281  1.0000
  S   S35       1.0  0.06078  0.04544  0.45246  1.0000
  S   S36       1.0  0.10654  0.02005  0.36901  1.0000
  S   S37       1.0  0.08535  0.05961  0.39311  1.0000
  C   C97       1.0  0.00145  0.01299  0.37293  1.0000
  C   C98       1.0  0.27240  0.11660  0.28307  1.0000
  S   S38       1.0  0.04985  0.05501  0.35849  1.0000
  H   H164      1.0  0.07575  0.07209  0.31403  1.0000
  H   H165      1.0  0.37590  0.28295  0.39734  1.0000
  C   C99       1.0  0.13433  0.08842  0.45287  1.0000
  C   C100      1.0  0.22086  0.29529  0.27570  1.0000
  H   H166      1.0  0.03148  0.99937  0.43780  1.0000
  H   H167      1.0  0.04374  0.12653  0.36430  1.0000
  H   H168      1.0  0.13337  0.02732  0.32259  1.0000
  H   H169      1.0  0.04809  0.07894  0.29386  1.0000
  H   H170      1.0  0.36344  0.29810  0.28980  1.0000
  H   H171      1.0  0.35201  0.11098  0.32845  1.0000
  H   H172      1.0  0.09937  0.09520  0.34699  1.0000
  C   C101      1.0  0.44972  0.30158  0.31348  1.0000
  H   H173      1.0  0.34315  0.18564  0.23744  1.0000
  C   C102      1.0  0.14574  0.11988  0.34550  1.0000
  C   C103      1.0  0.16420  0.10515  0.34011  1.0000
  C   C104      1.0  0.16501  0.08348  0.34884  1.0000
  C   C105      1.0  0.14728  0.07651  0.36270  1.0000
  C   C106      1.0  0.12907  0.09129  0.36840  1.0000
  C   C107      1.0  0.12831  0.11294  0.35994  1.0000
  H   H174      1.0  0.17777  0.11041  0.32905  1.0000
  H   H175      1.0  0.17925  0.07208  0.34452  1.0000
  H   H176      1.0  0.11550  0.08601  0.37914  1.0000
  H   H177      1.0  0.11401  0.12430  0.36417  1.0000
  H   H178      1.0  0.14090  0.14971  0.26499  1.0000
  C   C108      1.0  0.36342  0.30728  0.30078  1.0000
  C   C109      1.0  0.39569  0.29747  0.36770  1.0000
  C   C110      1.0  0.38982  0.25241  0.32227  1.0000
  H   H179      1.0  0.13424  0.15184  0.29208  1.0000
  C   C111      1.0  0.02283  0.00409  0.37299  1.0000
  C   C112      1.0  0.42133  0.26200  0.39396  1.0000
  H   H180      1.0  0.39133  0.17743  0.26388  1.0000
  H   H181      1.0  0.36802  0.19678  0.30213  1.0000
  H   H182      1.0  0.31536  0.19586  0.26999  1.0000
  H   H183      1.0  0.02091  0.00697  0.41493  1.0000
  H   H184      1.0  0.37803  0.27046  0.35711  1.0000
  H   H185      1.0  0.38986  0.26622  0.30876  1.0000
  H   H186      1.0  0.05407  0.01006  0.36851  1.0000
  H   H187      1.0  0.28551  0.08436  0.29640  1.0000
  C   C113      1.0  0.12573  0.12477  0.28652  1.0000
  C   C114      1.0  0.42781  0.29676  0.32435  1.0000
  H   H188      1.0  0.30466  0.17355  0.27033  1.0000
  C   C115      1.0  0.42826  0.28133  0.34613  1.0000
  H   H189      1.0  0.46129  0.28687  0.31072  1.0000
  C   C116      1.0  0.36563  0.31659  0.39201  1.0000
  N   N5        1.0  0.35174  0.16426  0.26545  1.0000
  C   C117      1.0  0.27523  0.20973  0.30732  1.0000
  C   C118      1.0  0.26878  0.19282  0.30404  1.0000
  C   C119      1.0  0.24760  0.19461  0.30326  1.0000
  C   C120      1.0  0.23271  0.21299  0.30670  1.0000
  C   C121      1.0  0.23920  0.22984  0.31003  1.0000
  C   C122      1.0  0.26052  0.22840  0.30985  1.0000
  H   H190      1.0  0.28011  0.17833  0.30219  1.0000
  H   H191      1.0  0.24267  0.18142  0.30094  1.0000
  H   H192      1.0  0.22769  0.24380  0.31330  1.0000
  H   H193      1.0  0.26537  0.24141  0.31264  1.0000
  H   H194      1.0  0.18932  0.08175  0.38474  1.0000
  H   H195      1.0  0.06151  0.08065  0.46821  1.0000
  C   C123      1.0  0.22135  0.29809  0.29735  1.0000
  C   C124      1.0  0.12064  0.08260  0.31280  1.0000
  H   H196      1.0  0.38961  0.28733  0.33450  1.0000
  H   H197      1.0  0.14416  0.04435  0.33175  1.0000
  H   H198      1.0  0.43892  0.26614  0.34328  1.0000
  C   C125      1.0  0.12874  0.14768  0.27981  1.0000
  C   C126      1.0  0.42479  0.24175  0.41086  1.0000
  H   H199      1.0  0.39226  0.31091  0.35445  1.0000
  C   C127      1.0  0.35646  0.18177  0.27269  1.0000
  H   H200      1.0  0.14827  0.04573  0.30382  1.0000
  C   C128      1.0  0.14629  0.09604  0.48244  1.0000
  H   H201      1.0  0.43701  0.26619  0.38637  1.0000
  H   H202      1.0  0.09614  0.13480  0.30696  1.0000
  H   H203      1.0  0.13604  0.04677  0.45669  1.0000
  H   H204      1.0  0.32646  0.15805  0.29256  1.0000
  C   C129      1.0  0.31332  0.11763  0.25823  1.0000
  H   H205      1.0  0.11722  0.12181  0.32022  1.0000
  C   C130      1.0  0.15052  0.08109  0.46755  1.0000
  H   H206      1.0  0.26471  0.18066  0.23875  1.0000
  C   C131      1.0  0.34109  0.14928  0.28377  1.0000
  H   H207      1.0  0.37322  0.25197  0.33083  1.0000
  N   N6        1.0  0.20379  0.27540  0.25801  1.0000
  C   C132      1.0  0.08862  0.10123  0.29781  1.0000
  H   H208      1.0  0.41951  0.25414  0.32762  1.0000
  C   C133      1.0  0.37857  0.17787  0.27819  1.0000
  C   C134      1.0  0.10957  0.12093  0.30775  1.0000
  H   H209      1.0  0.41146  0.27469  0.40212  1.0000
  H   H210      1.0  0.39613  0.19236  0.29137  1.0000
  H   H211      1.0  0.16490  0.21475  0.24537  1.0000
  H   H212      1.0  0.18895  0.29110  0.28401  1.0000
  H   H213      1.0  0.08088  0.11782  0.29167  1.0000
  H   H214      1.0  0.39534  0.25387  0.38594  1.0000
  H   H215      1.0  0.00825  0.08401  0.46042  1.0000
  H   H216      1.0  0.22361  0.10341  0.26884  1.0000
  H   H217      1.0  0.05500  0.10387  0.27919  1.0000
  C   C135      1.0  0.06130  0.08766  0.28757  1.0000
  H   H218      1.0  0.16255  0.00718  0.42357  1.0000
  Fe  Fe22      1.0  0.19236  0.17146  0.26414  1.0000
  C   C136      1.0  0.07048  0.08854  0.30576  1.0000
  H   H219      1.0  0.33891  0.10923  0.30893  1.0000
  N   N7        1.0  0.10152  0.10052  0.31350  1.0000
  H   H220      1.0  0.36960  0.12749  0.29356  1.0000
  H   H221      1.0  0.10536  0.05670  0.33366  1.0000
  C   C137      1.0  0.20455  0.28173  0.27765  1.0000
  H   H222      1.0  0.19718  0.24439  0.27384  1.0000
  C   C138      1.0  0.08878  0.09830  0.33581  1.0000
  H   H223      1.0  0.01003  0.02043  0.30288  1.0000
  C   C139      1.0  0.03117  0.03901  0.36354  1.0000
  H   H224      1.0  0.01857  0.02317  0.32507  1.0000
  C   C140      1.0  0.31420  0.18535  0.26038  1.0000
  H   H225      1.0  0.32707  0.12853  0.32523  1.0000
  C   C141      1.0  0.05576  0.11218  0.36123  1.0000
  C   C142      1.0  0.09071  0.03057  0.47709  1.0000
  H   H226      1.0  0.41683  0.31198  0.32591  1.0000
  N   N8        1.0  0.40699  0.27770  0.35960  1.0000
  H   H227      1.0  0.10949  0.05776  0.30580  1.0000
  C   C143      1.0  0.00984  0.04803  0.36295  1.0000
  C   C144      1.0  0.22564  0.26438  0.24880  1.0000
  H   H228      1.0  0.07847  0.13045  0.34159  1.0000
  S   S39       1.0  0.31051  0.25373  0.26122  1.0000
  C   C145      1.0  0.07121  0.11775  0.34038  1.0000
  H   H229      1.0  0.16161  0.23446  0.29192  1.0000
  S   S40       1.0  0.27234  0.31186  0.26328  1.0000
  C   C146      1.0  0.35412  0.13642  0.30058  1.0000
  Fe  Fe23      1.0  0.34229  0.25917  0.26101  1.0000
  C   C147      1.0  0.07611  0.04789  0.46881  1.0000
  H   H230      1.0  0.05731  0.09616  0.31697  1.0000
  H   H231      1.0  0.99290  0.01711  0.32881  1.0000
  H   H232      1.0  0.07358  0.07922  0.27631  1.0000
  C   C148      1.0  0.13682  0.04341  0.31912  1.0000
  H   H233      1.0  0.22711  0.28262  0.30739  1.0000
  H   H234      1.0  0.26439  0.14922  0.26746  1.0000
  C   C149      1.0  0.28871  0.09877  0.28532  1.0000
  H   H235      1.0  0.43658  0.28773  0.35461  1.0000
  H   H236      1.0  0.16708  0.08013  0.45872  1.0000
  H   H237      1.0  0.38355  0.14489  0.26319  1.0000
  H   H238      1.0  0.16786  0.26863  0.29312  1.0000
  H   H239      1.0  0.35008  0.31569  0.40295  1.0000
  C   C150      1.0  0.27677  0.13528  0.26890  1.0000
  N   N9        1.0  0.99739  0.00314  0.44381  1.0000
  C   C151      1.0  0.99466  0.06430  0.42992  1.0000
  H   H240      1.0  0.01076  0.06321  0.43239  1.0000
  C   C152      1.0  0.39359  0.27325  0.34705  1.0000
  H   H241      1.0  0.00943  0.02649  0.45167  1.0000
  H   H242      1.0  0.23236  0.30869  0.29550  1.0000
  H   H243      1.0  0.23717  0.28790  0.26882  1.0000
  H   H244      1.0  0.08143  0.08419  0.34071  1.0000
  C   C153      1.0  0.11628  0.05998  0.31823  1.0000
  H   H245      1.0  0.23667  0.27551  0.24252  1.0000
  N   N10       1.0  0.13797  0.07696  0.43530  1.0000
  C   C154      1.0  0.14711  0.05378  0.44252  1.0000
  H   H246      1.0  0.11899  0.08635  0.46392  1.0000
  C   C155      1.0  0.11673  0.07861  0.43020  1.0000
  C   C156      1.0  0.15166  0.08705  0.41543  1.0000
  C   C157      1.0  0.17456  0.08672  0.41647  1.0000
  C   C158      1.0  0.15221  0.04003  0.42601  1.0000
  C   C159      1.0  0.10189  0.10090  0.42806  1.0000
  H   H247      1.0  0.15854  0.28133  0.26897  1.0000
  C   C160      1.0  0.18769  0.09340  0.39440  1.0000
  H   H248      1.0  0.33588  0.13785  0.27781  1.0000
  C   C161      1.0  0.08244  0.10147  0.41984  1.0000
  H   H249      1.0  0.32160  0.08540  0.27484  1.0000
  H   H250      1.0  0.25285  0.09424  0.23973  1.0000
  H   H251      1.0  0.13291  0.10576  0.44637  1.0000
  H   H252      1.0  0.40375  0.23892  0.34935  1.0000
  H   H253      1.0  0.10772  0.06753  0.44243  1.0000
  H   H254      1.0  0.11884  0.07347  0.41528  1.0000
  H   H255      1.0  0.15242  0.07961  0.40226  1.0000
  H   H256      1.0  0.14439  0.10393  0.41012  1.0000
  H   H257      1.0  0.18268  0.07076  0.42354  1.0000
  H   H258      1.0  0.17439  0.09817  0.42577  1.0000
  H   H259      1.0  0.13829  0.04175  0.41933  1.0000
  H   H260      1.0  0.16541  0.04461  0.41296  1.0000
  H   H261      1.0  0.11014  0.11328  0.41716  1.0000
  H   H262      1.0  0.09597  0.10533  0.44361  1.0000
  H   H263      1.0  0.37835  0.21093  0.27585  1.0000
  C   C162      1.0  0.16703  0.26638  0.27765  1.0000
  H   H264      1.0  0.18009  0.10922  0.38631  1.0000
  H   H265      1.0  0.20378  0.09413  0.39549  1.0000
  H   H266      1.0  0.11369  0.15873  0.27703  1.0000
  C   C163      1.0  0.38027  0.19562  0.28749  1.0000
  H   H267      1.0  0.18201  0.30527  0.25115  1.0000
  H   H268      1.0  0.07441  0.08827  0.42913  1.0000
  H   H269      1.0  0.07100  0.11664  0.42101  1.0000
  H   H270      1.0  0.08703  0.10041  0.40308  1.0000
  N   N11       1.0  0.23346  0.16442  0.36872  1.0000
  C   C164      1.0  0.24241  0.18430  0.36165  1.0000
  C   C165      1.0  0.24246  0.15134  0.35211  1.0000
  C   C166      1.0  0.20980  0.17098  0.36982  1.0000
  C   C167      1.0  0.23747  0.15169  0.39001  1.0000
  C   C168      1.0  0.25836  0.15227  0.39576  1.0000
  C   C169      1.0  0.23206  0.20136  0.37499  1.0000
  C   C170      1.0  0.19726  0.15279  0.37679  1.0000
  C   C171      1.0  0.26682  0.14385  0.34677  1.0000
  C   C172      1.0  0.27343  0.13282  0.32825  1.0000
  C   C173      1.0  0.26237  0.13553  0.41555  1.0000
  C   C174      1.0  0.24630  0.21712  0.37137  1.0000
  C   C175      1.0  0.17355  0.16162  0.37785  1.0000
  H   H271      1.0  0.24060  0.19210  0.34532  1.0000
  H   H272      1.0  0.25973  0.18071  0.36077  1.0000
  H   H273      1.0  0.23611  0.13660  0.35674  1.0000
  H   H274      1.0  0.23734  0.16028  0.33716  1.0000
  H   H275      1.0  0.20650  0.18067  0.35427  1.0000
  H   H276      1.0  0.20226  0.18134  0.38127  1.0000
  H   H277      1.0  0.22452  0.15715  0.40282  1.0000
  H   H278      1.0  0.23691  0.13482  0.39163  1.0000
  H   H279      1.0  0.25742  0.16791  0.39901  1.0000
  H   H280      1.0  0.27237  0.14965  0.38301  1.0000
  H   H281      1.0  0.21693  0.21048  0.37034  1.0000
  H   H282      1.0  0.22850  0.19417  0.39206  1.0000
  H   H283      1.0  0.19934  0.14316  0.39259  1.0000
  H   H284      1.0  0.20234  0.14212  0.36561  1.0000
  H   H285      1.0  0.27523  0.15716  0.34228  1.0000
  H   H286      1.0  0.27227  0.13206  0.36032  1.0000
  H   H287      1.0  0.29092  0.12785  0.32428  1.0000
  S   S41       1.0  0.29469  0.26881  0.30653  1.0000
  H   H288      1.0  0.27703  0.13672  0.41965  1.0000
  H   H289      1.0  0.24896  0.13796  0.42906  1.0000
  H   H290      1.0  0.26449  0.11940  0.41285  1.0000
  H   H291      1.0  0.23821  0.22943  0.38064  1.0000
  H   H292      1.0  0.26147  0.20898  0.37641  1.0000
  H   H293      1.0  0.24976  0.22503  0.35446  1.0000
  H   H294      1.0  0.16491  0.14842  0.38244  1.0000
  H   H295      1.0  0.16706  0.17172  0.38964  1.0000
  H   H296      1.0  0.17065  0.17111  0.36221  1.0000
  H   H297      1.0  0.39646  0.23781  0.31598  1.0000
  H   H298      1.0  0.40941  0.23721  0.41935  1.0000
  H   H299      1.0  0.14151  0.11460  0.28813  1.0000
  H   H300      1.0  0.04739  0.10008  0.36063  1.0000
  H   H301      1.0  0.42264  0.28992  0.31371  1.0000
  H   H302      1.0  0.43529  0.22858  0.40373  1.0000
  H   H303      1.0  0.26648  0.11849  0.33228  1.0000
  C   C176      1.0  0.40322  0.25369  0.33694  1.0000
  H   H304      1.0  0.33429  0.16162  0.24358  1.0000
  C   C177      1.0  0.34980  0.30491  0.32052  1.0000
  H   H305      1.0  0.26814  0.14363  0.31408  1.0000
  C   C178      1.0  0.37427  0.29631  0.38360  1.0000
  H   H306      1.0  0.34416  0.18568  0.28663  1.0000
  H   H307      1.0  0.14587  0.01104  0.44856  1.0000
  H   H308      1.0  0.23259  0.25208  0.26139  1.0000
  H   H309      1.0  0.35658  0.14713  0.30933  1.0000
  H   H310      1.0  0.36224  0.29445  0.37597  1.0000
  H   H311      1.0  0.13790  0.25473  0.29176  1.0000
  H   H312      1.0  0.20502  0.11140  0.25133  1.0000
  H   H313      1.0  0.18719  0.25537  0.25060  1.0000
  H   H314      1.0  0.38204  0.16276  0.28955  1.0000
  H   H315      1.0  0.09925  0.09577  0.28370  1.0000
  H   H316      1.0  0.12052  0.12123  0.27373  1.0000
  C   C179      1.0  0.18952  0.25950  0.26462  1.0000
  C   C180      1.0  0.15390  0.24940  0.28249  1.0000
  H   H317      1.0  0.28112  0.10840  0.23724  1.0000
  H   H318      1.0  0.20764  0.26726  0.29016  1.0000
  H   H319      1.0  0.15204  0.24629  0.26780  1.0000
  H   H320      1.0  0.42072  0.24503  0.37129  1.0000
  H   H321      1.0  0.20537  0.30531  0.30530  1.0000
  H   H322      1.0  0.37665  0.31870  0.40076  1.0000
  C   C181      1.0  0.37128  0.15188  0.25358  1.0000
  C   C182      1.0  0.15890  0.01660  0.43582  1.0000
  H   H323      1.0  0.16214  0.05137  0.44772  1.0000
  H   H324      1.0  0.28573  0.20557  0.25092  1.0000
  H   H325      1.0  0.21867  0.08423  0.25743  1.0000
  S   S42       1.0  0.33909  0.11737  0.24298  1.0000
  H   H326      1.0  0.01093  0.00090  0.48192  1.0000
  H   H327      1.0  0.36748  0.13799  0.25033  1.0000
  H   H328      1.0  0.40611  0.30250  0.37508  1.0000
  C   C183      1.0  0.34999  0.31679  0.33471  1.0000
  C   C184      1.0  0.07275  0.06723  0.47460  1.0000
  H   H329      1.0  0.35528  0.19674  0.26044  1.0000
  C   C185      1.0  0.33649  0.17388  0.25073  1.0000
  H   H330      1.0  0.44878  0.31272  0.29804  1.0000
  C   C186      1.0  0.29723  0.13575  0.25633  1.0000
  H   H331      1.0  0.43242  0.24441  0.42248  1.0000
  C   C187      1.0  0.22024  0.10094  0.25448  1.0000
  H   H332      1.0  0.17326  0.01382  0.44234  1.0000
  H   H333      1.0  0.30051  0.15003  0.24511  1.0000
  C   C188      1.0  0.30216  0.19896  0.24339  1.0000
  H   H334      1.0  0.24580  0.13035  0.24494  1.0000
  H   H335      1.0  0.46248  0.31189  0.47424  1.0000
  H   H336      1.0  0.09328  0.01556  0.47272  1.0000
  C   C189      1.0  0.00959  0.01427  0.31998  1.0000
  H   H337      1.0  0.14826  0.11218  0.47344  1.0000
  C   C190      1.0  0.99531  0.02534  0.44649  1.0000
  H   H338      1.0  0.99370  0.06480  0.47827  1.0000
  C   C191      1.0  0.99492  0.03502  0.36783  1.0000
  C   C192      1.0  0.00025  0.07884  0.47704  1.0000
  H   H339      1.0  0.33930  0.31512  0.34994  1.0000
  H   H340      1.0  0.22050  0.23841  0.23775  1.0000
  H   H341      1.0  0.21634  0.31134  0.26612  1.0000
  H   H342      1.0  0.99206  0.07691  0.41574  1.0000
  C   C193      1.0  0.99271  0.04326  0.42663  1.0000
  H   H343      1.0  0.02894  0.06032  0.48603  1.0000
  C   C194      1.0  0.26708  0.31821  0.23789  1.0000
  H   H344      1.0  0.36477  0.32147  0.24123  1.0000
  C   C195      1.0  0.37738  0.32127  0.29537  1.0000
  C   C196      1.0  0.01954  0.99069  0.32456  1.0000
  H   H345      1.0  0.29332  0.22847  0.71698  1.0000
  C   C197      1.0  0.37622  0.14896  0.59946  1.0000
  H   H346      1.0  0.20212  0.12486  0.71856  1.0000
  C   C198      1.0  0.22719  0.12038  0.73444  1.0000
  H   H347      1.0  0.99436  0.08127  0.51862  1.0000
  C   C199      1.0  0.03168  0.07460  0.52952  1.0000
  H   H348      1.0  0.04512  0.03055  0.53698  1.0000
  N   N12       1.0  0.02028  0.05775  0.52987  1.0000
  C   C200      1.0  0.21051  0.11138  0.72911  1.0000
  H   H349      1.0  0.27074  0.05126  0.62771  1.0000
  C   C201      1.0  0.02810  0.02181  0.51866  1.0000
  H   H350      1.0  0.23803  0.13542  0.70162  1.0000
  C   C202      1.0  0.37064  0.29830  0.55876  1.0000
  S   S43       1.0  0.18886  0.24983  0.70032  1.0000
  H   H351      1.0  0.25399  0.10985  0.71060  1.0000
  C   C203      1.0  0.24474  0.12488  0.71513  1.0000
  C   C204      1.0  0.18858  0.24110  0.63473  1.0000
  C   C205      1.0  0.16056  0.22519  0.67777  1.0000
  Fe  Fe24      1.0  0.29181  0.23133  0.61680  1.0000
  S   S44       1.0  0.29341  0.21495  0.65015  1.0000
  S   S45       1.0  0.26595  0.23101  0.60116  1.0000
  Fe  Fe25      1.0  0.33190  0.24875  0.60941  1.0000
  S   S46       1.0  0.33652  0.23422  0.64255  1.0000
  S   S47       1.0  0.35704  0.26298  0.58378  1.0000
  Fe  Fe26      1.0  0.32835  0.20560  0.63801  1.0000
  S   S48       1.0  0.34693  0.17242  0.64614  1.0000
  Fe  Fe27      1.0  0.30121  0.24506  0.65167  1.0000
  S   S49       1.0  0.28460  0.25769  0.68068  1.0000
  S   S50       1.0  0.32609  0.21911  0.60429  1.0000
  S   S51       1.0  0.29720  0.26235  0.61899  1.0000
  Fe  Fe28      1.0  0.17829  0.13221  0.65326  1.0000
  S   S52       1.0  0.19265  0.13465  0.61888  1.0000
  S   S53       1.0  0.15003  0.15630  0.66391  1.0000
  Fe  Fe29      1.0  0.20876  0.09207  0.66648  1.0000
  S   S54       1.0  0.22589  0.09101  0.63335  1.0000
  S   S55       1.0  0.21867  0.06689  0.69376  1.0000
  Fe  Fe30      1.0  0.22347  0.12577  0.62949  1.0000
  S   S56       1.0  0.25197  0.13940  0.61118  1.0000
  Fe  Fe31      1.0  0.19357  0.09972  0.62566  1.0000
  S   S57       1.0  0.18829  0.08565  0.60079  1.0000
  S   S58       1.0  0.20909  0.12617  0.66340  1.0000
  S   S59       1.0  0.17645  0.09800  0.65934  1.0000
  Fe  Fe32      1.0  0.07547  0.01131  0.58090  1.0000
  H   H352      1.0  0.02032  0.08978  0.53106  1.0000
  S   S60       1.0  0.04059  0.01371  0.59483  1.0000
  Fe  Fe33      1.0  0.11719  0.01501  0.58929  1.0000
  S   S61       1.0  0.13578  0.00758  0.55822  1.0000
  S   S62       1.0  0.13053  0.01913  0.61535  1.0000
  Fe  Fe34      1.0  0.10836  0.02949  0.54507  1.0000
  H   H353      1.0  0.06611  0.08280  0.55649  1.0000
  S   S63       1.0  0.09105  0.03876  0.57568  1.0000
  H   H354      1.0  0.28614  0.13840  0.68623  1.0000
  C   C206      1.0  0.34015  0.14466  0.71657  1.0000
  H   H355      1.0  0.46701  0.26630  0.56819  1.0000
  C   C207      1.0  0.16992  0.06930  0.60508  1.0000
  C   C208      1.0  0.15977  0.06065  0.62536  1.0000
  C   C209      1.0  0.14738  0.04556  0.62829  1.0000
  C   C210      1.0  0.14453  0.03952  0.61096  1.0000
  C   C211      1.0  0.15393  0.04887  0.59064  1.0000
  C   C212      1.0  0.16672  0.06356  0.58775  1.0000
  H   H356      1.0  0.16193  0.06519  0.63877  1.0000
  H   H357      1.0  0.13999  0.03849  0.64404  1.0000
  H   H358      1.0  0.15187  0.04431  0.57718  1.0000
  H   H359      1.0  0.17450  0.07022  0.57201  1.0000
  C   C213      1.0  0.25936  0.20632  0.60520  1.0000
  C   C214      1.0  0.25792  0.19233  0.62490  1.0000
  C   C215      1.0  0.25291  0.17251  0.62749  1.0000
  C   C216      1.0  0.25080  0.16615  0.61009  1.0000
  C   C217      1.0  0.25176  0.18037  0.59060  1.0000
  C   C218      1.0  0.25544  0.20061  0.58830  1.0000
  H   H360      1.0  0.26076  0.19677  0.63805  1.0000
  H   H361      1.0  0.25202  0.16161  0.64262  1.0000
  H   H362      1.0  0.25027  0.17551  0.57707  1.0000
  H   H363      1.0  0.25641  0.21144  0.57308  1.0000
  C   C219      1.0  0.27630  0.08171  0.68219  1.0000
  C   C220      1.0  0.25588  0.08141  0.68056  1.0000
  C   C221      1.0  0.24475  0.06661  0.69487  1.0000
  C   C222      1.0  0.04618  0.00367  0.51289  1.0000
  H   H364      1.0  0.28475  0.09332  0.67134  1.0000
  H   H365      1.0  0.24875  0.09275  0.66831  1.0000
  C   C223      1.0  0.99287  0.99669  0.58133  1.0000
  C   C224      1.0  0.34170  0.13187  0.70271  1.0000
  C   C225      1.0  0.34484  0.14028  0.68100  1.0000
  C   C226      1.0  0.34492  0.16185  0.67318  1.0000
  C   C227      1.0  0.34358  0.17465  0.68697  1.0000
  C   C228      1.0  0.34199  0.16584  0.70858  1.0000
  H   H366      1.0  0.34067  0.11542  0.70865  1.0000
  H   H367      1.0  0.34668  0.13011  0.67036  1.0000
  H   H368      1.0  0.34429  0.19116  0.68084  1.0000
  H   H369      1.0  0.32516  0.13527  0.58225  1.0000
  C   C229      1.0  0.22307  0.99866  0.66057  1.0000
  H   H370      1.0  0.18778  0.01014  0.60488  1.0000
  C   C230      1.0  0.16512  0.16119  0.69620  1.0000
  C   C231      1.0  0.14762  0.15955  0.68942  1.0000
  C   C232      1.0  0.12762  0.16166  0.70276  1.0000
  C   C233      1.0  0.46666  0.27295  0.58169  1.0000
  H   H371      1.0  0.21669  0.30777  0.72997  1.0000
  H   H372      1.0  0.18058  0.15939  0.68595  1.0000
  H   H373      1.0  0.11408  0.16039  0.69755  1.0000
  H   H374      1.0  0.33718  0.10614  0.60720  1.0000
  C   C234      1.0  0.21559  0.25150  0.69494  1.0000
  C   C235      1.0  0.22669  0.25576  0.67405  1.0000
  C   C236      1.0  0.24801  0.25736  0.66962  1.0000
  C   C237      1.0  0.25793  0.25580  0.68602  1.0000
  C   C238      1.0  0.24661  0.25224  0.70685  1.0000
  H   H375      1.0  0.26096  0.21421  0.73341  1.0000
  H   H376      1.0  0.21894  0.25759  0.66126  1.0000
  H   H377      1.0  0.25666  0.26019  0.65347  1.0000
  H   H378      1.0  0.24831  0.02110  0.62666  1.0000
  C   C239      1.0  0.00551  0.06673  0.51468  1.0000
  H   H379      1.0  0.37962  0.28799  0.54824  1.0000
  C   C240      1.0  0.13554  0.28685  0.73058  1.0000
  H   H380      1.0  0.22289  0.21494  0.64950  1.0000
  H   H381      1.0  0.40852  0.27781  0.56952  1.0000
  H   H382      1.0  0.22238  0.24289  0.62409  1.0000
  H   H383      1.0  0.20309  0.22530  0.66924  1.0000
  C   C241      1.0  0.19575  0.19510  0.59694  1.0000
  C   C242      1.0  0.22571  0.24930  0.71135  1.0000
  H   H384      1.0  0.36488  0.12150  0.60042  1.0000
  H   H385      1.0  0.13217  0.22950  0.70210  1.0000
  H   H386      1.0  0.20204  0.27980  0.62087  1.0000
  H   H387      1.0  0.21838  0.27478  0.59613  1.0000
  H   H388      1.0  0.44211  0.26573  0.53030  1.0000
  H   H389      1.0  0.17983  0.22393  0.60684  1.0000
  C   C243      1.0  0.35708  0.29026  0.57728  1.0000
  H   H390      1.0  0.38063  0.14290  0.61512  1.0000
  H   H391      1.0  0.99758  0.08137  0.56144  1.0000
  H   H392      1.0  0.29800  0.17669  0.59510  1.0000
  H   H393      1.0  0.21728  0.24589  0.72748  1.0000
  H   H394      1.0  0.33431  0.29774  0.60479  1.0000
  H   H395      1.0  0.30050  0.10459  0.60800  1.0000
  H   H396      1.0  0.19990  0.18688  0.63875  1.0000
  H   H397      1.0  0.04246  0.07827  0.51396  1.0000
  H   H398      1.0  0.12721  0.22969  0.67699  1.0000
  H   H399      1.0  0.19020  0.27626  0.60101  1.0000
  H   H400      1.0  0.29896  0.06969  0.63152  1.0000
  H   H401      1.0  0.44863  0.29700  0.59850  1.0000
  H   H402      1.0  0.30953  0.20326  0.71523  1.0000
  C   C244      1.0  0.32474  0.11196  0.62012  1.0000
  H   H403      1.0  0.21092  0.23920  0.60427  1.0000
  H   H404      1.0  0.19973  0.05158  0.65419  1.0000
  C   C245      1.0  0.39860  0.26725  0.61396  1.0000
  H   H405      1.0  0.20194  0.17824  0.60365  1.0000
  C   C246      1.0  0.33367  0.23306  0.70624  1.0000
  Fe  Fe35      1.0  0.31117  0.07428  0.73127  1.0000
  H   H406      1.0  0.24597  0.04006  0.72129  1.0000
  S   S64       1.0  0.11130  0.05482  0.51533  1.0000
  C   C247      1.0  0.19861  0.20377  0.63037  1.0000
  C   C248      1.0  0.28338  0.14349  0.66990  1.0000
  H   H407      1.0  0.25418  0.25136  0.71947  1.0000
  C   C249      1.0  0.40806  0.31795  0.60630  1.0000
  N   N13       1.0  0.31960  0.13582  0.61529  1.0000
  H   H408      1.0  0.03571  0.06651  0.56250  1.0000
  H   H409      1.0  0.16180  0.08507  0.71127  1.0000
  S   S65       1.0  0.31109  0.06820  0.70011  1.0000
  C   C250      1.0  0.42504  0.27897  0.56856  1.0000
  C   C251      1.0  0.15245  0.09829  0.71896  1.0000
  H   H410      1.0  0.20914  0.20240  0.58678  1.0000
  H   H411      1.0  0.46567  0.26020  0.59615  1.0000
  C   C252      1.0  0.20790  0.24719  0.61751  1.0000
  C   C253      1.0  0.30584  0.17359  0.56300  1.0000
  H   H412      1.0  0.16970  0.20092  0.62261  1.0000
  H   H413      1.0  0.33835  0.22275  0.69467  1.0000
  H   H414      1.0  0.40645  0.23409  0.62975  1.0000
  H   H415      1.0  0.31612  0.14324  0.65702  1.0000
  C   C254      1.0  0.18438  0.20705  0.61443  1.0000
  C   C255      1.0  0.20427  0.27101  0.60838  1.0000
  C   C256      1.0  0.16240  0.16592  0.71596  1.0000
  H   H416      1.0  0.48811  0.28758  0.59018  1.0000
  H   H417      1.0  0.34814  0.23725  0.70778  1.0000
  H   H418      1.0  0.17437  0.24645  0.62752  1.0000
  H   H419      1.0  0.21875  0.09961  0.71916  1.0000
  C   C257      1.0  0.48781  0.27967  0.57775  1.0000
  H   H420      1.0  0.04510  0.10193  0.54568  1.0000
  H   H421      1.0  0.24522  0.18885  0.72187  1.0000
  C   C258      1.0  0.03659  0.03885  0.52394  1.0000
  H   H422      1.0  0.02018  0.02834  0.50507  1.0000
  H   H423      1.0  0.27924  0.04077  0.65245  1.0000
  H   H424      1.0  0.28111  0.02314  0.63569  1.0000
  H   H425      1.0  0.11220  0.01892  0.49860  1.0000
  C   C259      1.0  0.10130  0.03244  0.49179  1.0000
  H   H426      1.0  0.19040  0.01696  0.63886  1.0000
  H   H427      1.0  0.30276  0.19107  0.55741  1.0000
  H   H428      1.0  0.29236  0.10624  0.63517  1.0000
  H   H429      1.0  0.18457  0.19578  0.58703  1.0000
  H   H430      1.0  0.06785  0.08942  0.52853  1.0000
  C   C260      1.0  0.30316  0.21463  0.72578  1.0000
  C   C261      1.0  0.28555  0.06750  0.69829  1.0000
  H   H431      1.0  0.01795  0.04260  0.56284  1.0000
  H   H432      1.0  0.23281  0.01161  0.60707  1.0000
  C   C262      1.0  0.43254  0.29209  0.54623  1.0000
  C   C263      1.0  0.31259  0.07703  0.62980  1.0000
  C   C264      1.0  0.21682  0.00848  0.61502  1.0000
  H   H433      1.0  0.04914  0.04388  0.51034  1.0000
  C   C265      1.0  0.20989  0.19119  0.67426  1.0000
  C   C266      1.0  0.22599  0.18902  0.68754  1.0000
  H   H434      1.0  0.21570  0.17845  0.66529  1.0000
  H   H435      1.0  0.19486  0.18859  0.68529  1.0000
  H   H436      1.0  0.22704  0.17351  0.69885  1.0000
  H   H437      1.0  0.24190  0.19003  0.67736  1.0000
  H   H438      1.0  0.22101  0.20171  0.69662  1.0000
  C   C267      1.0  0.05675  0.08698  0.54402  1.0000
  H   H439      1.0  0.28324  0.19359  0.70840  1.0000
  H   H440      1.0  0.22344  0.99870  0.67701  1.0000
  C   C268      1.0  0.00742  0.05073  0.55153  1.0000
  C   C269      1.0  0.20571  0.02211  0.63156  1.0000
  H   H441      1.0  0.99132  0.05386  0.59388  1.0000
  N   N14       1.0  0.21767  0.02105  0.64810  1.0000
  C   C270      1.0  0.25431  0.05185  0.71051  1.0000
  H   H442      1.0  0.17030  0.21852  0.68995  1.0000
  H   H443      1.0  0.15759  0.21965  0.64872  1.0000
  H   H444      1.0  0.29148  0.16790  0.56345  1.0000
  H   H445      1.0  0.42253  0.30819  0.54378  1.0000
  C   C271      1.0  0.31356  0.14361  0.59405  1.0000
  H   H446      1.0  0.21348  0.29830  0.69397  1.0000
  H   H447      1.0  0.20164  0.03883  0.62295  1.0000
  H   H448      1.0  0.01651  0.01519  0.53226  1.0000
  H   H449      1.0  0.31737  0.07268  0.64527  1.0000
  C   C272      1.0  0.30379  0.13633  0.65472  1.0000
  H   H450      1.0  0.39408  0.30534  0.58764  1.0000
  H   H451      1.0  0.42611  0.27440  0.62006  1.0000
  C   C273      1.0  0.04549  0.06907  0.54631  1.0000
  H   H452      1.0  0.33459  0.16103  0.61465  1.0000
  H   H453      1.0  0.41494  0.27962  0.53081  1.0000
  H   H454      1.0  0.21035  0.28447  0.72763  1.0000
  C   C274      1.0  0.20699  0.21336  0.65942  1.0000
  H   H455      1.0  0.16998  0.19698  0.66475  1.0000
  H   H456      1.0  0.15602  0.03523  0.70088  1.0000
  C   C275      1.0  0.31102  0.16781  0.58487  1.0000
  H   H457      1.0  0.20827  0.31062  0.65783  1.0000
  H   H458      1.0  0.39362  0.26308  0.60140  1.0000
  C   C276      1.0  0.23695  0.03065  0.63747  1.0000
  H   H459      1.0  0.99646  0.01493  0.60156  1.0000
  H   H460      1.0  0.32294  0.24786  0.70013  1.0000
  H   H461      1.0  0.34201  0.17550  0.71903  1.0000
  H   H462      1.0  0.32567  0.17350  0.58325  1.0000
  C   C277      1.0  0.16959  0.21422  0.65880  1.0000
  H   H463      1.0  0.24071  0.04865  0.65848  1.0000
  C   C278      1.0  0.01624  0.07323  0.49123  1.0000
  C   C279      1.0  0.27452  0.05256  0.71250  1.0000
  C   C280      1.0  0.30127  0.14411  0.63150  1.0000
  C   C281      1.0  0.34488  0.30379  0.59052  1.0000
  H   H464      1.0  0.14332  0.11001  0.70774  1.0000
  H   H465      1.0  0.17582  0.16770  0.72099  1.0000
  H   H466      1.0  0.18138  0.03732  0.70399  1.0000
  H   H467      1.0  0.16751  0.05757  0.68570  1.0000
  C   C282      1.0  0.39633  0.24921  0.63336  1.0000
  H   H468      1.0  0.45402  0.32128  0.49830  1.0000
  N   N15       1.0  0.19092  0.21806  0.64585  1.0000
  H   H469      1.0  0.21494  0.20508  0.62156  1.0000
  S   S66       1.0  0.09046  0.00416  0.54909  1.0000
  H   H470      1.0  0.17733  0.11549  0.70972  1.0000
  H   H471      1.0  0.15713  0.12219  0.73193  1.0000
  C   C283      1.0  0.32276  0.22171  0.72767  1.0000
  C   C284      1.0  0.17115  0.04034  0.69245  1.0000
  H   H472      1.0  0.38737  0.28161  0.61817  1.0000
  H   H473      1.0  0.40071  0.25273  0.64667  1.0000
  H   H474      1.0  0.14457  0.27681  0.71914  1.0000
  H   H475      1.0  0.29084  0.17114  0.72872  1.0000
  H   H476      1.0  0.25567  0.13261  0.71888  1.0000
  H   H477      1.0  0.41362  0.31993  0.57305  1.0000
  H   H478      1.0  0.20307  0.02980  0.58912  1.0000
  C   C285      1.0  0.43134  0.28151  0.52922  1.0000
  C   C286      1.0  0.42174  0.27081  0.60675  1.0000
  N   N16       1.0  0.42616  0.28737  0.58682  1.0000
  H   H479      1.0  0.43204  0.25519  0.60482  1.0000
  H   H480      1.0  0.37959  0.24725  0.63821  1.0000
  H   H481      1.0  0.17706  0.28204  0.72611  1.0000
  C   C287      1.0  0.00460  0.00481  0.59061  1.0000
  C   C288      1.0  0.13798  0.22215  0.68818  1.0000
  H   H482      1.0  0.05577  0.99718  0.52524  1.0000
  H   H483      1.0  0.21162  0.03490  0.67520  1.0000
  C   C289      1.0  0.20340  0.03479  0.66288  1.0000
  C   C290      1.0  0.18204  0.02818  0.67500  1.0000
  H   H484      1.0  0.17090  0.03168  0.66431  1.0000
  H   H485      1.0  0.35523  0.14501  0.58229  1.0000
  C   C291      1.0  0.24915  0.03419  0.65252  1.0000
  H   H486      1.0  0.25031  0.02083  0.66635  1.0000
  C   C292      1.0  0.12512  0.16517  0.72290  1.0000
  H   H487      1.0  0.05784  0.05458  0.54464  1.0000
  H   H488      1.0  0.18564  0.25120  0.64630  1.0000
  H   H489      1.0  0.43420  0.26244  0.56941  1.0000
  C   C293      1.0  0.27145  0.03751  0.64129  1.0000
  H   H490      1.0  0.23232  0.04638  0.62705  1.0000
  H   H491      1.0  0.21798  0.99145  0.62264  1.0000
  H   H492      1.0  0.18437  0.01107  0.68242  1.0000
  C   C294      1.0  0.30600  0.10103  0.62299  1.0000
  H   H493      1.0  0.37092  0.16645  0.59688  1.0000
  H   H494      1.0  0.13753  0.20508  0.69354  1.0000
  H   H495      1.0  0.16005  0.24245  0.67281  1.0000
  H   H496      1.0  0.29815  0.13960  0.59485  1.0000
  C   C295      1.0  0.09797  0.05186  0.49744  1.0000
  C   C296      1.0  0.44777  0.29185  0.58442  1.0000
  H   H497      1.0  0.02320  0.08730  0.48866  1.0000
  H   H498      1.0  0.32592  0.07066  0.61788  1.0000
  H   H499      1.0  0.27057  0.13617  0.66904  1.0000
  H   H500      1.0  0.30816  0.11888  0.65936  1.0000
  C   C297      1.0  0.14237  0.16768  0.72940  1.0000
  H   H501      1.0  0.18727  0.29706  0.69241  1.0000
  H   H502      1.0  0.28644  0.14041  0.63033  1.0000
  H   H503      1.0  0.33187  0.10563  0.63433  1.0000
  C   C298      1.0  0.35864  0.13880  0.59830  1.0000
  Fe  Fe36      1.0  0.17847  0.23127  0.73289  1.0000
  C   C299      1.0  0.40997  0.30771  0.58759  1.0000
  H   H504      1.0  0.44923  0.29353  0.54363  1.0000
  C   C300      1.0  0.14698  0.30442  0.72901  1.0000
  C   C301      1.0  0.33869  0.14365  0.61558  1.0000
  H   H505      1.0  0.43620  0.29143  0.51343  1.0000
  H   H506      1.0  0.99892  0.03854  0.55149  1.0000
  H   H507      1.0  0.34372  0.13657  0.63089  1.0000
  H   H508      1.0  0.29840  0.16168  0.62833  1.0000
  H   H509      1.0  0.45064  0.30551  0.57108  1.0000
  H   H510      1.0  0.27840  0.16101  0.66617  1.0000
  C   C302      1.0  0.16714  0.10897  0.72470  1.0000
  H   H511      1.0  0.26347  0.16732  0.71134  1.0000
  H   H512      1.0  0.39046  0.14521  0.58714  1.0000
  H   H513      1.0  0.11958  0.29388  0.72697  1.0000
  C   C303      1.0  0.16905  0.29509  0.73452  1.0000
  H   H514      1.0  0.31933  0.16652  0.55166  1.0000
  H   H515      1.0  0.33452  0.20770  0.73339  1.0000
  C   C304      1.0  0.27789  0.18469  0.72465  1.0000
  H   H516      1.0  0.28172  0.04137  0.72481  1.0000
  H   H517      1.0  0.03959  0.99077  0.51124  1.0000
  C   C305      1.0  0.20407  0.01309  0.59791  1.0000
  H   H518      1.0  0.10966  0.16640  0.73329  1.0000
  C   C306      1.0  0.18775  0.32199  0.70794  1.0000
  H   H519      1.0  0.40669  0.30637  0.62155  1.0000
  H   H520      1.0  0.21197  0.00270  0.58657  1.0000
  C   C307      1.0  0.25910  0.17584  0.72437  1.0000
  H   H521      1.0  0.99523  0.05548  0.51615  1.0000
  C   C308      1.0  0.19772  0.30785  0.69154  1.0000
  H   H522      1.0  0.08165  0.08443  0.49258  1.0000
  H   H523      1.0  0.05662  0.00925  0.49768  1.0000
  C   C309      1.0  0.02674  0.00064  0.58515  1.0000
  C   C310      1.0  0.08404  0.06934  0.48846  1.0000
  H   H524      1.0  0.25796  0.99031  0.65442  1.0000
  H   H525      1.0  0.99387  0.10471  0.59648  1.0000
  H   H526      1.0  0.15764  0.09005  0.49319  1.0000
  C   C311      1.0  0.37268  0.31951  0.55380  1.0000
  H   H527      1.0  0.21028  0.99009  0.66220  1.0000
  N   N17       1.0  0.18341  0.31043  0.73072  1.0000
  H   H528      1.0  0.19038  0.08068  0.73105  1.0000
  H   H529      1.0  0.14109  0.09218  0.73322  1.0000
  H   H530      1.0  0.14801  0.31418  0.71279  1.0000
  H   H531      1.0  0.12999  0.09680  0.49224  1.0000
  C   C312      1.0  0.20101  0.32121  0.66911  1.0000
  C   C313      1.0  0.20442  0.29780  0.73586  1.0000
  H   H532      1.0  0.47967  0.04780  0.73625  1.0000
  C   C314      1.0  0.15382  0.29476  0.80101  1.0000
  C   C315      1.0  0.42337  0.00216  0.81447  1.0000
  S   S67       1.0  0.99197  0.30566  0.85116  1.0000
  S   S68       1.0  0.39619  0.01228  0.90608  1.0000
  H   H533      1.0  0.12216  0.22029  0.92902  1.0000
  Fe  Fe37      1.0  0.44818  0.03155  0.87643  1.0000
  S   S69       1.0  0.41941  0.05360  0.88966  1.0000
  C   C316      1.0  0.30191  0.18516  0.75758  1.0000
  Fe  Fe38      1.0  0.41631  0.02687  0.91795  1.0000
  Fe  Fe39      1.0  0.40157  0.03754  0.87682  1.0000
  S   S70       1.0  0.37671  0.05965  0.85991  1.0000
  S   S71       1.0  0.33522  0.13432  0.74382  1.0000
  S   S72       1.0  0.43066  0.01763  0.86126  1.0000
  C   C317      1.0  0.14895  0.27816  0.79540  1.0000
  Fe  Fe40      1.0  0.28260  0.08690  0.77058  1.0000
  S   S73       1.0  0.24926  0.09275  0.78905  1.0000
  Fe  Fe41      1.0  0.32591  0.05909  0.77288  1.0000
  C   C318      1.0  0.12699  0.29379  0.96733  1.0000
  S   S74       1.0  0.34352  0.03179  0.79402  1.0000
  H   H534      1.0  0.39754  0.10289  0.77667  1.0000
  H   H535      1.0  0.18320  0.20973  0.82911  1.0000
  H   H536      1.0  0.14090  0.23463  0.93109  1.0000
  S   S75       1.0  0.30938  0.08941  0.78313  1.0000
  S   S76       1.0  0.29789  0.05532  0.76264  1.0000
  H   H537      1.0  0.45803  0.03493  0.77059  1.0000
  C   C319      1.0  0.11131  0.31132  0.93688  1.0000
  H   H538      1.0  0.27546  0.01509  0.82106  1.0000
  C   C320      1.0  0.44528  0.06534  0.77986  1.0000
  H   H539      1.0  0.32036  0.15344  0.78688  1.0000
  C   C321      1.0  0.25556  0.13240  0.78563  1.0000
  H   H540      1.0  0.27232  0.12562  0.78281  1.0000
  H   H541      1.0  0.19553  0.15753  0.79398  1.0000
  H   H542      1.0  0.04371  0.30005  0.77765  1.0000
  C   C322      1.0  0.05143  0.29257  0.79138  1.0000
  C   C323      1.0  0.16275  0.11369  0.77643  1.0000
  H   H543      1.0  0.26006  0.16339  0.78428  1.0000
  H   H544      1.0  0.19277  0.12423  0.76654  1.0000
  C   C324      1.0  0.22384  0.06787  0.75293  1.0000
  H   H545      1.0  0.09198  0.22798  0.83304  1.0000
  C   C325      1.0  0.18231  0.11926  0.75919  1.0000
  C   C326      1.0  0.15770  0.12600  0.79384  1.0000
  H   H546      1.0  0.44018  0.99689  0.81587  1.0000
  C   C327      1.0  0.36843  0.05128  0.84148  1.0000
  C   C328      1.0  0.37176  0.02988  0.84119  1.0000
  C   C329      1.0  0.36437  0.02387  0.82640  1.0000
  C   C330      1.0  0.35368  0.03927  0.81190  1.0000
  C   C331      1.0  0.35093  0.06061  0.81198  1.0000
  C   C332      1.0  0.35801  0.06659  0.82687  1.0000
  H   H547      1.0  0.37983  0.01800  0.85249  1.0000
  H   H548      1.0  0.36731  0.00734  0.82602  1.0000
  H   H549      1.0  0.34377  0.07263  0.80032  1.0000
  H   H550      1.0  0.35567  0.08319  0.82689  1.0000
  C   C333      1.0  0.07616  0.28007  0.86775  1.0000
  C   C334      1.0  0.06034  0.26004  0.81740  1.0000
  H   H551      1.0  0.17655  0.24321  0.84002  1.0000
  C   C335      1.0  0.40300  0.09049  0.76727  1.0000
  H   H552      1.0  0.11781  0.28727  0.85170  1.0000
  N   N18       1.0  0.28784  0.06634  0.85110  1.0000
  C   C336      1.0  0.29599  0.08671  0.84266  1.0000
  C   C337      1.0  0.30324  0.04939  0.86272  1.0000
  C   C338      1.0  0.28658  0.05871  0.83236  1.0000
  C   C339      1.0  0.26596  0.06959  0.86481  1.0000
  C   C340      1.0  0.26340  0.07902  0.88413  1.0000
  C   C341      1.0  0.28090  0.10607  0.83203  1.0000
  C   C342      1.0  0.27940  0.03729  0.83736  1.0000
  C   C343      1.0  0.31535  0.05644  0.87558  1.0000
  C   C344      1.0  0.20454  0.28800  0.75952  1.0000
  C   C345      1.0  0.24000  0.08578  0.89393  1.0000
  C   C346      1.0  0.29159  0.12514  0.82297  1.0000
  C   C347      1.0  0.28078  0.03034  0.81715  1.0000
  H   H553      1.0  0.31132  0.08402  0.83120  1.0000
  H   H554      1.0  0.29975  0.09203  0.85522  1.0000
  H   H555      1.0  0.48503  0.07663  0.90617  1.0000
  H   H556      1.0  0.31600  0.04123  0.85142  1.0000
  H   H557      1.0  0.30233  0.05712  0.82134  1.0000
  H   H558      1.0  0.27532  0.07031  0.82320  1.0000
  H   H559      1.0  0.25427  0.07960  0.85516  1.0000
  H   H560      1.0  0.26060  0.05430  0.87134  1.0000
  H   H561      1.0  0.27067  0.09308  0.88003  1.0000
  H   H562      1.0  0.31638  0.02839  0.90121  1.0000
  H   H563      1.0  0.27605  0.10278  0.81896  1.0000
  H   H564      1.0  0.26634  0.11081  0.84362  1.0000
  H   H565      1.0  0.48626  0.05599  0.75672  1.0000
  H   H566      1.0  0.02115  0.25464  0.81641  1.0000
  H   H567      1.0  0.32710  0.06557  0.86475  1.0000
  H   H568      1.0  0.16999  0.08471  0.75318  1.0000
  H   H569      1.0  0.33854  0.02668  0.87903  1.0000
  C   C348      1.0  0.18077  0.09302  0.73980  1.0000
  H   H570      1.0  0.17017  0.29535  0.79963  1.0000
  S   S77       1.0  0.34093  0.07497  0.74057  1.0000
  C   C349      1.0  0.00795  0.28398  0.79726  1.0000
  H   H571      1.0  0.19214  0.27855  0.76688  1.0000
  H   H572      1.0  0.29620  0.12970  0.83557  1.0000
  H   H573      1.0  0.30591  0.12148  0.81067  1.0000
  H   H574      1.0  0.28046  0.13882  0.81565  1.0000
  C   C350      1.0  0.04448  0.30804  0.80655  1.0000
  H   H575      1.0  0.29736  0.02811  0.80803  1.0000
  N   N19       1.0  0.19492  0.10208  0.74770  1.0000
  S   S78       1.0  0.15761  0.19943  0.78843  1.0000
  H   H576      1.0  0.27044  0.04236  0.80724  1.0000
  H   H577      1.0  0.09522  0.29152  0.80800  1.0000
  H   H578      1.0  0.04379  0.23474  0.83703  1.0000
  H   H579      1.0  0.39148  0.06603  0.79268  1.0000
  Fe  Fe42      1.0  0.14830  0.23416  0.77500  1.0000
  H   H580      1.0  0.15731  0.14310  0.78714  1.0000
  H   H581      1.0  0.06342  0.27224  0.86768  1.0000
  C   C351      1.0  0.07558  0.22705  0.84202  1.0000
  C   C352      1.0  0.12785  0.27692  0.79792  1.0000
  C   C353      1.0  0.42176  0.03264  0.96565  1.0000
  H   H582      1.0  0.44523  0.08224  0.77194  1.0000
  C   C354      1.0  0.24866  0.15386  0.78620  1.0000
  H   H583      1.0  0.07441  0.22640  0.76174  1.0000
  S   S79       1.0  0.10160  0.30895  0.91601  1.0000
  C   C355      1.0  0.21912  0.12872  0.79264  1.0000
  C   C356      1.0  0.21227  0.15053  0.79179  1.0000
  H   H584      1.0  0.09627  0.25003  0.87768  1.0000
  H   H585      1.0  0.16151  0.26583  0.79008  1.0000
  C   C357      1.0  0.09748  0.26463  0.86524  1.0000
  S   S80       1.0  0.13861  0.17196  0.75477  1.0000
  H   H586      1.0  0.18405  0.28970  0.87024  1.0000
  H   H587      1.0  0.16924  0.26138  0.86477  1.0000
  H   H588      1.0  0.48591  0.99376  0.86441  1.0000
  C   C358      1.0  0.30912  0.99062  0.76632  1.0000
  H   H589      1.0  0.16320  0.22879  0.81671  1.0000
  H   H590      1.0  0.12295  0.26723  0.90957  1.0000
  C   C359      1.0  0.32858  0.16701  0.78100  1.0000
  H   H591      1.0  0.44946  0.03068  0.94063  1.0000
  S   S81       1.0  0.47863  0.03908  0.85568  1.0000
  H   H592      1.0  0.11001  0.28321  0.87919  1.0000
  H   H593      1.0  0.07496  0.21015  0.84905  1.0000
  H   H594      1.0  0.41853  0.09503  0.79860  1.0000
  C   C360      1.0  0.27147  0.19964  0.74032  1.0000
  H   H595      1.0  0.16823  0.22290  0.86232  1.0000
  S   S82       1.0  0.18168  0.23891  0.76210  1.0000
  H   H596      1.0  0.24714  0.21997  0.77344  1.0000
  C   C361      1.0  0.26250  0.21599  0.77853  1.0000
  H   H597      1.0  0.39041  0.08142  0.74484  1.0000
  C   C362      1.0  0.05980  0.23641  0.82746  1.0000
  H   H598      1.0  0.07309  0.32034  0.96673  1.0000
  H   H599      1.0  0.07639  0.29413  0.85448  1.0000
  H   H600      1.0  0.05511  0.30105  0.94329  1.0000
  H   H601      1.0  0.22854  0.25966  0.75488  1.0000
  C   C363      1.0  0.13760  0.31021  0.80909  1.0000
  H   H602      1.0  0.08401  0.26697  0.76715  1.0000
  C   C364      1.0  0.45721  0.03144  0.96962  1.0000
  H   H603      1.0  0.47138  0.08524  0.96956  1.0000
  C   C365      1.0  0.04507  0.31868  0.91463  1.0000
  N   N20       1.0  0.42400  0.06303  0.79397  1.0000
  H   H604      1.0  0.25808  0.24556  0.78843  1.0000
  C   C366      1.0  0.42493  0.04103  0.80793  1.0000
  C   C367      1.0  0.41823  0.07870  0.80808  1.0000
  H   H605      1.0  0.03067  0.30238  0.86357  1.0000
  H   H606      1.0  0.23895  0.28190  0.75548  1.0000
  Fe  Fe43      1.0  0.15636  0.19520  0.75689  1.0000
  C   C368      1.0  0.43278  0.07498  0.82391  1.0000
  C   C369      1.0  0.41974  0.02385  0.79959  1.0000
  H   H607      1.0  0.24615  0.22529  0.80798  1.0000
  H   H608      1.0  0.27071  0.06682  0.89639  1.0000
  H   H609      1.0  0.10039  0.26047  0.84969  1.0000
  C   C370      1.0  0.42456  0.09099  0.83807  1.0000
  H   H610      1.0  0.07243  0.28528  0.88286  1.0000
  H   H611      1.0  0.47168  0.01120  0.82937  1.0000
  H   H612      1.0  0.44074  0.03482  0.81225  1.0000
  H   H613      1.0  0.41331  0.04166  0.82313  1.0000
  H   H614      1.0  0.40168  0.07895  0.81734  1.0000
  S   S83       1.0  0.44705  0.00629  0.90603  1.0000
  H   H615      1.0  0.41331  0.00268  0.83036  1.0000
  C   C371      1.0  0.40676  0.06806  0.78162  1.0000
  H   H616      1.0  0.15217  0.23829  0.89239  1.0000
  H   H617      1.0  0.05814  0.30062  0.97532  1.0000
  H   H618      1.0  0.11320  0.24187  0.94253  1.0000
  H   H619      1.0  0.23858  0.09191  0.90811  1.0000
  H   H620      1.0  0.44911  0.07680  0.81558  1.0000
  H   H621      1.0  0.43364  0.05902  0.83430  1.0000
  H   H622      1.0  0.40282  0.02783  0.79847  1.0000
  H   H623      1.0  0.42932  0.02235  0.78380  1.0000
  C   C372      1.0  0.08049  0.24134  0.75581  1.0000
  H   H624      1.0  0.02721  0.31037  0.81299  1.0000
  C   C373      1.0  0.02488  0.31888  0.85716  1.0000
  H   H625      1.0  0.16585  0.28707  0.75137  1.0000
  H   H626      1.0  0.10409  0.25356  0.90779  1.0000
  H   H627      1.0  0.32140  0.99797  0.86692  1.0000
  H   H628      1.0  0.27446  0.22315  0.80240  1.0000
  H   H629      1.0  0.08585  0.24187  0.78553  1.0000
  S   S84       1.0  0.12154  0.25526  0.79272  1.0000
  H   H630      1.0  0.42395  0.10740  0.82854  1.0000
  H   H631      1.0  0.34181  0.16372  0.76758  1.0000
  H   H632      1.0  0.43536  0.08807  0.84905  1.0000
  C   C374      1.0  0.32750  0.03735  0.88901  1.0000
  C   C375      1.0  0.24078  0.11975  0.78910  1.0000
  S   S85       1.0  0.40388  0.03171  0.95107  1.0000
  Fe  Fe44      1.0  0.19073  0.20370  0.77287  1.0000
  H   H633      1.0  0.29502  0.03683  0.87355  1.0000
  H   H634      1.0  0.46492  0.06143  0.88966  1.0000
  C   C376      1.0  0.16813  0.30019  0.87081  1.0000
  H   H635      1.0  0.01170  0.27927  0.78195  1.0000
  H   H636      1.0  0.13098  0.22944  0.88865  1.0000
  H   H637      1.0  0.40850  0.08935  0.84755  1.0000
  C   C377      1.0  0.22708  0.16308  0.78873  1.0000
  C   C378      1.0  0.45364  0.05185  0.76294  1.0000
  H   H638      1.0  0.20772  0.11882  0.79581  1.0000
  C   C379      1.0  0.12018  0.29280  0.94975  1.0000
  H   H639      1.0  0.16492  0.09669  0.78412  1.0000
  C   C380      1.0  0.26020  0.22832  0.79532  1.0000
  S   S86       1.0  0.21894  0.19029  0.78789  1.0000
  C   C381      1.0  0.38576  0.09301  0.75515  1.0000
  H   H640      1.0  0.27307  0.23685  0.74922  1.0000
  H   H641      1.0  0.15532  0.28166  0.84712  1.0000
  H   H642      1.0  0.32221  0.20031  0.76797  1.0000
  H   H643      1.0  0.14870  0.11766  0.76913  1.0000
  H   H644      1.0  0.30132  0.19100  0.78830  1.0000
  H   H645      1.0  0.19464  0.07568  0.77466  1.0000
  Fe  Fe45      1.0  0.32209  0.10508  0.75009  1.0000
  H   H646      1.0  0.04525  0.26786  0.77018  1.0000
  C   C382      1.0  0.47366  0.05805  0.74792  1.0000
  H   H647      1.0  0.07712  0.26159  0.81096  1.0000
  H   H648      1.0  0.02714  0.29370  0.97806  1.0000
  C   C383      1.0  0.31317  0.18746  0.77406  1.0000
  H   H649      1.0  0.14002  0.25806  0.83557  1.0000
  H   H650      1.0  0.28937  0.02456  0.84698  1.0000
  C   C384      1.0  0.23279  0.04999  0.76978  1.0000
  H   H651      1.0  0.40961  0.05670  0.77140  1.0000
  H   H652      1.0  0.21319  0.09108  0.77236  1.0000
  H   H653      1.0  0.47392  0.03063  0.96289  1.0000
  H   H654      1.0  0.41914  0.99030  0.80840  1.0000
  H   H655      1.0  0.30592  0.00695  0.76889  1.0000
  H   H656      1.0  0.12184  0.27762  0.94611  1.0000
  C   C385      1.0  0.11158  0.29247  0.80588  1.0000
  H   H657      1.0  0.13069  0.23638  0.85402  1.0000
  H   H658      1.0  0.26559  0.19886  0.78588  1.0000
  H   H659      1.0  0.24569  0.03859  0.76208  1.0000
  H   H660      1.0  0.23951  0.05633  0.77966  1.0000
  H   H661      1.0  0.22026  0.04146  0.77995  1.0000
  H   H662      1.0  0.23192  0.09855  0.88257  1.0000
  H   H663      1.0  0.15576  0.20779  0.83869  1.0000
  H   H664      1.0  0.14199  0.12412  0.80404  1.0000
  H   H665      1.0  0.16983  0.11989  0.80372  1.0000
  H   H666      1.0  0.33532  0.16854  0.79380  1.0000
  C   C386      1.0  0.04221  0.31434  0.93859  1.0000
  C   C387      1.0  0.16673  0.21902  0.83204  1.0000
  H   H667      1.0  0.04672  0.24366  0.78891  1.0000
  H   H668      1.0  0.07164  0.23564  0.85496  1.0000
  C   C388      1.0  0.20612  0.08455  0.76288  1.0000
  H   H669      1.0  0.26264  0.03873  0.84594  1.0000
  H   H670      1.0  0.15212  0.27805  0.89443  1.0000
  C   C389      1.0  0.05300  0.25852  0.78346  1.0000
  H   H671      1.0  0.05493  0.26825  0.83075  1.0000
  H   H672      1.0  0.06389  0.22670  0.81546  1.0000
  C   C390      1.0  0.44340  0.03151  0.95699  1.0000
  N   N21       1.0  0.13657  0.25944  0.86796  1.0000
  C   C391      1.0  0.11569  0.27460  0.86618  1.0000
  C   C392      1.0  0.15361  0.27206  0.86360  1.0000
  C   C393      1.0  0.14196  0.24709  0.85084  1.0000
  C   C394      1.0  0.13594  0.24397  0.88902  1.0000
  C   C395      1.0  0.12089  0.25177  0.90851  1.0000
  C   C396      1.0  0.28012  0.22174  0.75907  1.0000
  C   C397      1.0  0.16453  0.23314  0.84726  1.0000
  C   C398      1.0  0.15075  0.28720  0.87832  1.0000
  H   H673      1.0  0.31074  0.99195  0.83721  1.0000
  C   C399      1.0  0.12459  0.23609  0.92899  1.0000
  H   H674      1.0  0.30475  0.06660  0.88616  1.0000
  H   H675      1.0  0.21770  0.06068  0.74335  1.0000
  S   S87       1.0  0.29346  0.10572  0.73836  1.0000
  N   N22       1.0  0.28951  0.20515  0.74605  1.0000
  H   H676      1.0  0.29163  0.17355  0.76614  1.0000
  C   C400      1.0  0.11645  0.30919  0.81134  1.0000
  C   C401      1.0  0.12413  0.31320  0.97278  1.0000
  H   H677      1.0  0.45771  0.06087  0.78938  1.0000
  H   H678      1.0  0.33703  0.04285  0.89698  1.0000
  H   H679      1.0  0.23193  0.07213  0.89876  1.0000
  C   C402      1.0  0.48196  0.05937  0.88466  1.0000
  C   C403      1.0  0.07696  0.25268  0.77370  1.0000
  H   H680      1.0  0.31393  0.17688  0.74612  1.0000
  H   H681      1.0  0.00772  0.30116  0.79414  1.0000
  Fe  Fe46      1.0  0.42732  0.99399  0.89172  1.0000
  H   H682      1.0  0.38320  0.10919  0.74507  1.0000
  H   H683      1.0  0.17661  0.13391  0.74804  1.0000
  H   H684      1.0  0.02666  0.30963  0.94526  1.0000
  S   S88       1.0  0.14427  0.22953  0.74469  1.0000
  N   N23       1.0  0.04724  0.27053  0.80086  1.0000
  H   H685      1.0  0.07249  0.25164  0.74304  1.0000
  H   H686      1.0  0.29251  0.22593  0.76445  1.0000
  H   H687      1.0  0.47021  0.07477  0.73925  1.0000
  H   H688      1.0  0.13536  0.29852  0.87883  1.0000
  H   H689      1.0  0.06867  0.29191  0.78496  1.0000
  H   H690      1.0  0.47705  0.99471  0.81057  1.0000
  C   C404      1.0  0.02419  0.27101  0.81114  1.0000
  C   C405      1.0  0.22572  0.27328  0.76240  1.0000
  S   S89       1.0  0.19043  0.19633  0.74239  1.0000
  H   H691      1.0  0.16721  0.31040  0.85493  1.0000
  H   H692      1.0  0.05283  0.30216  0.81985  1.0000
  H   H693      1.0  0.02002  0.27712  0.82582  1.0000
  H   H694      1.0  0.23722  0.07515  0.74277  1.0000
  H   H695      1.0  0.13359  0.27682  0.74675  1.0000
  H   H696      1.0  0.37051  0.09073  0.76618  1.0000
  C   C406      1.0  0.05788  0.31673  0.97685  1.0000
  H   H697      1.0  0.09769  0.23728  0.74909  1.0000
  H   H698      1.0  0.41766  0.09347  0.75559  1.0000
  H   H699      1.0  0.13698  0.31399  0.74048  1.0000
  H   H700      1.0  0.32123  0.99254  0.80124  1.0000
  H   H701      1.0  0.44188  0.05382  0.75328  1.0000
  H   H702      1.0  0.13397  0.27937  0.97712  1.0000
  H   H703      1.0  0.20191  0.30051  0.76841  1.0000
  H   H704      1.0  0.25470  0.16459  0.73947  1.0000
  H   H705      1.0  0.21959  0.13547  0.73967  1.0000
  H   H706      1.0  0.04419  0.30436  0.90987  1.0000
  H   H707      1.0  0.23483  0.10937  0.74707  1.0000
  H   H708      1.0  0.31848  0.23281  0.73837  1.0000
  H   H709      1.0  0.16604  0.31055  0.88191  1.0000
  H   H710      1.0  0.26116  0.19202  0.75464  1.0000
  H   H711      1.0  0.22537  0.26704  0.77947  1.0000
  H   H712      1.0  0.47391  0.10259  0.98472  1.0000
  C   C407      1.0  0.48363  0.99892  0.82203  1.0000
  H   H713      1.0  0.33794  0.99393  0.83047  1.0000
  H   H714      1.0  0.31288  0.99151  0.74908  1.0000
  H   H715      1.0  0.16612  0.31804  0.76064  1.0000
  H   H716      1.0  0.10386  0.32122  0.81740  1.0000
  C   C408      1.0  0.46920  0.08755  0.98577  1.0000
  H   H717      1.0  0.16674  0.52606  0.15986  1.0000
  H   H718      1.0  0.09125  0.54798  0.00643  1.0000
  H   H719      1.0  0.13050  0.37490  0.11366  1.0000
  H   H720      1.0  0.22350  0.55882  0.23027  1.0000
  H   H721      1.0  0.03006  0.58416  0.03406  1.0000
  C   C409      1.0  0.20421  0.51906  0.09390  1.0000
  Fe  Fe47      1.0  0.19275  0.60537  0.18064  1.0000
  Fe  Fe48      1.0  0.17134  0.58874  0.15587  1.0000
  S   S90       1.0  0.16842  0.62139  0.16089  1.0000
  S   S91       1.0  0.14488  0.57287  0.15726  1.0000
  Fe  Fe49      1.0  0.21908  0.57794  0.15004  1.0000
  S   S92       1.0  0.24715  0.55211  0.14317  1.0000
  Fe  Fe50      1.0  0.19679  0.62295  0.13421  1.0000
  C   C410      1.0  0.03056  0.34403  0.04039  1.0000
  S   S93       1.0  0.19314  0.57252  0.17830  1.0000
  S   S94       1.0  0.19756  0.59182  0.12731  1.0000
  S   S95       1.0  0.12888  0.41437  0.00281  1.0000
  Fe  Fe51      1.0  0.12647  0.49132  0.06395  1.0000
  S   S96       1.0  0.10249  0.50542  0.04370  1.0000
  S   S97       1.0  0.13262  0.45598  0.07541  1.0000
  Fe  Fe52      1.0  0.13546  0.53407  0.06219  1.0000
  S   S98       1.0  0.11207  0.55168  0.04177  1.0000
  S   S99       1.0  0.15510  0.55369  0.06813  1.0000
  Fe  Fe53      1.0  0.09102  0.53008  0.06314  1.0000
  S   S100      1.0  0.05642  0.54169  0.07613  1.0000
  Fe  Fe54      1.0  0.12583  0.52547  0.02443  1.0000
  H   H722      1.0  0.23597  0.62623  0.20035  1.0000
  S   S101      1.0  0.11333  0.51441  0.08524  1.0000
  S   S102      1.0  0.15094  0.50936  0.04307  1.0000
  C   C411      1.0  0.04075  0.53104  0.06605  1.0000
  C   C412      1.0  0.04806  0.52614  0.04620  1.0000
  C   C413      1.0  0.03609  0.51667  0.03858  1.0000
  C   C414      1.0  0.01637  0.51275  0.05042  1.0000
  C   C415      1.0  0.20066  0.41423  0.04579  1.0000
  C   C416      1.0  0.02102  0.52707  0.07799  1.0000
  H   H723      1.0  0.06289  0.52978  0.03655  1.0000
  H   H724      1.0  0.04214  0.51250  0.02337  1.0000
  C   C417      1.0  0.99672  0.58039  0.01525  1.0000
  H   H725      1.0  0.01771  0.45506  0.01697  1.0000
  C   C418      1.0  0.13078  0.42550  0.02294  1.0000
  C   C419      1.0  0.12836  0.41411  0.04384  1.0000
  C   C420      1.0  0.12907  0.42343  0.05990  1.0000
  C   C421      1.0  0.13230  0.44418  0.05513  1.0000
  C   C422      1.0  0.13513  0.45544  0.03418  1.0000
  C   C423      1.0  0.13443  0.44610  0.01811  1.0000
  H   H726      1.0  0.12604  0.39804  0.04765  1.0000
  H   H727      1.0  0.12693  0.41456  0.07601  1.0000
  H   H728      1.0  0.13799  0.47134  0.03026  1.0000
  H   H729      1.0  0.13643  0.45498  0.00198  1.0000
  C   C424      1.0  0.14594  0.56821  0.13255  1.0000
  C   C425      1.0  0.13937  0.55047  0.13108  1.0000
  C   C426      1.0  0.14157  0.54605  0.11128  1.0000
  C   C427      1.0  0.15016  0.55949  0.09301  1.0000
  C   C428      1.0  0.15616  0.57744  0.09452  1.0000
  C   C429      1.0  0.15394  0.58186  0.11422  1.0000
  H   H730      1.0  0.13307  0.53991  0.14526  1.0000
  H   H731      1.0  0.13727  0.53196  0.11017  1.0000
  H   H732      1.0  0.16280  0.58789  0.08041  1.0000
  H   H733      1.0  0.15843  0.59590  0.11518  1.0000
  H   H734      1.0  0.19649  0.49241  0.07261  1.0000
  C   C430      1.0  0.28344  0.51438  0.18367  1.0000
  C   C431      1.0  0.27429  0.52304  0.16592  1.0000
  C   C432      1.0  0.25937  0.54208  0.16487  1.0000
  C   C433      1.0  0.25406  0.55276  0.18131  1.0000
  C   C434      1.0  0.26360  0.54431  0.19882  1.0000
  H   H735      1.0  0.20747  0.32924  0.05584  1.0000
  H   H736      1.0  0.27852  0.51483  0.15317  1.0000
  H   H737      1.0  0.24253  0.56748  0.18063  1.0000
  S   S103      1.0  0.33352  0.59183  0.21311  1.0000
  Fe  Fe55      1.0  0.11654  0.34032  0.01184  1.0000
  C   C435      1.0  0.01649  0.33025  0.04480  1.0000
  C   C436      1.0  0.16044  0.39899  0.10709  1.0000
  H   H738      1.0  0.23213  0.58244  0.08923  1.0000
  C   C437      1.0  0.17656  0.34283  0.09717  1.0000
  H   H739      1.0  0.09949  0.57283  0.16486  1.0000
  H   H740      1.0  0.04624  0.33796  0.04366  1.0000
  S   S104      1.0  0.04155  0.38315  0.02513  1.0000
  H   H741      1.0  0.14593  0.39514  0.14128  1.0000
  C   C438      1.0  0.16915  0.35419  0.07892  1.0000
  C   C439      1.0  0.32414  0.61920  0.20846  1.0000
  C   C440      1.0  0.13700  0.34013  0.09207  1.0000
  H   H742      1.0  0.06171  0.52310  0.14786  1.0000
  H   H743      1.0  0.04246  0.61747  0.01606  1.0000
  H   H744      1.0  0.01207  0.33472  0.99487  1.0000
  C   C441      1.0  0.32917  0.65442  0.18941  1.0000
  H   H745      1.0  0.17880  0.36384  0.06656  1.0000
  S   S105      1.0  0.25159  0.33930  0.17243  1.0000
  H   H746      1.0  0.17082  0.46038  0.13151  1.0000
  H   H747      1.0  0.20847  0.41324  0.08414  1.0000
  H   H748      1.0  0.04293  0.59927  0.12566  1.0000
  S   S106      1.0  0.09047  0.38301  0.04483  1.0000
  Fe  Fe56      1.0  0.11642  0.38433  0.01608  1.0000
  N   N24       1.0  0.05011  0.43927  0.07486  1.0000
  C   C442      1.0  0.06443  0.44037  0.05331  1.0000
  C   C443      1.0  0.05445  0.41693  0.08764  1.0000
  C   C444      1.0  0.02752  0.44392  0.07202  1.0000
  C   C445      1.0  0.05218  0.45510  0.08617  1.0000
  C   C446      1.0  0.07417  0.46107  0.08156  1.0000
  C   C447      1.0  0.05899  0.46114  0.03698  1.0000
  H   H749      1.0  0.00407  0.56677  0.04633  1.0000
  C   C448      1.0  0.07707  0.40806  0.09193  1.0000
  C   C449      1.0  0.07959  0.38474  0.10317  1.0000
  C   C450      1.0  0.07424  0.47518  0.09598  1.0000
  C   C451      1.0  0.07761  0.46463  0.01861  1.0000
  H   H750      1.0  0.06388  0.42716  0.04646  1.0000
  H   H751      1.0  0.08128  0.43800  0.05418  1.0000
  H   H752      1.0  0.04377  0.41546  0.10346  1.0000
  H   H753      1.0  0.05089  0.40589  0.07981  1.0000
  H   H754      1.0  0.02590  0.43369  0.06220  1.0000
  H   H755      1.0  0.02321  0.46045  0.06320  1.0000
  H   H756      1.0  0.04090  0.47042  0.08238  1.0000
  H   H757      1.0  0.21524  0.42008  0.04423  1.0000
  H   H758      1.0  0.07813  0.47004  0.06513  1.0000
  H   H759      1.0  0.08704  0.44701  0.08370  1.0000
  H   H760      1.0  0.04552  0.46059  0.03050  1.0000
  H   H761      1.0  0.05429  0.47500  0.04434  1.0000
  C   C452      1.0  0.27810  0.52500  0.20017  1.0000
  C   C453      1.0  0.04192  0.60029  0.09376  1.0000
  H   H762      1.0  0.08923  0.40909  0.07717  1.0000
  H   H763      1.0  0.08017  0.41665  0.10240  1.0000
  H   H764      1.0  0.07617  0.37523  0.09372  1.0000
  H   H765      1.0  0.09614  0.37841  0.10530  1.0000
  H   H766      1.0  0.06881  0.38278  0.11889  1.0000
  H   H767      1.0  0.06225  0.49009  0.09346  1.0000
  H   H768      1.0  0.06069  0.60252  0.14908  1.0000
  H   H769      1.0  0.24560  0.64535  0.17770  1.0000
  H   H770      1.0  0.08334  0.45080  0.01103  1.0000
  H   H771      1.0  0.07246  0.47895  0.00684  1.0000
  H   H772      1.0  0.09079  0.46726  0.02415  1.0000
  S   S107      1.0  0.27869  0.57237  0.22990  1.0000
  C   C454      1.0  0.23417  0.50322  0.11172  1.0000
  H   H773      1.0  0.14378  0.36179  0.06233  1.0000
  C   C455      1.0  0.01024  0.44128  0.09257  1.0000
  H   H774      1.0  0.35968  0.61259  0.22859  1.0000
  C   C456      1.0  0.00866  0.51821  0.07005  1.0000
  H   H775      1.0  0.25925  0.55247  0.21151  1.0000
  H   H776      1.0  0.17885  0.50433  0.11585  1.0000
  H   H777      1.0  0.02619  0.55715  0.01387  1.0000
  Fe  Fe57      1.0  0.07540  0.36879  0.02749  1.0000
  C   C457      1.0  0.37639  0.51332  0.22212  1.0000
  S   S108      1.0  0.13557  0.35232  0.02736  1.0000
  H   H778      1.0  0.41011  0.56258  0.21797  1.0000
  C   C458      1.0  0.22588  0.57954  0.07673  1.0000
  H   H779      1.0  0.22430  0.39670  0.10992  1.0000
  H   H780      1.0  0.14855  0.41248  0.10053  1.0000
  H   H781      1.0  0.18136  0.39099  0.13954  1.0000
  C   C459      1.0  0.18365  0.49597  0.08623  1.0000
  C   C460      1.0  0.25719  0.33035  0.19775  1.0000
  H   H782      1.0  0.26235  0.51528  0.11021  1.0000
  H   H783      1.0  0.23698  0.54493  0.10434  1.0000
  H   H784      1.0  0.21144  0.38058  0.15771  1.0000
  H   H785      1.0  0.99087  0.58637  0.10952  1.0000
  C   C461      1.0  0.00376  0.37323  0.02781  1.0000
  C   C462      1.0  0.17419  0.42909  0.10982  1.0000
  H   H786      1.0  0.32237  0.63324  0.15702  1.0000
  C   C463      1.0  0.04167  0.61122  0.03322  1.0000
  C   C464      1.0  0.99764  0.43477  0.01541  1.0000
  C   C465      1.0  0.12797  0.38345  0.12640  1.0000
  H   H787      1.0  0.99916  0.62320  0.04873  1.0000
  Fe  Fe58      1.0  0.30942  0.57449  0.23587  1.0000
  H   H788      1.0  0.24048  0.53556  0.08107  1.0000
  H   H789      1.0  0.29471  0.49947  0.18459  1.0000
  H   H790      1.0  0.09003  0.47932  0.09235  1.0000
  H   H791      1.0  0.11694  0.39887  0.12284  1.0000
  H   H792      1.0  0.15276  0.55088  0.22522  1.0000
  H   H793      1.0  0.21443  0.51693  0.07831  1.0000
  H   H794      1.0  0.20493  0.39712  0.04553  1.0000
  H   H795      1.0  0.35167  0.62575  0.18465  1.0000
  C   C466      1.0  0.35835  0.33611  0.23044  1.0000
  H   H796      1.0  0.16446  0.38777  0.09645  1.0000
  N   N25       1.0  0.29950  0.60302  0.15383  1.0000
  C   C467      1.0  0.31748  0.61263  0.13903  1.0000
  C   C468      1.0  0.28867  0.59517  0.14122  1.0000
  C   C469      1.0  0.28450  0.61974  0.16472  1.0000
  C   C470      1.0  0.30733  0.58455  0.17039  1.0000
  C   C471      1.0  0.32573  0.56727  0.16227  1.0000
  S   S109      1.0  0.20240  0.65138  0.10850  1.0000
  C   C472      1.0  0.26406  0.61327  0.17939  1.0000
  C   C473      1.0  0.27686  0.61245  0.12538  1.0000
  C   C474      1.0  0.26823  0.60271  0.11213  1.0000
  C   C475      1.0  0.33197  0.54950  0.18059  1.0000
  C   C476      1.0  0.33650  0.63246  0.19338  1.0000
  H   H797      1.0  0.04748  0.44941  0.10351  1.0000
  H   H798      1.0  0.04582  0.43120  0.00547  1.0000
  H   H799      1.0  0.32770  0.60162  0.12895  1.0000
  H   H800      1.0  0.30042  0.58424  0.13194  1.0000
  H   H801      1.0  0.27713  0.58552  0.15179  1.0000
  H   H802      1.0  0.07094  0.46682  0.11275  1.0000
  H   H803      1.0  0.29248  0.62442  0.17484  1.0000
  H   H804      1.0  0.31219  0.59015  0.18217  1.0000
  H   H805      1.0  0.29424  0.57623  0.17955  1.0000
  H   H806      1.0  0.34002  0.57383  0.15370  1.0000
  H   H807      1.0  0.32098  0.56011  0.15162  1.0000
  H   H808      1.0  0.18060  0.43519  0.06522  1.0000
  H   H809      1.0  0.33840  0.60693  0.16147  1.0000
  H   H810      1.0  0.26775  0.59947  0.19213  1.0000
  H   H811      1.0  0.25931  0.63534  0.19948  1.0000
  H   H812      1.0  0.26328  0.62249  0.13386  1.0000
  H   H813      1.0  0.28740  0.62269  0.11425  1.0000
  H   H814      1.0  0.25961  0.61550  0.10122  1.0000
  H   H815      1.0  0.28132  0.59297  0.10269  1.0000
  H   H816      1.0  0.25698  0.59273  0.12233  1.0000
  H   H817      1.0  0.31827  0.54206  0.18956  1.0000
  H   H818      1.0  0.34495  0.53714  0.17449  1.0000
  H   H819      1.0  0.33756  0.55573  0.19143  1.0000
  H   H820      1.0  0.27999  0.63450  0.15303  1.0000
  H   H821      1.0  0.20264  0.63803  0.23446  1.0000
  H   H822      1.0  0.14496  0.45825  0.14768  1.0000
  C   C477      1.0  0.25044  0.63123  0.18982  1.0000
  H   H823      1.0  0.01334  0.61748  0.08237  1.0000
  C   C478      1.0  0.35001  0.62811  0.13308  1.0000
  H   H824      1.0  0.18030  0.50677  0.17882  1.0000
  S   S110      1.0  0.22076  0.60926  0.15432  1.0000
  C   C479      1.0  0.19250  0.50034  0.10305  1.0000
  H   H825      1.0  0.19155  0.53318  0.09044  1.0000
  H   H826      1.0  0.01142  0.61589  0.10985  1.0000
  H   H827      1.0  0.16599  0.43958  0.09731  1.0000
  H   H828      1.0  0.21503  0.59428  0.07071  1.0000
  S   S111      1.0  0.13475  0.53051  0.98938  1.0000
  Fe  Fe59      1.0  0.10827  0.35004  0.05498  1.0000
  H   H829      1.0  0.24431  0.51360  0.13530  1.0000
  H   H830      1.0  0.20297  0.48544  0.10913  1.0000
  H   H831      1.0  0.19327  0.49865  0.14329  1.0000
  H   H832      1.0  0.42269  0.53700  0.22932  1.0000
  H   H833      1.0  0.25491  0.47437  0.14278  1.0000
  H   H834      1.0  0.21348  0.50366  0.15309  1.0000
  H   H835      1.0  0.23928  0.57584  0.06360  1.0000
  H   H836      1.0  0.43998  0.58087  0.20866  1.0000
  H   H837      1.0  0.34389  0.64168  0.12103  1.0000
  H   H838      1.0  0.06603  0.32897  0.00020  1.0000
  H   H839      1.0  0.20793  0.55946  0.07230  1.0000
  H   H840      1.0  0.17168  0.50980  0.08060  1.0000
  H   H841      1.0  0.27239  0.47568  0.11703  1.0000
  C   C480      1.0  0.20325  0.52919  0.12720  1.0000
  H   H842      1.0  0.18718  0.53243  0.16870  1.0000
  H   H843      1.0  0.20001  0.56617  0.09773  1.0000
  H   H844      1.0  0.18769  0.53884  0.12397  1.0000
  N   N26       1.0  0.07383  0.58308  0.11198  1.0000
  C   C481      1.0  0.06686  0.56215  0.12086  1.0000
  C   C482      1.0  0.05435  0.60036  0.11023  1.0000
  C   C483      1.0  0.08837  0.58229  0.09073  1.0000
  C   C484      1.0  0.08564  0.58741  0.12609  1.0000
  C   C485      1.0  0.07324  0.58795  0.14897  1.0000
  C   C486      1.0  0.08394  0.54302  0.12846  1.0000
  C   C487      1.0  0.09567  0.60322  0.07827  1.0000
  H   H845      1.0  0.20941  0.41294  0.12853  1.0000
  H   H846      1.0  0.17064  0.41234  0.06633  1.0000
  C   C488      1.0  0.08787  0.58807  0.16293  1.0000
  C   C489      1.0  0.07577  0.52242  0.13470  1.0000
  C   C490      1.0  0.10733  0.60170  0.05582  1.0000
  H   H847      1.0  0.06107  0.55781  0.10889  1.0000
  H   H848      1.0  0.05296  0.56326  0.13421  1.0000
  H   H849      1.0  0.14356  0.42968  0.13185  1.0000
  H   H850      1.0  0.05834  0.61624  0.10687  1.0000
  H   H851      1.0  0.08104  0.57681  0.08061  1.0000
  H   H852      1.0  0.10314  0.57022  0.09240  1.0000
  H   H853      1.0  0.10088  0.57583  0.12650  1.0000
  H   H854      1.0  0.09033  0.60304  0.11958  1.0000
  H   H855      1.0  0.06564  0.57411  0.15630  1.0000
  C   C491      1.0  0.21239  0.39714  0.12483  1.0000
  H   H856      1.0  0.09832  0.54127  0.11592  1.0000
  H   H857      1.0  0.08855  0.54494  0.14241  1.0000
  H   H858      1.0  0.10677  0.60672  0.08599  1.0000
  H   H859      1.0  0.08217  0.61684  0.07707  1.0000
  H   H860      1.0  0.99860  0.38976  0.02123  1.0000
  H   H861      1.0  0.35960  0.63366  0.14091  1.0000
  H   H862      1.0  0.19327  0.42292  0.03210  1.0000
  H   H863      1.0  0.23722  0.38491  0.14290  1.0000
  H   H864      1.0  0.09658  0.60125  0.15602  1.0000
  H   H865      1.0  0.15252  0.59495  0.23069  1.0000
  H   H866      1.0  0.45561  0.55422  0.21360  1.0000
  C   C492      1.0  0.18495  0.41788  0.06613  1.0000
  H   H867      1.0  0.07139  0.51946  0.12107  1.0000
  H   H868      1.0  0.08837  0.50897  0.13986  1.0000
  C   C493      1.0  0.19153  0.39188  0.12356  1.0000
  H   H869      1.0  0.09674  0.59889  0.04703  1.0000
  H   H870      1.0  0.11270  0.61671  0.04744  1.0000
  H   H871      1.0  0.12150  0.58868  0.05595  1.0000
  H   H872      1.0  0.17584  0.48218  0.09284  1.0000
  H   H873      1.0  0.14791  0.46665  0.11955  1.0000
  H   H874      1.0  0.22722  0.48971  0.12201  1.0000
  H   H875      1.0  0.31172  0.32531  0.12382  1.0000
  H   H876      1.0  0.20135  0.38934  0.08424  1.0000
  C   C494      1.0  0.25146  0.50566  0.12193  1.0000
  C   C495      1.0  0.22827  0.54062  0.09459  1.0000
  C   C496      1.0  0.26485  0.48418  0.13002  1.0000
  C   C497      1.0  0.18225  0.51969  0.16459  1.0000
  C   C498      1.0  0.14938  0.35292  0.07642  1.0000
  C   C499      1.0  0.21383  0.56144  0.08547  1.0000
  S   S112      1.0  0.09053  0.33541  0.04043  1.0000
  C   C500      1.0  0.22236  0.38090  0.14209  1.0000
  C   C501      1.0  0.19887  0.51118  0.14684  1.0000
  H   H877      1.0  0.24251  0.49795  0.09679  1.0000
  N   N27       1.0  0.21722  0.52274  0.10737  1.0000
  H   H878      1.0  0.07846  0.59005  0.17876  1.0000
  H   H879      1.0  0.21018  0.53991  0.13240  1.0000
  H   H880      1.0  0.02580  0.59094  0.05919  1.0000
  H   H881      1.0  0.19539  0.37546  0.12103  1.0000
  C   C502      1.0  0.18056  0.63591  0.21718  1.0000
  C   C503      1.0  0.33164  0.61995  0.14946  1.0000
  N   N28       1.0  0.17997  0.40660  0.10699  1.0000
  H   H882      1.0  0.18866  0.43538  0.10764  1.0000
  H   H883      1.0  0.27753  0.48651  0.13651  1.0000
  H   H884      1.0  0.03382  0.48012  0.99054  1.0000
  H   H885      1.0  0.15530  0.63753  0.20211  1.0000
  H   H886      1.0  0.15908  0.37091  0.13289  1.0000
  C   C504      1.0  0.19471  0.40608  0.08575  1.0000
  S   S113      1.0  0.19588  0.61243  0.21015  1.0000
  H   H887      1.0  0.22637  0.36486  0.13862  1.0000
  C   C505      1.0  0.02423  0.36553  0.03172  1.0000
  H   H888      1.0  0.12062  0.37380  0.14140  1.0000
  H   H889      1.0  0.16595  0.42291  0.14456  1.0000
  H   H890      1.0  0.36544  0.54608  0.22290  1.0000
  C   C506      1.0  0.15561  0.45600  0.13241  1.0000
  H   H891      1.0  0.03675  0.58504  0.09708  1.0000
  H   H892      1.0  0.01548  0.53046  0.09355  1.0000
  C   C507      1.0  0.15930  0.43293  0.13086  1.0000
  S   S114      1.0  0.20186  0.34384  0.09925  1.0000
  C   C508      1.0  0.02212  0.61793  0.09406  1.0000
  C   C509      1.0  0.14909  0.38681  0.12833  1.0000
  S   S115      1.0  0.00281  0.49901  0.04131  1.0000
  C   C510      1.0  0.16386  0.33071  0.11325  1.0000
  H   H893      1.0  0.37134  0.51595  0.20701  1.0000
  H   H894      1.0  0.25454  0.60912  0.17058  1.0000
  C   C511      1.0  0.00581  0.45581  0.00781  1.0000
  C   C512      1.0  0.01098  0.56048  0.00872  1.0000
  S   S116      1.0  0.11312  0.33686  0.08827  1.0000
  H   H895      1.0  0.36368  0.50761  0.23516  1.0000
  S   S117      1.0  0.28944  0.51370  0.22245  1.0000
  C   C513      1.0  0.05090  0.43810  0.98849  1.0000
  H   H896      1.0  0.05177  0.60285  0.07761  1.0000
  H   H897      1.0  0.01069  0.42132  0.01208  1.0000
  C   C514      1.0  0.02508  0.59735  0.04244  1.0000
  H   H898      1.0  0.03792  0.62464  0.04121  1.0000
  H   H899      1.0  0.18696  0.32467  0.20696  1.0000
  C   C515      1.0  0.44695  0.56800  0.22072  1.0000
  H   H900      1.0  0.05750  0.60160  0.03548  1.0000
  H   H901      1.0  0.02534  0.51808  0.99299  1.0000
  H   H902      1.0  0.37400  0.57317  0.22879  1.0000
  H   H903      1.0  0.29499  0.61766  0.23144  1.0000
  S   S118      1.0  0.20423  0.32472  0.15959  1.0000
  H   H904      1.0  0.31124  0.62701  0.12785  1.0000
  H   H905      1.0  0.02654  0.63365  0.08998  1.0000
  C   C516      1.0  0.38018  0.53402  0.22452  1.0000
  C   C517      1.0  0.30460  0.62787  0.21984  1.0000
  S   S119      1.0  0.10008  0.37259  0.99768  1.0000
  H   H906      1.0  0.00118  0.42753  0.04785  1.0000
  C   C518      1.0  0.41367  0.55244  0.23322  1.0000
  H   H907      1.0  0.36036  0.61536  0.12525  1.0000
  H   H908      1.0  0.00582  0.57032  0.07859  1.0000
  C   C519      1.0  0.14407  0.32936  0.11069  1.0000
  H   H909      1.0  0.17544  0.57412  0.22660  1.0000
  H   H910      1.0  0.12926  0.57099  0.23084  1.0000
  H   H911      1.0  0.05929  0.55901  0.99076  1.0000
  C   C520      1.0  0.16095  0.64481  0.21150  1.0000
  C   C521      1.0  0.14646  0.56815  0.22371  1.0000
  H   H912      1.0  0.18932  0.33827  0.22588  1.0000
  C   C522      1.0  0.25410  0.34542  0.20968  1.0000
  H   H913      1.0  0.14846  0.57574  0.20668  1.0000
  H   H914      1.0  0.01452  0.56284  0.99130  1.0000
  H   H915      1.0  0.24795  0.36189  0.20340  1.0000
  C   C523      1.0  0.25865  0.33932  0.22978  1.0000
  H   H916      1.0  0.39311  0.53896  0.21135  1.0000
  H   H917      1.0  0.99238  0.46813  0.01296  1.0000
  C   C524      1.0  0.99621  0.33799  0.04034  1.0000
  H   H918      1.0  0.00995  0.42422  0.09908  1.0000
  H   H919      1.0  0.35598  0.33158  0.21668  1.0000
  C   C525      1.0  0.18761  0.64511  0.22974  1.0000
  H   H920      1.0  0.99059  0.55852  0.11641  1.0000
  H   H921      1.0  0.20958  0.33648  0.20244  1.0000
  C   C526      1.0  0.29756  0.64990  0.21633  1.0000
  C   C527      1.0  0.19819  0.32793  0.21472  1.0000
  H   H922      1.0  0.01324  0.44787  0.10470  1.0000
  C   C528      1.0  0.00260  0.61030  0.04009  1.0000
  H   H923      1.0  0.39113  0.50096  0.22207  1.0000
  H   H924      1.0  0.00528  0.59347  0.00736  1.0000
  H   H925      1.0  0.37008  0.34657  0.22475  1.0000
  H   H926      1.0  0.45844  0.57387  0.22588  1.0000
  H   H927      1.0  0.00372  0.61873  0.02330  1.0000
  H   H928      1.0  0.99359  0.51483  0.07943  1.0000
  H   H929      1.0  0.33080  0.36110  0.22995  1.0000
  H   H930      1.0  0.03814  0.35375  0.98905  1.0000
  H   H931      1.0  0.99595  0.50048  0.99879  1.0000
  H   H932      1.0  0.28419  0.32818  0.13622  1.0000
  C   C529      1.0  0.15843  0.57759  0.23421  1.0000
  C   C530      1.0  0.09236  0.54595  0.99077  1.0000
  H   H933      1.0  0.00324  0.54668  0.01577  1.0000
  H   H934      1.0  0.05821  0.45168  0.98691  1.0000
  C   C531      1.0  0.99078  0.57781  0.03959  1.0000
  C   C532      1.0  0.15897  0.53155  0.32236  1.0000
  C   C533      1.0  0.15925  0.54159  0.29909  1.0000
  C   C534      1.0  0.30878  0.34488  0.28457  1.0000
  Fe  Fe60      1.0  0.40960  0.51862  0.37804  1.0000
  S   S120      1.0  0.37741  0.53979  0.38038  1.0000
  S   S121      1.0  0.41464  0.48331  0.38803  1.0000
  Fe  Fe61      1.0  0.43256  0.55488  0.36679  1.0000
  S   S122      1.0  0.40252  0.57943  0.36826  1.0000
  S   S123      1.0  0.46410  0.56450  0.35808  1.0000
  Fe  Fe62      1.0  0.38995  0.55688  0.39724  1.0000
  S   S124      1.0  0.37140  0.56581  0.42755  1.0000
  Fe  Fe63      1.0  0.39275  0.56034  0.35112  1.0000
  S   S125      1.0  0.37727  0.57754  0.32383  1.0000
  S   S126      1.0  0.42090  0.53397  0.39745  1.0000
  S   S127      1.0  0.42393  0.53753  0.34711  1.0000
  Fe  Fe64      1.0  0.40607  0.36188  0.32490  1.0000
  S   S128      1.0  0.42260  0.34041  0.35014  1.0000
  S   S129      1.0  0.39450  0.35127  0.30152  1.0000
  Fe  Fe65      1.0  0.41632  0.40092  0.33131  1.0000
  S   S130      1.0  0.43462  0.38274  0.35633  1.0000
  S   S131      1.0  0.41072  0.43631  0.32006  1.0000
  Fe  Fe66      1.0  0.44811  0.35912  0.33597  1.0000
  H   H935      1.0  0.19551  0.65385  0.29884  1.0000
  Fe  Fe67      1.0  0.40768  0.36565  0.36876  1.0000
  S   S132      1.0  0.39478  0.35632  0.40368  1.0000
  S   S133      1.0  0.43284  0.37904  0.30938  1.0000
  S   S134      1.0  0.38828  0.38538  0.34489  1.0000
  Fe  Fe68      1.0  0.26626  0.57143  0.26443  1.0000
  S   S135      1.0  0.27517  0.53608  0.27457  1.0000
  S   S136      1.0  0.48152  0.34072  0.33388  1.0000
  H   H936      1.0  0.32635  0.62463  0.28016  1.0000
  H   H937      1.0  0.45831  0.43097  0.35014  1.0000
  H   H938      1.0  0.46861  0.62599  0.45284  1.0000
  S   S137      1.0  0.43982  0.57083  0.47395  1.0000
  Fe  Fe69      1.0  0.30579  0.54224  0.27697  1.0000
  S   S138      1.0  0.32284  0.52446  0.30325  1.0000
  H   H939      1.0  0.40595  0.52635  0.31115  1.0000
  S   S139      1.0  0.29580  0.57758  0.26921  1.0000
  C   C535      1.0  0.40993  0.57139  0.42906  1.0000
  H   H940      1.0  0.48255  0.63548  0.41405  1.0000
  C   C536      1.0  0.36386  0.33093  0.32921  1.0000
  H   H941      1.0  0.43755  0.54959  0.25156  1.0000
  C   C537      1.0  0.48459  0.54360  0.36525  1.0000
  C   C538      1.0  0.47542  0.34917  0.44876  1.0000
  C   C539      1.0  0.40278  0.36822  0.42001  1.0000
  C   C540      1.0  0.41229  0.38584  0.41155  1.0000
  H   H942      1.0  0.41448  0.39261  0.39495  1.0000
  H   H943      1.0  0.46573  0.46820  0.39884  1.0000
  H   H944      1.0  0.32020  0.32939  0.28558  1.0000
  H   H945      1.0  0.44582  0.53121  0.43457  1.0000
  H   H946      1.0  0.46405  0.52259  0.38454  1.0000
  C   C541      1.0  0.41293  0.47066  0.36913  1.0000
  C   C542      1.0  0.41190  0.48182  0.34854  1.0000
  C   C543      1.0  0.41105  0.47119  0.33353  1.0000
  C   C544      1.0  0.41122  0.44946  0.33912  1.0000
  C   C545      1.0  0.41176  0.43848  0.35983  1.0000
  C   C546      1.0  0.41274  0.44902  0.37478  1.0000
  H   H947      1.0  0.41176  0.49857  0.34422  1.0000
  H   H948      1.0  0.41026  0.47974  0.31760  1.0000
  H   H949      1.0  0.41117  0.42192  0.36441  1.0000
  H   H950      1.0  0.41319  0.44042  0.39079  1.0000
  C   C547      1.0  0.36176  0.56284  0.31883  1.0000
  C   C548      1.0  0.34959  0.57218  0.30351  1.0000
  C   C549      1.0  0.33785  0.56037  0.29852  1.0000
  C   C550      1.0  0.33778  0.53936  0.30913  1.0000
  C   C551      1.0  0.35000  0.53006  0.32445  1.0000
  C   C552      1.0  0.36203  0.54174  0.32931  1.0000
  H   H951      1.0  0.34949  0.58846  0.29530  1.0000
  H   H952      1.0  0.32931  0.56749  0.28616  1.0000
  H   H953      1.0  0.35045  0.51376  0.33234  1.0000
  H   H954      1.0  0.37178  0.53429  0.34084  1.0000
  C   C553      1.0  0.38944  0.56955  0.44022  1.0000
  H   H955      1.0  0.45170  0.44710  0.43383  1.0000
  H   H956      1.0  0.41416  0.57207  0.41233  1.0000
  H   H957      1.0  0.23348  0.55679  0.25337  1.0000
  S   S140      1.0  0.23401  0.58673  0.28007  1.0000
  C   C554      1.0  0.38570  0.53141  0.24620  1.0000
  N   N29       1.0  0.39326  0.54969  0.24902  1.0000
  C   C555      1.0  0.20972  0.64589  0.28975  1.0000
  H   H958      1.0  0.34409  0.50978  0.37427  1.0000
  H   H959      1.0  0.25975  0.64521  0.32166  1.0000
  H   H960      1.0  0.30570  0.33924  0.31877  1.0000
  H   H961      1.0  0.38015  0.54429  0.28236  1.0000
  H   H962      1.0  0.42838  0.53643  0.29358  1.0000
  H   H963      1.0  0.48047  0.59921  0.37043  1.0000
  C   C556      1.0  0.28708  0.39323  0.27557  1.0000
  H   H964      1.0  0.47701  0.42491  0.31498  1.0000
  C   C557      1.0  0.46886  0.62747  0.42001  1.0000
  H   H965      1.0  0.16070  0.60795  0.25239  1.0000
  H   H966      1.0  0.42110  0.61280  0.37947  1.0000
  C   C558      1.0  0.19016  0.57251  0.26149  1.0000
  C   C559      1.0  0.15361  0.63131  0.28394  1.0000
  C   C560      1.0  0.23077  0.61390  0.27849  1.0000
  H   H967      1.0  0.34233  0.48869  0.39773  1.0000
  C   C561      1.0  0.27665  0.41298  0.26142  1.0000
  H   H968      1.0  0.16223  0.64021  0.28947  1.0000
  H   H969      1.0  0.47440  0.56763  0.41198  1.0000
  H   H970      1.0  0.29045  0.39845  0.28840  1.0000
  H   H971      1.0  0.17023  0.60038  0.29623  1.0000
  C   C562      1.0  0.48970  0.37424  0.41765  1.0000
  H   H972      1.0  0.14905  0.64103  0.26905  1.0000
  H   H973      1.0  0.33639  0.35456  0.30117  1.0000
  C   C563      1.0  0.48456  0.51063  0.33057  1.0000
  C   C564      1.0  0.41491  0.38718  0.44651  1.0000
  H   H974      1.0  0.28453  0.35908  0.30931  1.0000
  H   H975      1.0  0.14377  0.54138  0.29597  1.0000
  H   H976      1.0  0.19832  0.57776  0.27099  1.0000
  H   H977      1.0  0.46059  0.36111  0.44654  1.0000
  H   H978      1.0  0.44102  0.57275  0.43111  1.0000
  H   H979      1.0  0.48693  0.56716  0.47393  1.0000
  C   C565      1.0  0.36029  0.60781  0.24555  1.0000
  H   H980      1.0  0.13899  0.62884  0.29594  1.0000
  C   C566      1.0  0.34354  0.39305  0.30387  1.0000
  H   H981      1.0  0.15604  0.51525  0.32595  1.0000
  C   C567      1.0  0.28158  0.32712  0.31304  1.0000
  C   C568      1.0  0.28630  0.61468  0.30199  1.0000
  Fe  Fe70      1.0  0.28975  0.53739  0.24038  1.0000
  C   C569      1.0  0.37763  0.33310  0.30953  1.0000
  N   N30       1.0  0.32050  0.36299  0.27520  1.0000
  C   C570      1.0  0.47631  0.60329  0.42156  1.0000
  H   H982      1.0  0.42430  0.51958  0.26593  1.0000
  H   H983      1.0  0.48520  0.38432  0.31651  1.0000
  C   C571      1.0  0.39933  0.36013  0.44185  1.0000
  C   C572      1.0  0.46888  0.44118  0.31671  1.0000
  H   H984      1.0  0.14620  0.54089  0.33250  1.0000
  C   C573      1.0  0.24682  0.62487  0.26697  1.0000
  H   H985      1.0  0.46145  0.50498  0.44144  1.0000
  H   H986      1.0  0.31328  0.37430  0.30417  1.0000
  C   C574      1.0  0.41993  0.57120  0.46119  1.0000
  N   N31       1.0  0.34052  0.45863  0.35083  1.0000
  C   C575      1.0  0.31908  0.45570  0.35014  1.0000
  C   C576      1.0  0.35300  0.43756  0.36026  1.0000
  C   C577      1.0  0.33726  0.47475  0.36389  1.0000
  C   C578      1.0  0.35269  0.46657  0.32905  1.0000
  C   C579      1.0  0.35558  0.45315  0.31262  1.0000
  C   C580      1.0  0.30536  0.47496  0.33769  1.0000
  C   C581      1.0  0.35762  0.47799  0.36853  1.0000
  C   C582      1.0  0.34462  0.42846  0.38392  1.0000
  C   C583      1.0  0.35877  0.40742  0.39181  1.0000
  C   C584      1.0  0.36631  0.46397  0.29084  1.0000
  C   C585      1.0  0.28399  0.47026  0.33828  1.0000
  C   C586      1.0  0.35237  0.49423  0.38221  1.0000
  H   H987      1.0  0.30951  0.45201  0.36638  1.0000
  H   H988      1.0  0.32069  0.44168  0.34354  1.0000
  H   H989      1.0  0.35351  0.42537  0.35162  1.0000
  H   H990      1.0  0.36987  0.43839  0.35813  1.0000
  H   H991      1.0  0.32608  0.47083  0.37916  1.0000
  H   H992      1.0  0.32945  0.49053  0.35591  1.0000
  H   H993      1.0  0.34532  0.48315  0.32258  1.0000
  H   H994      1.0  0.36893  0.46733  0.32965  1.0000
  H   H995      1.0  0.34026  0.45082  0.31114  1.0000
  H   H996      1.0  0.36571  0.43735  0.31706  1.0000
  H   H997      1.0  0.30216  0.48913  0.34443  1.0000
  H   H998      1.0  0.31325  0.47905  0.32089  1.0000
  H   H999      1.0  0.36830  0.48397  0.35374  1.0000
  H   H1000     1.0  0.36644  0.46311  0.37689  1.0000
  H   H1001     1.0  0.34426  0.43932  0.39389  1.0000
  H   H1002     1.0  0.32839  0.42562  0.38654  1.0000
  H   H1003     1.0  0.35328  0.40187  0.40902  1.0000
  H   H1004     1.0  0.35815  0.39512  0.38389  1.0000
  H   H1005     1.0  0.37545  0.40919  0.38893  1.0000
  H   H1006     1.0  0.36874  0.45388  0.27943  1.0000
  H   H1007     1.0  0.38201  0.46640  0.29128  1.0000
  H   H1008     1.0  0.28626  0.45657  0.33103  1.0000
  H   H1009     1.0  0.27491  0.46683  0.35475  1.0000
  H   H1010     1.0  0.27460  0.48427  0.32922  1.0000
  H   H1011     1.0  0.19332  0.58298  0.24576  1.0000
  H   H1012     1.0  0.36731  0.49639  0.38488  1.0000
  H   H1013     1.0  0.36342  0.33062  0.37893  1.0000
  H   H1014     1.0  0.42554  0.40895  0.41802  1.0000
  C   C587      1.0  0.15505  0.56815  0.25830  1.0000
  H   H1015     1.0  0.19389  0.54209  0.25248  1.0000
  H   H1016     1.0  0.15946  0.55076  0.25995  1.0000
  C   C588      1.0  0.16774  0.61005  0.28060  1.0000
  C   C589      1.0  0.37929  0.58982  0.24910  1.0000
  C   C590      1.0  0.47269  0.34071  0.47292  1.0000
  H   H1017     1.0  0.29814  0.64085  0.30635  1.0000
  H   H1018     1.0  0.27236  0.32633  0.32944  1.0000
  N   N32       1.0  0.39904  0.49655  0.46955  1.0000
  C   C591      1.0  0.38699  0.48996  0.45713  1.0000
  C   C592      1.0  0.47994  0.47578  0.35651  1.0000
  H   H1019     1.0  0.33362  0.40035  0.27451  1.0000
  C   C593      1.0  0.37439  0.50817  0.44266  1.0000
  H   H1020     1.0  0.37133  0.52829  0.25857  1.0000
  C   C594      1.0  0.36233  0.49946  0.43163  1.0000
  H   H1021     1.0  0.42988  0.50835  0.30229  1.0000
  H   H1022     1.0  0.45244  0.64955  0.44028  1.0000
  H   H1023     1.0  0.31582  0.65163  0.26856  1.0000
  H   H1024     1.0  0.37585  0.47992  0.46780  1.0000
  H   H1025     1.0  0.39803  0.47971  0.44666  1.0000
  H   H1026     1.0  0.42581  0.49617  0.44307  1.0000
  H   H1027     1.0  0.47469  0.48539  0.32414  1.0000
  H   H1028     1.0  0.45597  0.45898  0.34091  1.0000
  H   H1029     1.0  0.46904  0.51806  0.33914  1.0000
  H   H1030     1.0  0.43913  0.46700  0.46561  1.0000
  H   H1031     1.0  0.38523  0.51724  0.43027  1.0000
  H   H1032     1.0  0.36261  0.51929  0.45161  1.0000
  H   H1033     1.0  0.44483  0.61034  0.35931  1.0000
  H   H1034     1.0  0.39322  0.59503  0.23770  1.0000
  H   H1035     1.0  0.38043  0.52796  0.47089  1.0000
  H   H1036     1.0  0.35103  0.34238  0.26893  1.0000
  H   H1037     1.0  0.37351  0.48869  0.42182  1.0000
  H   H1038     1.0  0.35071  0.49071  0.44334  1.0000
  H   H1039     1.0  0.35360  0.51275  0.42124  1.0000
  N   N33       1.0  0.48751  0.45206  0.36204  1.0000
  C   C595      1.0  0.41920  0.52371  0.29758  1.0000
  H   H1040     1.0  0.24645  0.63288  0.31021  1.0000
  H   H1041     1.0  0.42422  0.52538  0.47235  1.0000
  H   H1042     1.0  0.32801  0.40073  0.31226  1.0000
  C   C596      1.0  0.39579  0.54483  0.27153  1.0000
  H   H1043     1.0  0.46257  0.59562  0.42981  1.0000
  H   H1044     1.0  0.27536  0.38281  0.28220  1.0000
  H   H1045     1.0  0.13770  0.57158  0.26499  1.0000
  C   C597      1.0  0.46646  0.44350  0.33922  1.0000
  H   H1046     1.0  0.28027  0.64881  0.28848  1.0000
  N   N34       1.0  0.27222  0.61159  0.32367  1.0000
  H   H1047     1.0  0.39790  0.51659  0.24842  1.0000
  C   C598      1.0  0.26301  0.59223  0.32729  1.0000
  H   H1048     1.0  0.14801  0.57361  0.30247  1.0000
  C   C599      1.0  0.28358  0.60999  0.34090  1.0000
  C   C600      1.0  0.30756  0.59958  0.33747  1.0000
  H   H1049     1.0  0.14046  0.60198  0.27476  1.0000
  H   H1050     1.0  0.25590  0.35111  0.23897  1.0000
  C   C601      1.0  0.27876  0.57070  0.32811  1.0000
  C   C602      1.0  0.26778  0.55324  0.32828  1.0000
  C   C603      1.0  0.31615  0.59583  0.35735  1.0000
  H   H1051     1.0  0.45305  0.44420  0.31293  1.0000
  H   H1052     1.0  0.35627  0.47953  0.28530  1.0000
  C   C604      1.0  0.42505  0.46039  0.47486  1.0000
  H   H1053     1.0  0.17566  0.56480  0.30094  1.0000
  H   H1054     1.0  0.25157  0.59014  0.34260  1.0000
  H   H1055     1.0  0.25381  0.59434  0.31495  1.0000
  H   H1056     1.0  0.39184  0.34661  0.44858  1.0000
  H   H1057     1.0  0.47489  0.33616  0.44163  1.0000
  S   S141      1.0  0.42251  0.39974  0.46243  1.0000
  H   H1058     1.0  0.27548  0.60127  0.35616  1.0000
  H   H1059     1.0  0.31690  0.60999  0.32476  1.0000
  H   H1060     1.0  0.31084  0.58419  0.33298  1.0000
  C   C605      1.0  0.42509  0.57217  0.43958  1.0000
  H   H1061     1.0  0.27036  0.33101  0.30230  1.0000
  H   H1062     1.0  0.46677  0.35410  0.48108  1.0000
  C   C606      1.0  0.23599  0.62956  0.34378  1.0000
  H   H1063     1.0  0.29220  0.57106  0.31446  1.0000
  H   H1064     1.0  0.28497  0.56612  0.34280  1.0000
  H   H1065     1.0  0.27927  0.53789  0.32919  1.0000
  H   H1066     1.0  0.25441  0.55172  0.34207  1.0000
  H   H1067     1.0  0.26169  0.55675  0.31361  1.0000
  C   C607      1.0  0.48980  0.57266  0.40520  1.0000
  C   C608      1.0  0.43231  0.51202  0.46446  1.0000
  H   H1068     1.0  0.38118  0.58794  0.26539  1.0000
  H   H1069     1.0  0.46233  0.48021  0.36111  1.0000
  H   H1070     1.0  0.44117  0.33477  0.47653  1.0000
  H   H1071     1.0  0.18337  0.61306  0.27091  1.0000
  H   H1072     1.0  0.30060  0.60186  0.30097  1.0000
  H   H1073     1.0  0.45749  0.63459  0.40940  1.0000
  H   H1074     1.0  0.24246  0.62476  0.35831  1.0000
  H   H1075     1.0  0.33338  0.58881  0.35422  1.0000
  C   C609      1.0  0.25397  0.63046  0.32378  1.0000
  C   C610      1.0  0.41065  0.52346  0.27873  1.0000
  H   H1076     1.0  0.42198  0.57559  0.24657  1.0000
  H   H1077     1.0  0.26107  0.61686  0.25802  1.0000
  C   C611      1.0  0.41839  0.39522  0.42472  1.0000
  C   C612      1.0  0.47243  0.44285  0.38134  1.0000
  C   C613      1.0  0.31214  0.63559  0.27509  1.0000
  H   H1078     1.0  0.40169  0.51046  0.28352  1.0000
  C   C614      1.0  0.48585  0.48703  0.33297  1.0000
  H   H1079     1.0  0.17447  0.53063  0.32612  1.0000
  H   H1080     1.0  0.48605  0.40312  0.44116  1.0000
  C   C615      1.0  0.45119  0.51874  0.44779  1.0000
  H   H1081     1.0  0.17185  0.53148  0.28971  1.0000
  H   H1082     1.0  0.31719  0.39335  0.25330  1.0000
  N   N35       1.0  0.16670  0.57561  0.27050  1.0000
  C   C616      1.0  0.29348  0.63623  0.29384  1.0000
  C   C617      1.0  0.16255  0.56471  0.29359  1.0000
  C   C618      1.0  0.47341  0.60609  0.38464  1.0000
  H   H1083     1.0  0.20000  0.61592  0.29911  1.0000
  C   C619      1.0  0.40543  0.36954  0.45508  1.0000
  H   H1084     1.0  0.45629  0.42427  0.42280  1.0000
  H   H1085     1.0  0.43705  0.44753  0.41477  1.0000
  H   H1086     1.0  0.43871  0.49854  0.47629  1.0000
  H   H1087     1.0  0.30200  0.37636  0.25108  1.0000
  C   C620      1.0  0.21224  0.62445  0.28984  1.0000
  H   H1088     1.0  0.36054  0.56597  0.25530  1.0000
  C   C621      1.0  0.39927  0.56986  0.47229  1.0000
  C   C622      1.0  0.43756  0.61556  0.37438  1.0000
  H   H1089     1.0  0.40995  0.52151  0.44435  1.0000
  H   H1090     1.0  0.29845  0.34457  0.27411  1.0000
  C   C623      1.0  0.45011  0.60307  0.39133  1.0000
  C   C624      1.0  0.48438  0.36516  0.40116  1.0000
  C   C625      1.0  0.38395  0.56928  0.46177  1.0000
  H   H1091     1.0  0.27794  0.61346  0.29023  1.0000
  H   H1092     1.0  0.34958  0.36811  0.25253  1.0000
  H   H1093     1.0  0.36805  0.56801  0.47042  1.0000
  C   C626      1.0  0.20198  0.54971  0.25991  1.0000
  H   H1094     1.0  0.35074  0.37927  0.31501  1.0000
  H   H1095     1.0  0.44171  0.60847  0.40605  1.0000
  C   C627      1.0  0.41667  0.50639  0.45436  1.0000
  H   H1096     1.0  0.26190  0.42088  0.27081  1.0000
  H   H1097     1.0  0.36371  0.34035  0.34002  1.0000
  C   C628      1.0  0.38500  0.51264  0.48177  1.0000
  H   H1098     1.0  0.47568  0.38672  0.42183  1.0000
  H   H1099     1.0  0.46176  0.39324  0.38983  1.0000
  C   C629      1.0  0.34042  0.35536  0.26013  1.0000
  H   H1100     1.0  0.48902  0.39211  0.37522  1.0000
  H   H1101     1.0  0.47725  0.42532  0.38520  1.0000
  H   H1102     1.0  0.22626  0.61820  0.34424  1.0000
  H   H1103     1.0  0.35423  0.40457  0.29833  1.0000
  H   H1104     1.0  0.35703  0.37976  0.27669  1.0000
  C   C630      1.0  0.48016  0.52464  0.37869  1.0000
  H   H1105     1.0  0.30807  0.58465  0.37043  1.0000
  C   C631      1.0  0.24464  0.64615  0.26750  1.0000
  H   H1106     1.0  0.47183  0.35575  0.40846  1.0000
  H   H1107     1.0  0.47333  0.62332  0.37895  1.0000
  H   H1108     1.0  0.28743  0.42439  0.25464  1.0000
  C   C632      1.0  0.15799  0.59903  0.26899  1.0000
  C   C633      1.0  0.32717  0.36889  0.29228  1.0000
  H   H1109     1.0  0.30828  0.63038  0.26245  1.0000
  C   C634      1.0  0.45771  0.63219  0.44164  1.0000
  C   C635      1.0  0.45272  0.44183  0.41928  1.0000
  H   H1110     1.0  0.40125  0.55766  0.27484  1.0000
  H   H1111     1.0  0.41903  0.45413  0.46438  1.0000
  H   H1112     1.0  0.46058  0.52522  0.45501  1.0000
  H   H1113     1.0  0.20353  0.54004  0.27584  1.0000
  H   H1114     1.0  0.44959  0.58616  0.39374  1.0000
  H   H1115     1.0  0.44354  0.62482  0.44807  1.0000
  C   C636      1.0  0.34088  0.38609  0.28504  1.0000
  H   H1116     1.0  0.45618  0.44639  0.37822  1.0000
  H   H1117     1.0  0.43692  0.63278  0.37180  1.0000
  C   C637      1.0  0.29518  0.34381  0.30725  1.0000
  H   H1118     1.0  0.40252  0.36332  0.47189  1.0000
  H   H1119     1.0  0.31396  0.61097  0.36219  1.0000
  C   C638      1.0  0.30738  0.38157  0.26283  1.0000
  C   C639      1.0  0.37606  0.56917  0.24535  1.0000
  H   H1120     1.0  0.46946  0.38755  0.46156  1.0000
  H   H1121     1.0  0.20793  0.64994  0.35788  1.0000
  H   H1122     1.0  0.28255  0.62600  0.34351  1.0000
  C   C640      1.0  0.40753  0.47718  0.48488  1.0000
  H   H1123     1.0  0.36176  0.62178  0.25055  1.0000
  C   C641      1.0  0.22099  0.65110  0.34376  1.0000
  H   H1124     1.0  0.23281  0.53317  0.24580  1.0000
  H   H1125     1.0  0.27243  0.40870  0.24843  1.0000
  H   H1126     1.0  0.34525  0.60290  0.25467  1.0000
  C   C642      1.0  0.47001  0.45067  0.40172  1.0000
  C   C643      1.0  0.33725  0.34748  0.24171  1.0000
  H   H1127     1.0  0.32620  0.33638  0.24711  1.0000
  H   H1128     1.0  0.25735  0.65445  0.25921  1.0000
  C   C644      1.0  0.47660  0.38277  0.38354  1.0000
  C   C645      1.0  0.22431  0.54965  0.24654  1.0000
  H   H1129     1.0  0.47329  0.37565  0.37198  1.0000
  H   H1130     1.0  0.48141  0.41263  0.47504  1.0000
  S   S142      1.0  0.32139  0.53963  0.24394  1.0000
  H   H1131     1.0  0.48483  0.44514  0.40783  1.0000
  H   H1132     1.0  0.38798  0.32298  0.28008  1.0000
  C   C646      1.0  0.48589  0.39018  0.45548  1.0000
  H   H1133     1.0  0.47781  0.45277  0.30520  1.0000
  C   C647      1.0  0.45658  0.32629  0.48091  1.0000
  C   C648      1.0  0.42962  0.56161  0.23963  1.0000
  H   H1134     1.0  0.44450  0.42963  0.48411  1.0000
  H   H1135     1.0  0.48579  0.48329  0.36606  1.0000
  H   H1136     1.0  0.48757  0.33172  0.47790  1.0000
  C   C649      1.0  0.48820  0.44139  0.34473  1.0000
  H   H1137     1.0  0.48652  0.51867  0.31367  1.0000
  N   N36       1.0  0.48677  0.59639  0.40109  1.0000
  H   H1138     1.0  0.48734  0.59770  0.43267  1.0000
  Fe  Fe71      1.0  0.41334  0.57467  0.55103  1.0000
  S   S143      1.0  0.44535  0.57134  0.52955  1.0000
  S   S144      1.0  0.39952  0.60453  0.56330  1.0000
  Fe  Fe72      1.0  0.40555  0.53403  0.54589  1.0000
  S   S145      1.0  0.43691  0.52693  0.52416  1.0000
  S   S146      1.0  0.38184  0.51323  0.55339  1.0000
  Fe  Fe73      1.0  0.44991  0.53728  0.54637  1.0000
  H   H1139     1.0  0.37670  0.61977  0.73175  1.0000
  Fe  Fe74      1.0  0.43003  0.56133  0.50907  1.0000
  Fe  Fe75      1.0  0.31868  0.63174  0.71647  1.0000
  S   S147      1.0  0.41900  0.54121  0.56979  1.0000
  S   S148      1.0  0.39746  0.56778  0.52893  1.0000
  Fe  Fe76      1.0  0.42271  0.39830  0.53644  1.0000
  S   S149      1.0  0.44592  0.38545  0.51013  1.0000
  S   S150      1.0  0.43422  0.42108  0.54798  1.0000
  C   C650      1.0  0.36452  0.50630  0.49654  1.0000
  H   H1140     1.0  0.47545  0.61827  0.59651  1.0000
  C   C651      1.0  0.48112  0.42652  0.58984  1.0000
  S   S151      1.0  0.39464  0.40176  0.52245  1.0000
  H   H1141     1.0  0.46619  0.46804  0.49785  1.0000
  H   H1142     1.0  0.38930  0.34832  0.59356  1.0000
  S   S152      1.0  0.35773  0.59305  0.66014  1.0000
  S   S153      1.0  0.30741  0.61998  0.69402  1.0000
  C   C652      1.0  0.46121  0.54552  0.60092  1.0000
  Fe  Fe77      1.0  0.44134  0.35365  0.52916  1.0000
  C   C653      1.0  0.45975  0.61196  0.56617  1.0000
  H   H1143     1.0  0.44403  0.42842  0.62254  1.0000
  H   H1144     1.0  0.48640  0.39413  0.62632  1.0000
  C   C654      1.0  0.47595  0.34095  0.56430  1.0000
  H   H1145     1.0  0.20867  0.62500  0.69123  1.0000
  H   H1146     1.0  0.44018  0.61735  0.60702  1.0000
  H   H1147     1.0  0.41352  0.48162  0.49672  1.0000
  C   C655      1.0  0.48621  0.33410  0.54566  1.0000
  C   C656      1.0  0.39554  0.48714  0.55294  1.0000
  C   C657      1.0  0.38638  0.47287  0.54811  1.0000
  C   C658      1.0  0.39803  0.45241  0.54647  1.0000
  C   C659      1.0  0.41859  0.44610  0.55032  1.0000
  C   C660      1.0  0.42733  0.46014  0.55591  1.0000
  C   C661      1.0  0.41599  0.48069  0.55693  1.0000
  H   H1148     1.0  0.37040  0.47770  0.54540  1.0000
  H   H1149     1.0  0.39111  0.44152  0.54240  1.0000
  H   H1150     1.0  0.44315  0.45527  0.55902  1.0000
  H   H1151     1.0  0.42305  0.49150  0.56096  1.0000
  S   S154      1.0  0.35146  0.63088  0.69680  1.0000
  H   H1152     1.0  0.39382  0.51624  0.49187  1.0000
  H   H1153     1.0  0.39453  0.46889  0.49441  1.0000
  H   H1154     1.0  0.33719  0.33561  0.59564  1.0000
  Fe  Fe78      1.0  0.39386  0.36826  0.54078  1.0000
  C   C662      1.0  0.36075  0.33300  0.56715  1.0000
  C   C663      1.0  0.38791  0.60145  0.59017  1.0000
  C   C664      1.0  0.39071  0.58158  0.60368  1.0000
  C   C665      1.0  0.38152  0.57924  0.62518  1.0000
  C   C666      1.0  0.36938  0.59681  0.63325  1.0000
  C   C667      1.0  0.36664  0.61677  0.61978  1.0000
  C   C668      1.0  0.37599  0.61910  0.59825  1.0000
  H   H1155     1.0  0.40001  0.56802  0.59758  1.0000
  H   H1156     1.0  0.38376  0.56379  0.63559  1.0000
  H   H1157     1.0  0.47742  0.44150  0.57806  1.0000
  H   H1158     1.0  0.37386  0.63457  0.58785  1.0000
  H   H1159     1.0  0.43867  0.44533  0.59781  1.0000
  H   H1160     1.0  0.42217  0.32486  0.60393  1.0000
  H   H1161     1.0  0.46652  0.57852  0.57118  1.0000
  H   H1162     1.0  0.44357  0.59035  0.64361  1.0000
  H   H1163     1.0  0.35292  0.61307  0.56324  1.0000
  H   H1164     1.0  0.48075  0.42307  0.54969  1.0000
  H   H1165     1.0  0.44756  0.55887  0.62830  1.0000
  H   H1166     1.0  0.43900  0.58936  0.57578  1.0000
  C   C669      1.0  0.23097  0.64479  0.71167  1.0000
  H   H1167     1.0  0.41999  0.58353  0.64141  1.0000
  C   C670      1.0  0.34659  0.32518  0.58534  1.0000
  C   C671      1.0  0.24355  0.60795  0.66319  1.0000
  Fe  Fe79      1.0  0.29878  0.65433  0.67867  1.0000
  H   H1168     1.0  0.38326  0.32548  0.53953  1.0000
  H   H1169     1.0  0.26471  0.61337  0.72166  1.0000
  H   H1170     1.0  0.47975  0.34922  0.59165  1.0000
  H   H1171     1.0  0.45893  0.34340  0.56907  1.0000
  C   C672      1.0  0.18520  0.61400  0.73382  1.0000
  C   C673      1.0  0.44196  0.42867  0.60665  1.0000
  C   C674      1.0  0.44724  0.56394  0.61123  1.0000
  H   H1172     1.0  0.47036  0.60838  0.62434  1.0000
  H   H1173     1.0  0.47635  0.61207  0.56608  1.0000
  Fe  Fe80      1.0  0.33945  0.62174  0.67320  1.0000
  C   C675      1.0  0.45629  0.52416  0.61380  1.0000
  H   H1174     1.0  0.48128  0.43167  0.60419  1.0000
  N   N37       1.0  0.45339  0.58529  0.60218  1.0000
  H   H1175     1.0  0.34601  0.53843  0.49541  1.0000
  C   C676      1.0  0.22289  0.61713  0.69823  1.0000
  H   H1176     1.0  0.19067  0.64525  0.71650  1.0000
  H   H1177     1.0  0.38504  0.49196  0.62318  1.0000
  H   H1178     1.0  0.19852  0.33300  0.70580  1.0000
  H   H1179     1.0  0.43067  0.56495  0.61020  1.0000
  H   H1180     1.0  0.47786  0.50179  0.49220  1.0000
  C   C677      1.0  0.46806  0.46664  0.51407  1.0000
  H   H1181     1.0  0.40130  0.62136  0.63775  1.0000
  H   H1182     1.0  0.38773  0.34295  0.62147  1.0000
  H   H1183     1.0  0.48147  0.50436  0.51624  1.0000
  S   S155      1.0  0.47143  0.32918  0.53010  1.0000
  N   N38       1.0  0.22163  0.62517  0.71762  1.0000
  H   H1184     1.0  0.17313  0.33224  0.70319  1.0000
  H   H1185     1.0  0.41901  0.43426  0.50138  1.0000
  S   S156      1.0  0.42021  0.36617  0.55670  1.0000
  H   H1186     1.0  0.42145  0.60386  0.60584  1.0000
  H   H1187     1.0  0.33710  0.51913  0.51837  1.0000
  H   H1188     1.0  0.43959  0.44672  0.50223  1.0000
  H   H1189     1.0  0.46617  0.51145  0.60563  1.0000
  C   C678      1.0  0.45429  0.59038  0.57877  1.0000
  H   H1190     1.0  0.46755  0.45015  0.52287  1.0000
  H   H1191     1.0  0.25731  0.61593  0.68463  1.0000
  C   C679      1.0  0.46170  0.41589  0.59487  1.0000
  H   H1192     1.0  0.45801  0.41484  0.58015  1.0000
  H   H1193     1.0  0.47725  0.57203  0.62138  1.0000
  C   C680      1.0  0.48777  0.34409  0.57716  1.0000
  H   H1194     1.0  0.25690  0.61136  0.64979  1.0000
  H   H1195     1.0  0.42804  0.42165  0.60847  1.0000
  H   H1196     1.0  0.44181  0.61623  0.54200  1.0000
  C   C681      1.0  0.38502  0.63290  0.72928  1.0000
  S   S157      1.0  0.41494  0.35291  0.51464  1.0000
  H   H1197     1.0  0.23983  0.63757  0.67155  1.0000
  S   S158      1.0  0.48028  0.51807  0.55607  1.0000
  H   H1198     1.0  0.47589  0.38757  0.54856  1.0000
  C   C682      1.0  0.42949  0.59611  0.63628  1.0000
  H   H1199     1.0  0.36843  0.49222  0.50903  1.0000
  C   C683      1.0  0.36928  0.65261  0.73488  1.0000
  H   H1200     1.0  0.46432  0.39962  0.60446  1.0000
  H   H1201     1.0  0.46238  0.63129  0.53443  1.0000
  C   C684      1.0  0.41564  0.61530  0.64473  1.0000
  Fe  Fe81      1.0  0.41791  0.38612  0.49749  1.0000
  H   H1202     1.0  0.36065  0.52854  0.51636  1.0000
  C   C685      1.0  0.23322  0.65312  0.73011  1.0000
  H   H1203     1.0  0.45459  0.47756  0.52174  1.0000
  C   C686      1.0  0.45821  0.61582  0.54316  1.0000
  H   H1204     1.0  0.45795  0.54747  0.58511  1.0000
  C   C687      1.0  0.43606  0.60150  0.61190  1.0000
  H   H1205     1.0  0.39504  0.56914  0.48893  1.0000
  S   S159      1.0  0.36349  0.35952  0.56168  1.0000
  N   N39       1.0  0.33748  0.55741  0.60616  1.0000
  C   C688      1.0  0.33945  0.57918  0.59288  1.0000
  C   C689      1.0  0.33071  0.55821  0.62931  1.0000
  C   C690      1.0  0.35912  0.54312  0.60279  1.0000
  C   C691      1.0  0.32252  0.54803  0.59974  1.0000
  C   C692      1.0  0.29991  0.56137  0.59937  1.0000
  C   C693      1.0  0.34880  0.58055  0.56906  1.0000
  C   C694      1.0  0.36103  0.52024  0.61644  1.0000
  C   C695      1.0  0.31619  0.57898  0.63506  1.0000
  C   C696      1.0  0.30759  0.57618  0.65879  1.0000
  C   C697      1.0  0.28711  0.55061  0.59115  1.0000
  C   C698      1.0  0.34591  0.60351  0.55674  1.0000
  C   C699      1.0  0.38408  0.50827  0.61338  1.0000
  H   H1206     1.0  0.34972  0.58592  0.59883  1.0000
  H   H1207     1.0  0.32402  0.59044  0.59440  1.0000
  H   H1208     1.0  0.32284  0.54479  0.63845  1.0000
  H   H1209     1.0  0.34484  0.55608  0.63615  1.0000
  H   H1210     1.0  0.37100  0.55034  0.60568  1.0000
  H   H1211     1.0  0.36448  0.54131  0.58615  1.0000
  H   H1212     1.0  0.32948  0.54407  0.58399  1.0000
  H   H1213     1.0  0.32045  0.53260  0.61062  1.0000
  H   H1214     1.0  0.30014  0.57725  0.58893  1.0000
  H   H1215     1.0  0.29138  0.56294  0.61553  1.0000
  H   H1216     1.0  0.36606  0.57389  0.56666  1.0000
  H   H1217     1.0  0.34124  0.57181  0.56224  1.0000
  H   H1218     1.0  0.35183  0.51122  0.61181  1.0000
  H   H1219     1.0  0.35526  0.52013  0.63345  1.0000
  H   H1220     1.0  0.32542  0.59177  0.63020  1.0000
  H   H1221     1.0  0.30252  0.58453  0.62722  1.0000
  H   H1222     1.0  0.32081  0.57096  0.66736  1.0000
  H   H1223     1.0  0.29817  0.59153  0.66245  1.0000
  H   H1224     1.0  0.43935  0.52395  0.61541  1.0000
  H   H1225     1.0  0.28584  0.53469  0.60128  1.0000
  H   H1226     1.0  0.27087  0.56032  0.59124  1.0000
  H   H1227     1.0  0.29467  0.54897  0.57473  1.0000
  H   H1228     1.0  0.39304  0.63654  0.71244  1.0000
  H   H1229     1.0  0.32884  0.61059  0.55735  1.0000
  H   H1230     1.0  0.35735  0.63041  0.62590  1.0000
  H   H1231     1.0  0.39041  0.50715  0.59665  1.0000
  H   H1232     1.0  0.39408  0.51635  0.61814  1.0000
  C   C700      1.0  0.35130  0.52425  0.50729  1.0000
  H   H1233     1.0  0.44885  0.62530  0.57266  1.0000
  H   H1234     1.0  0.45995  0.52080  0.62967  1.0000
  C   C701      1.0  0.38854  0.33577  0.60817  1.0000
  C   C702      1.0  0.24198  0.62055  0.67955  1.0000
  C   C703      1.0  0.23198  0.60800  0.73360  1.0000
  H   H1235     1.0  0.47831  0.54493  0.59929  1.0000
  C   C704      1.0  0.47485  0.58388  0.60658  1.0000
  C   C705      1.0  0.47959  0.60447  0.60911  1.0000
  H   H1236     1.0  0.22254  0.59994  0.70265  1.0000
  H   H1237     1.0  0.25952  0.59170  0.71391  1.0000
  H   H1238     1.0  0.35404  0.60410  0.54001  1.0000
  H   H1239     1.0  0.24659  0.59070  0.67018  1.0000
  H   H1240     1.0  0.46933  0.60323  0.53558  1.0000
  H   H1241     1.0  0.41035  0.61068  0.66209  1.0000
  H   H1242     1.0  0.22871  0.61249  0.65709  1.0000
  C   C706      1.0  0.19847  0.63152  0.72740  1.0000
  H   H1243     1.0  0.18749  0.60572  0.72096  1.0000
  H   H1244     1.0  0.42461  0.62813  0.64109  1.0000
  C   C707      1.0  0.43249  0.44166  0.49173  1.0000
  H   H1245     1.0  0.18563  0.33060  0.66530  1.0000
  H   H1246     1.0  0.37386  0.32960  0.61112  1.0000
  C   C708      1.0  0.25614  0.60013  0.72686  1.0000
  H   H1247     1.0  0.24727  0.64192  0.70237  1.0000
  H   H1248     1.0  0.48767  0.57768  0.59405  1.0000
  H   H1249     1.0  0.48471  0.40273  0.52273  1.0000
  H   H1250     1.0  0.29722  0.56437  0.66444  1.0000
  H   H1251     1.0  0.16850  0.35761  0.72476  1.0000
  C   C709      1.0  0.48939  0.39445  0.53797  1.0000
  H   H1252     1.0  0.48111  0.53853  0.50557  1.0000
  C   C710      1.0  0.48897  0.49581  0.50326  1.0000
  H   H1253     1.0  0.14718  0.34417  0.72995  1.0000
  H   H1254     1.0  0.15598  0.63463  0.72584  1.0000
  C   C711      1.0  0.48902  0.47211  0.51363  1.0000
  H   H1255     1.0  0.21184  0.33202  0.66713  1.0000
  H   H1256     1.0  0.48484  0.56178  0.53841  1.0000
  S   S160      1.0  0.32998  0.65529  0.65605  1.0000
  H   H1257     1.0  0.35445  0.50265  0.48781  1.0000
  H   H1258     1.0  0.19462  0.40197  0.93564  1.0000
  Fe  Fe82      1.0  0.10054  0.33645  0.88834  1.0000
  S   S161      1.0  0.12971  0.34819  0.86929  1.0000
  C   C712      1.0  0.13533  0.48550  0.88001  1.0000
  Fe  Fe83      1.0  0.07325  0.36368  0.85770  1.0000
  S   S162      1.0  0.10015  0.37779  0.83583  1.0000
  S   S163      1.0  0.04073  0.37522  0.85014  1.0000
  Fe  Fe84      1.0  0.11946  0.34483  0.84145  1.0000
  C   C713      1.0  0.09804  0.44178  0.81821  1.0000
  Fe  Fe85      1.0  0.10807  0.38001  0.86540  1.0000
  S   S164      1.0  0.11965  0.40889  0.86454  1.0000
  C   C714      1.0  0.04952  0.32977  0.79524  1.0000
  S   S165      1.0  0.07944  0.36865  0.88704  1.0000
  Fe  Fe86      1.0  0.05729  0.54428  0.92206  1.0000
  S   S166      1.0  0.05743  0.56544  0.89008  1.0000
  S   S167      1.0  0.05322  0.55762  0.95053  1.0000
  Fe  Fe87      1.0  0.05992  0.50480  0.90665  1.0000
  S   S168      1.0  0.06094  0.52228  0.87306  1.0000
  S   S169      1.0  0.05823  0.47062  0.92023  1.0000
  Fe  Fe88      1.0  0.08308  0.53943  0.87874  1.0000
  S   S170      1.0  0.11409  0.54482  0.85669  1.0000
  Fe  Fe89      1.0  0.03534  0.54673  0.88712  1.0000
  S   S171      1.0  0.00576  0.56107  0.87437  1.0000
  S   S172      1.0  0.08454  0.51935  0.91115  1.0000
  S   S173      1.0  0.03271  0.52798  0.92022  1.0000
  H   H1259     1.0  0.22955  0.65546  0.82002  1.0000
  H   H1260     1.0  0.03850  0.45807  0.87773  1.0000
  H   H1261     1.0  0.10661  0.43044  0.93890  1.0000
  H   H1262     1.0  0.04993  0.32945  0.86341  1.0000
  H   H1263     1.0  0.25517  0.57912  0.89401  1.0000
  H   H1264     1.0  0.05903  0.48654  0.83741  1.0000
  C   C715      1.0  0.29042  0.59953  0.78563  1.0000
  H   H1265     1.0  0.01593  0.51600  0.89028  1.0000
  H   H1266     1.0  0.12354  0.38050  0.95251  1.0000
  C   C716      1.0  0.11626  0.57153  0.84677  1.0000
  C   C717      1.0  0.09826  0.58769  0.84802  1.0000
  C   C718      1.0  0.10026  0.60891  0.84198  1.0000
  C   C719      1.0  0.13632  0.57677  0.83850  1.0000
  H   H1267     1.0  0.08274  0.58391  0.85346  1.0000
  H   H1268     1.0  0.08622  0.62131  0.84309  1.0000
  H   H1269     1.0  0.15032  0.56432  0.83733  1.0000
  H   H1270     1.0  0.00605  0.43157  0.91029  1.0000
  H   H1271     1.0  0.00336  0.59363  0.93701  1.0000
  C   C720      1.0  0.09520  0.54101  0.95020  1.0000
  C   C721      1.0  0.07571  0.54961  0.96164  1.0000
  H   H1272     1.0  0.24372  0.62442  0.84158  1.0000
  H   H1273     1.0  0.99172  0.45022  0.97523  1.0000
  H   H1274     1.0  0.39722  0.62773  0.73907  1.0000
  H   H1275     1.0  0.09653  0.53954  0.93442  1.0000
  C   C722      1.0  0.03208  0.44499  0.97705  1.0000
  H   H1276     1.0  0.03862  0.51358  0.81336  1.0000
  C   C723      1.0  0.10191  0.42596  0.87970  1.0000
  C   C724      1.0  0.08851  0.41806  0.89830  1.0000
  C   C725      1.0  0.07503  0.43189  0.91073  1.0000
  C   C726      1.0  0.07448  0.45366  0.90419  1.0000
  C   C727      1.0  0.08744  0.46161  0.88531  1.0000
  C   C728      1.0  0.10156  0.44770  0.87334  1.0000
  H   H1277     1.0  0.08905  0.40123  0.90344  1.0000
  H   H1278     1.0  0.06513  0.42570  0.92546  1.0000
  H   H1279     1.0  0.08699  0.47842  0.88021  1.0000
  H   H1280     1.0  0.11206  0.45381  0.85903  1.0000
  H   H1281     1.0  0.15385  0.60207  0.82674  1.0000
  C   C729      1.0  0.00592  0.32497  0.84991  1.0000
  H   H1282     1.0  0.09327  0.45525  0.95935  1.0000
  H   H1283     1.0  0.16680  0.44801  0.92777  1.0000
  C   C730      1.0  0.03416  0.42608  0.88565  1.0000
  C   C731      1.0  0.02812  0.35561  0.84917  1.0000
  H   H1284     1.0  0.05753  0.33970  0.93708  1.0000
  C   C732      1.0  0.04152  0.48989  0.84245  1.0000
  H   H1285     1.0  0.01581  0.51641  0.83469  1.0000
  H   H1286     1.0  0.00140  0.48681  0.88756  1.0000
  H   H1287     1.0  0.00339  0.37815  0.83526  1.0000
  C   C733      1.0  0.27462  0.63044  0.76243  1.0000
  C   C734      1.0  0.35690  0.64777  0.75803  1.0000
  H   H1288     1.0  0.21850  0.65501  0.74219  1.0000
  H   H1289     1.0  0.18861  0.60418  0.85348  1.0000
  H   H1290     1.0  0.03243  0.48509  0.96364  1.0000
  H   H1291     1.0  0.07857  0.62940  0.87706  1.0000
  H   H1292     1.0  0.11485  0.45699  0.91016  1.0000
  H   H1293     1.0  0.14879  0.39976  0.92656  1.0000
  H   H1294     1.0  0.12943  0.41300  0.91063  1.0000
  H   H1295     1.0  0.00516  0.56614  0.95067  1.0000
  H   H1296     1.0  0.00621  0.33517  0.97073  1.0000
  H   H1297     1.0  0.03596  0.41116  0.81099  1.0000
  H   H1298     1.0  0.10261  0.45291  0.82502  1.0000
  C   C735      1.0  0.24757  0.63851  0.84443  1.0000
  C   C736      1.0  0.03079  0.44876  0.87164  1.0000
  H   H1299     1.0  0.03747  0.49002  0.85943  1.0000
  C   C737      1.0  0.10311  0.46712  0.95046  1.0000
  H   H1300     1.0  0.15636  0.47330  0.90157  1.0000
  H   H1301     1.0  0.32839  0.63090  0.82827  1.0000
  H   H1302     1.0  0.10400  0.42529  0.82612  1.0000
  C   C738      1.0  0.27051  0.59849  0.79895  1.0000
  H   H1303     1.0  0.27025  0.64084  0.80500  1.0000
  H   H1304     1.0  0.01414  0.47816  0.84213  1.0000
  H   H1305     1.0  0.07300  0.42692  0.96169  1.0000
  C   C739      1.0  0.02350  0.42645  0.90863  1.0000
  H   H1306     1.0  0.27140  0.60874  0.87032  1.0000
  H   H1307     1.0  0.24102  0.64148  0.77262  1.0000
  C   C740      1.0  0.03338  0.51225  0.83064  1.0000
  H   H1308     1.0  0.27686  0.64662  0.86558  1.0000
  H   H1309     1.0  0.10209  0.34532  0.93193  1.0000
  C   C741      1.0  0.31438  0.63640  0.82081  1.0000
  H   H1310     1.0  0.34899  0.63463  0.75929  1.0000
  H   H1311     1.0  0.23090  0.61055  0.87786  1.0000
  C   C742      1.0  0.25257  0.61347  0.79412  1.0000
  H   H1312     1.0  0.02944  0.34647  0.93938  1.0000
  C   C743      1.0  0.00948  0.36161  0.84131  1.0000
  H   H1313     1.0  0.99186  0.36928  0.90547  1.0000
  C   C744      1.0  0.99518  0.54035  0.87266  1.0000
  C   C745      1.0  0.10909  0.33096  0.94176  1.0000
  H   H1314     1.0  0.07273  0.63630  0.90239  1.0000
  C   C746      1.0  0.02535  0.44236  0.81854  1.0000
  H   H1315     1.0  0.12482  0.37691  0.92662  1.0000
  H   H1316     1.0  0.02314  0.39150  0.98592  1.0000
  H   H1317     1.0  0.16607  0.42632  0.91804  1.0000
  N   N40       1.0  0.03955  0.33269  0.96902  1.0000
  C   C747      1.0  0.25471  0.62960  0.77601  1.0000
  C   C748      1.0  0.07403  0.44597  0.82067  1.0000
  S   S174      1.0  0.22786  0.61205  0.81125  1.0000
  C   C749      1.0  0.11047  0.59795  0.96383  1.0000
  H   H1318     1.0  0.15242  0.61048  0.74500  1.0000
  H   H1319     1.0  0.15893  0.36153  0.76237  1.0000
  H   H1320     1.0  0.24553  0.64169  0.73768  1.0000
  C   C750      1.0  0.12027  0.61419  0.83466  1.0000
  H   H1321     1.0  0.14011  0.44402  0.89913  1.0000
  H   H1322     1.0  0.14185  0.50014  0.87374  1.0000
  C   C751      1.0  0.11981  0.38860  0.93684  1.0000
  H   H1323     1.0  0.01122  0.45544  0.81743  1.0000
  H   H1324     1.0  0.00418  0.33512  0.89368  1.0000
  H   H1325     1.0  0.04099  0.33689  0.78210  1.0000
  H   H1326     1.0  0.11809  0.48991  0.88019  1.0000
  C   C752      1.0  0.26057  0.58996  0.90047  1.0000
  N   N41       1.0  0.23536  0.64273  0.86566  1.0000
  C   C753      1.0  0.13834  0.59810  0.83249  1.0000
  H   H1327     1.0  0.01687  0.42909  0.79652  1.0000
  H   H1328     1.0  0.07061  0.43409  0.81396  1.0000
  H   H1329     1.0  0.06743  0.42676  0.85162  1.0000
  H   H1330     1.0  0.19357  0.40099  0.96287  1.0000
  H   H1331     1.0  0.25015  0.59170  0.91600  1.0000
  C   C754      1.0  0.03590  0.33419  0.85691  1.0000
  H   H1332     1.0  0.00593  0.48979  0.94486  1.0000
  H   H1333     1.0  0.04165  0.39731  0.96122  1.0000
  H   H1334     1.0  0.22872  0.61315  0.74876  1.0000
  H   H1335     1.0  0.28265  0.57972  0.74004  1.0000
  C   C755      1.0  0.06264  0.44373  0.84408  1.0000
  C   C756      1.0  0.00465  0.57733  0.93523  1.0000
  C   C757      1.0  0.18932  0.41137  0.94805  1.0000
  C   C758      1.0  0.02137  0.42372  0.81213  1.0000
  H   H1336     1.0  0.03892  0.45018  0.96011  1.0000
  H   H1337     1.0  0.06918  0.46204  0.81127  1.0000
  C   C759      1.0  0.00328  0.51946  0.88191  1.0000
  H   H1338     1.0  0.03967  0.52386  0.83512  1.0000
  H   H1339     1.0  0.15825  0.63181  0.75261  1.0000
  H   H1340     1.0  0.10286  0.47868  0.97785  1.0000
  H   H1341     1.0  0.36858  0.64085  0.76842  1.0000
  C   C760      1.0  0.32138  0.64121  0.79683  1.0000
  S   S175      1.0  0.14433  0.33020  0.81675  1.0000
  H   H1342     1.0  0.02714  0.41037  0.91857  1.0000
  H   H1343     1.0  0.06684  0.32850  0.78905  1.0000
  H   H1344     1.0  0.06956  0.45237  0.85170  1.0000
  H   H1345     1.0  0.01971  0.57312  0.92409  1.0000
  H   H1346     1.0  0.05126  0.41939  0.88501  1.0000
  H   H1347     1.0  0.19178  0.58661  0.87834  1.0000
  H   H1348     1.0  0.12333  0.41699  0.95680  1.0000
  H   H1349     1.0  0.10244  0.39454  0.93862  1.0000
  H   H1350     1.0  0.33163  0.62655  0.79230  1.0000
  C   C761      1.0  0.29245  0.61529  0.76718  1.0000
  S   S176      1.0  0.12201  0.64085  0.83017  1.0000
  C   C762      1.0  0.02581  0.39338  0.96863  1.0000
  C   C763      1.0  0.11505  0.33182  0.96004  1.0000
  H   H1351     1.0  0.02939  0.43748  0.91436  1.0000
  C   C764      1.0  0.02902  0.43612  0.84143  1.0000
  H   H1352     1.0  0.27695  0.58273  0.90288  1.0000
  C   C765      1.0  0.09778  0.48470  0.96253  1.0000
  H   H1353     1.0  0.30422  0.58785  0.78944  1.0000
  H   H1354     1.0  0.30503  0.62372  0.82586  1.0000
  C   C766      1.0  0.99831  0.34633  0.84179  1.0000
  S   S177      1.0  0.17744  0.65016  0.83032  1.0000
  H   H1355     1.0  0.26901  0.58605  0.81301  1.0000
  H   H1356     1.0  0.26485  0.63413  0.84377  1.0000
  C   C767      1.0  0.12695  0.45654  0.94807  1.0000
  N   N42       1.0  0.12800  0.58964  0.90588  1.0000
  C   C768      1.0  0.12187  0.58532  0.92961  1.0000
  C   C769      1.0  0.12897  0.56973  0.89895  1.0000
  C   C770      1.0  0.14918  0.59617  0.89909  1.0000
  C   C771      1.0  0.11198  0.60719  0.89601  1.0000
  C   C772      1.0  0.08889  0.60360  0.90228  1.0000
  C   C773      1.0  0.11657  0.60469  0.93984  1.0000
  C   C774      1.0  0.15899  0.59940  0.87513  1.0000
  C   C775      1.0  0.14765  0.55116  0.90397  1.0000
  C   C776      1.0  0.14590  0.53127  0.89815  1.0000
  C   C777      1.0  0.07352  0.62363  0.89428  1.0000
  H   H1357     1.0  0.03863  0.41972  0.84396  1.0000
  C   C778      1.0  0.18210  0.60140  0.87072  1.0000
  H   H1358     1.0  0.13473  0.57374  0.93668  1.0000
  H   H1359     1.0  0.10801  0.57757  0.93535  1.0000
  H   H1360     1.0  0.11407  0.56374  0.90626  1.0000
  H   H1361     1.0  0.12954  0.57307  0.88179  1.0000
  H   H1362     1.0  0.16081  0.58457  0.90788  1.0000
  H   H1363     1.0  0.14790  0.61145  0.90332  1.0000
  H   H1364     1.0  0.11217  0.62259  0.89920  1.0000
  H   H1365     1.0  0.11638  0.60960  0.87856  1.0000
  H   H1366     1.0  0.08335  0.59911  0.91956  1.0000
  H   H1367     1.0  0.08774  0.59084  0.89525  1.0000
  H   H1368     1.0  0.13039  0.61234  0.93596  1.0000
  H   H1369     1.0  0.10296  0.61656  0.93454  1.0000
  H   H1370     1.0  0.15017  0.61412  0.86639  1.0000
  H   H1371     1.0  0.15874  0.58607  0.86850  1.0000
  H   H1372     1.0  0.16307  0.55519  0.89493  1.0000
  H   H1373     1.0  0.14807  0.54719  0.92090  1.0000
  H   H1374     1.0  0.15887  0.51799  0.90276  1.0000
  H   H1375     1.0  0.13051  0.52665  0.90640  1.0000
  H   H1376     1.0  0.14730  0.53406  0.88088  1.0000
  H   H1377     1.0  0.00843  0.41683  0.82379  1.0000
  S   S178      1.0  0.09195  0.33042  0.86078  1.0000
  H   H1378     1.0  0.19483  0.63752  0.89635  1.0000
  H   H1379     1.0  0.10575  0.44393  0.80126  1.0000
  H   H1380     1.0  0.01302  0.43488  0.85151  1.0000
  C   C779      1.0  0.99505  0.50286  0.88034  1.0000
  H   H1381     1.0  0.19653  0.63708  0.74199  1.0000
  H   H1382     1.0  0.27626  0.64289  0.74842  1.0000
  H   H1383     1.0  0.22840  0.62463  0.89766  1.0000
  N   N43       1.0  0.13528  0.44232  0.93254  1.0000
  C   C780      1.0  0.12357  0.42433  0.93983  1.0000
  H   H1384     1.0  0.02795  0.52327  0.96485  1.0000
  C   C781      1.0  0.13181  0.45403  0.91081  1.0000
  C   C782      1.0  0.15877  0.43444  0.93138  1.0000
  H   H1385     1.0  0.01346  0.45557  0.87495  1.0000
  C   C783      1.0  0.13174  0.40668  0.92704  1.0000
  C   C784      1.0  0.13919  0.47546  0.90225  1.0000
  H   H1386     1.0  0.03893  0.44784  0.80682  1.0000
  H   H1387     1.0  0.13650  0.46897  0.94431  1.0000
  H   H1388     1.0  0.16771  0.65501  0.87476  1.0000
  H   H1389     1.0  0.09841  0.47423  0.93511  1.0000
  C   C785      1.0  0.26036  0.61150  0.88521  1.0000
  N   N44       1.0  0.03883  0.45057  0.84820  1.0000
  H   H1390     1.0  0.18329  0.61486  0.87667  1.0000
  H   H1391     1.0  0.03533  0.47581  0.82035  1.0000
  C   C786      1.0  0.03174  0.47343  0.83770  1.0000
  H   H1392     1.0  0.15783  0.40553  0.95690  1.0000
  C   C787      1.0  0.11326  0.53494  0.95892  1.0000
  C   C788      1.0  0.01820  0.32757  0.98073  1.0000
  C   C789      1.0  0.99662  0.46542  0.97313  1.0000
  H   H1393     1.0  0.01471  0.46318  0.94103  1.0000
  H   H1394     1.0  0.30436  0.65071  0.82630  1.0000
  H   H1395     1.0  0.26638  0.62138  0.89225  1.0000
  H   H1396     1.0  0.05682  0.35742  0.96474  1.0000
  H   H1397     1.0  0.04432  0.34046  0.80650  1.0000
  H   H1398     1.0  0.19774  0.42474  0.94337  1.0000
  C   C790      1.0  0.16536  0.41953  0.95165  1.0000
  C   C791      1.0  0.07430  0.55220  0.98192  1.0000
  Fe  Fe90      1.0  0.20090  0.63878  0.80318  1.0000
  H   H1399     1.0  0.13718  0.34829  0.76717  1.0000
  H   H1400     1.0  0.02602  0.43073  0.97813  1.0000
  H   H1401     1.0  0.12892  0.44750  0.96413  1.0000
  N   N45       1.0  0.01433  0.46211  0.98446  1.0000
  H   H1402     1.0  0.14314  0.47449  0.86923  1.0000
  H   H1403     1.0  0.30708  0.64493  0.79008  1.0000
  H   H1404     1.0  0.25822  0.57010  0.74990  1.0000
  H   H1405     1.0  0.10608  0.49762  0.95314  1.0000
  C   C792      1.0  0.02432  0.37320  0.96320  1.0000
  C   C793      1.0  0.16155  0.62335  0.73965  1.0000
  H   H1406     1.0  0.12828  0.52805  0.95013  1.0000
  H   H1407     1.0  0.13036  0.48692  0.91227  1.0000
  C   C794      1.0  0.23764  0.62222  0.88188  1.0000
  H   H1408     1.0  0.20724  0.63831  0.85849  1.0000
  S   S179      1.0  0.31754  0.61594  0.75070  1.0000
  Fe  Fe91      1.0  0.15292  0.65067  0.81301  1.0000
  H   H1409     1.0  0.10719  0.61188  0.97097  1.0000
  H   H1410     1.0  0.16093  0.42808  0.96466  1.0000
  C   C795      1.0  0.14751  0.35814  0.75493  1.0000
  C   C796      1.0  0.17436  0.32599  0.74503  1.0000
  H   H1411     1.0  0.02741  0.41516  0.88071  1.0000
  H   H1412     1.0  0.11277  0.34681  0.96425  1.0000
  H   H1413     1.0  0.02734  0.37636  0.94580  1.0000
  S   S180      1.0  0.17620  0.63660  0.78725  1.0000
  H   H1414     1.0  0.05744  0.62015  0.89752  1.0000
  H   H1415     1.0  0.34708  0.65488  0.79698  1.0000
  C   C797      1.0  0.04068  0.35395  0.97200  1.0000
  H   H1416     1.0  0.00794  0.37048  0.96980  1.0000
  C   C798      1.0  0.02282  0.48203  0.97999  1.0000
  H   H1417     1.0  0.01354  0.40673  0.96267  1.0000
  C   C799      1.0  0.19644  0.65302  0.88551  1.0000
  H   H1418     1.0  0.08045  0.49122  0.96536  1.0000
  H   H1419     1.0  0.12352  0.58594  0.97017  1.0000
  C   C800      1.0  0.21217  0.64981  0.86455  1.0000
  H   H1420     1.0  0.18965  0.60212  0.74783  1.0000
  H   H1421     1.0  0.00432  0.53557  0.98080  1.0000
  H   H1422     1.0  0.18735  0.33146  0.74832  1.0000
  H   H1423     1.0  0.09599  0.59111  0.96852  1.0000
  H   H1424     1.0  0.26187  0.59181  0.75878  1.0000
  C   C801      1.0  0.00156  0.47410  0.94899  1.0000
  C   C802      1.0  0.00611  0.50247  0.98290  1.0000
  C   C803      1.0  0.04242  0.33440  0.94567  1.0000
  H   H1425     1.0  0.08227  0.41828  0.98604  1.0000
  C   C804      1.0  0.11186  0.53748  0.97914  1.0000
  C   C805      1.0  0.26519  0.58448  0.74504  1.0000
  H   H1426     1.0  0.99583  0.50708  0.97126  1.0000
  H   H1427     1.0  0.13741  0.37336  0.74873  1.0000
  C   C806      1.0  0.01667  0.52094  0.98019  1.0000
  H   H1428     1.0  0.03248  0.33191  0.90916  1.0000
  H   H1429     1.0  0.22488  0.59376  0.73762  1.0000
  H   H1430     1.0  0.06250  0.40642  0.98232  1.0000
  C   C807      1.0  0.06820  0.42139  0.97898  1.0000
  H   H1431     1.0  0.99238  0.39720  0.93770  1.0000
  C   C808      1.0  0.15920  0.34678  0.73702  1.0000
  H   H1432     1.0  0.06061  0.32298  0.90667  1.0000
  H   H1433     1.0  0.33747  0.76908  0.05006  1.0000
  H   H1434     1.0  0.29338  0.77865  0.16181  1.0000
  H   H1435     1.0  0.26114  0.69301  0.22728  1.0000
  H   H1436     1.0  0.40984  0.77927  0.06991  1.0000
  H   H1437     1.0  0.33505  0.98115  0.11147  1.0000
  H   H1438     1.0  0.25092  0.76846  0.19370  1.0000
  H   H1439     1.0  0.35967  0.83886  0.12465  1.0000
  H   H1440     1.0  0.37618  0.77219  0.14778  1.0000
  Fe  Fe92      1.0  0.32029  0.72596  0.11999  1.0000
  S   S181      1.0  0.30055  0.73790  0.14849  1.0000
  S   S182      1.0  0.35033  0.73635  0.10053  1.0000
  Fe  Fe93      1.0  0.27286  0.73752  0.13577  1.0000
  S   S183      1.0  0.24559  0.76535  0.13521  1.0000
  S   S184      1.0  0.29268  0.72854  0.10580  1.0000
  S   S185      1.0  0.32179  0.69165  0.13574  1.0000
  H   H1441     1.0  0.48629  0.89470  0.98758  1.0000
  S   S186      1.0  0.29040  0.67039  0.10800  1.0000
  H   H1442     1.0  0.39143  0.79918  0.09174  1.0000
  Fe  Fe94      1.0  0.41276  0.84330  0.00884  1.0000
  Fe  Fe95      1.0  0.37895  0.84376  0.04858  1.0000
  H   H1443     1.0  0.23226  0.69717  0.20678  1.0000
  S   S187      1.0  0.34770  0.83442  0.06582  1.0000
  H   H1444     1.0  0.37564  0.93261  0.11426  1.0000
  H   H1445     1.0  0.35090  0.91767  0.09023  1.0000
  Fe  Fe96      1.0  0.40052  0.88149  0.02895  1.0000
  H   H1446     1.0  0.21871  0.65796  0.14170  1.0000
  S   S188      1.0  0.40870  0.82033  0.03982  1.0000
  S   S189      1.0  0.39452  0.86180  0.06188  1.0000
  S   S190      1.0  0.43149  0.86074  0.01863  1.0000
  H   H1447     1.0  0.40896  0.77938  0.14468  1.0000
  S   S191      1.0  0.43304  0.94869  0.08172  1.0000
  Fe  Fe97      1.0  0.42453  0.83992  0.05058  1.0000
  C   C809      1.0  0.43636  0.79139  0.12574  1.0000
  C   C810      1.0  0.41126  0.92526  0.03502  1.0000
  C   C811      1.0  0.41755  0.91128  0.05281  1.0000
  C   C812      1.0  0.42500  0.91853  0.06661  1.0000
  C   C813      1.0  0.42667  0.93970  0.06245  1.0000
  C   C814      1.0  0.42160  0.95351  0.04399  1.0000
  C   C815      1.0  0.41364  0.94634  0.03038  1.0000
  H   H1448     1.0  0.41620  0.89495  0.05630  1.0000
  H   H1449     1.0  0.42912  0.90774  0.08077  1.0000
  H   H1450     1.0  0.42332  0.96976  0.04053  1.0000
  C   C816      1.0  0.47047  0.83749  0.06164  1.0000
  H   H1451     1.0  0.40901  0.95716  0.01647  1.0000
  H   H1452     1.0  0.35420  0.75474  0.13629  1.0000
  Fe  Fe98      1.0  0.29241  0.69514  0.12386  1.0000
  C   C817      1.0  0.44524  0.78942  0.14505  1.0000
  H   H1453     1.0  0.38489  0.76539  0.10869  1.0000
  N   N46       1.0  0.25756  0.76591  0.22396  1.0000
  S   S192      1.0  0.18717  0.77494  0.22386  1.0000
  C   C818      1.0  0.34869  0.76364  0.09078  1.0000
  C   C819      1.0  0.36571  0.77060  0.07573  1.0000
  C   C820      1.0  0.36531  0.79227  0.06798  1.0000
  C   C821      1.0  0.34804  0.80717  0.07534  1.0000
  C   C822      1.0  0.33074  0.80024  0.09012  1.0000
  C   C823      1.0  0.33104  0.77847  0.09785  1.0000
  H   H1454     1.0  0.37917  0.75916  0.06991  1.0000
  H   H1455     1.0  0.37815  0.79737  0.05592  1.0000
  H   H1456     1.0  0.31714  0.81170  0.09567  1.0000
  H   H1457     1.0  0.31772  0.77318  0.10933  1.0000
  H   H1458     1.0  0.43603  0.75857  0.04560  1.0000
  C   C824      1.0  0.48250  0.83716  0.99791  1.0000
  H   H1459     1.0  0.43990  0.75650  0.10069  1.0000
  C   C825      1.0  0.38382  0.75733  0.14239  1.0000
  H   H1460     1.0  0.14640  0.68385  0.14080  1.0000
  H   H1461     1.0  0.37318  0.73000  0.13988  1.0000
  C   C826      1.0  0.48098  0.93566  0.10979  1.0000
  H   H1462     1.0  0.23286  0.71581  0.10645  1.0000
  H   H1463     1.0  0.42820  0.80810  0.12123  1.0000
  H   H1464     1.0  0.38537  0.80699  0.13610  1.0000
  H   H1465     1.0  0.31596  0.84601  0.03886  1.0000
  H   H1466     1.0  0.35472  0.82594  0.00686  1.0000
  S   S193      1.0  0.30113  0.69062  0.19681  1.0000
  H   H1467     1.0  0.42982  0.75968  0.13556  1.0000
  H   H1468     1.0  0.37112  0.76640  0.01182  1.0000
  H   H1469     1.0  0.13316  0.66978  0.21417  1.0000
  C   C827      1.0  0.20297  0.77148  0.19926  1.0000
  C   C828      1.0  0.20322  0.78892  0.18229  1.0000
  C   C829      1.0  0.21608  0.78677  0.16260  1.0000
  C   C830      1.0  0.22917  0.76730  0.15988  1.0000
  C   C831      1.0  0.22908  0.74985  0.17686  1.0000
  C   C832      1.0  0.21585  0.75192  0.19651  1.0000
  H   H1470     1.0  0.19334  0.80411  0.18434  1.0000
  H   H1471     1.0  0.21611  0.80031  0.14950  1.0000
  H   H1472     1.0  0.23918  0.73477  0.17489  1.0000
  H   H1473     1.0  0.43227  0.79359  0.15834  1.0000
  H   H1474     1.0  0.28286  0.80668  0.15652  1.0000
  C   C833      1.0  0.39638  0.76107  0.11923  1.0000
  C   C834      1.0  0.26427  0.76915  0.20028  1.0000
  H   H1475     1.0  0.47688  0.93641  0.05788  1.0000
  H   H1476     1.0  0.26636  0.78859  0.15822  1.0000
  C   C835      1.0  0.24102  0.66159  0.08970  1.0000
  N   N47       1.0  0.41073  0.77694  0.11264  1.0000
  H   H1477     1.0  0.45412  0.77306  0.14995  1.0000
  S   S194      1.0  0.38197  0.86566  0.01665  1.0000
  C   C836      1.0  0.47867  0.93123  0.02668  1.0000
  C   C837      1.0  0.30562  0.76757  0.05130  1.0000
  H   H1478     1.0  0.39476  0.74782  0.15297  1.0000
  H   H1479     1.0  0.21600  0.73848  0.20958  1.0000
  H   H1480     1.0  0.38619  0.84096  0.11025  1.0000
  H   H1481     1.0  0.46767  0.87974  0.00526  1.0000
  H   H1482     1.0  0.28474  0.79218  0.19424  1.0000
  C   C838      1.0  0.17530  0.66346  0.23630  1.0000
  S   S195      1.0  0.44963  0.82367  0.06959  1.0000
  H   H1483     1.0  0.48249  0.94171  0.12304  1.0000
  H   H1484     1.0  0.24472  0.67206  0.20026  1.0000
  C   C839      1.0  0.23025  0.66044  0.12711  1.0000
  C   C840      1.0  0.24948  0.66560  0.12683  1.0000
  H   H1485     1.0  0.47011  0.79778  0.01136  1.0000
  C   C841      1.0  0.39881  0.79893  0.10478  1.0000
  H   H1486     1.0  0.31593  0.79101  0.01200  1.0000
  C   C842      1.0  0.44088  0.76273  0.05827  1.0000
  C   C843      1.0  0.42181  0.76608  0.07631  1.0000
  H   H1487     1.0  0.38554  0.94847  0.07781  1.0000
  H   H1488     1.0  0.31905  0.79407  0.04865  1.0000
  H   H1489     1.0  0.25809  0.80393  0.19030  1.0000
  H   H1490     1.0  0.32040  0.83628  0.99571  1.0000
  H   H1491     1.0  0.45117  0.86679  0.04883  1.0000
  C   C844      1.0  0.27143  0.79024  0.18844  1.0000
  H   H1492     1.0  0.14017  0.76915  0.17846  1.0000
  H   H1493     1.0  0.17408  0.67307  0.14056  1.0000
  Fe  Fe99      1.0  0.29944  0.70386  0.16296  1.0000
  H   H1494     1.0  0.47387  0.94912  0.09830  1.0000
  C   C845      1.0  0.37317  0.83241  0.11294  1.0000
  C   C846      1.0  0.32096  0.83084  0.01266  1.0000
  C   C847      1.0  0.26483  0.66782  0.10814  1.0000
  C   C848      1.0  0.32406  0.77914  0.04291  1.0000
  H   H1495     1.0  0.23276  0.74781  0.23246  1.0000
  C   C849      1.0  0.42843  0.77083  0.09473  1.0000
  N   N48       1.0  0.34774  0.79571  0.00839  1.0000
  S   S196      1.0  0.39968  0.91663  0.01907  1.0000
  H   H1496     1.0  0.31012  0.75180  0.04716  1.0000
  H   H1497     1.0  0.47007  0.92436  0.11601  1.0000
  H   H1498     1.0  0.30192  0.75011  0.21288  1.0000
  H   H1499     1.0  0.47327  0.91076  0.05787  1.0000
  H   H1500     1.0  0.27724  0.75618  0.19541  1.0000
  H   H1501     1.0  0.27245  0.66725  0.07521  1.0000
  H   H1502     1.0  0.14964  0.77500  0.19857  1.0000
  H   H1503     1.0  0.21961  0.67466  0.21862  1.0000
  H   H1504     1.0  0.21441  0.67370  0.18394  1.0000
  H   H1505     1.0  0.36778  0.83528  0.09802  1.0000
  H   H1506     1.0  0.23578  0.72897  0.12520  1.0000
  H   H1507     1.0  0.36896  0.97534  0.04405  1.0000
  H   H1508     1.0  0.45825  0.94783  0.99591  1.0000
  H   H1509     1.0  0.30763  0.82266  0.02088  1.0000
  H   H1510     1.0  0.37909  0.90960  0.08945  1.0000
  C   C850      1.0  0.14838  0.66293  0.21846  1.0000
  H   H1511     1.0  0.44727  0.77745  0.05155  1.0000
  S   S197      1.0  0.27004  0.70430  0.15259  1.0000
  S   S198      1.0  0.47144  0.98714  0.05799  1.0000
  H   H1512     1.0  0.17896  0.75502  0.17599  1.0000
  H   H1513     1.0  0.34773  0.94128  0.11465  1.0000
  C   C851      1.0  0.27894  0.79101  0.16483  1.0000
  C   C852      1.0  0.15567  0.67241  0.23065  1.0000
  H   H1514     1.0  0.21461  0.74007  0.11083  1.0000
  N   N49       1.0  0.48595  0.96044  0.99297  1.0000
  H   H1515     1.0  0.29192  0.98364  0.08392  1.0000
  H   H1516     1.0  0.29150  0.77699  0.04489  1.0000
  C   C853      1.0  0.48225  0.92342  0.04919  1.0000
  H   H1517     1.0  0.13507  0.75406  0.20538  1.0000
  H   H1518     1.0  0.15451  0.66748  0.16452  1.0000
  H   H1519     1.0  0.34369  0.81333  0.03237  1.0000
  H   H1520     1.0  0.41513  0.75152  0.08150  1.0000
  H   H1521     1.0  0.40574  0.74507  0.11727  1.0000
  H   H1522     1.0  0.40990  0.81002  0.09751  1.0000
  H   H1523     1.0  0.17362  0.74076  0.20304  1.0000
  C   C854      1.0  0.36336  0.93608  0.10472  1.0000
  H   H1524     1.0  0.36660  0.78022  0.03183  1.0000
  C   C855      1.0  0.36647  0.74509  0.14532  1.0000
  H   H1525     1.0  0.32810  0.74270  0.23496  1.0000
  H   H1526     1.0  0.35868  0.74135  0.16221  1.0000
  C   C856      1.0  0.26055  0.66575  0.08963  1.0000
  H   H1527     1.0  0.43767  0.78356  0.08757  1.0000
  C   C857      1.0  0.40770  0.77731  0.01152  1.0000
  H   H1528     1.0  0.45356  0.74964  0.06386  1.0000
  H   H1529     1.0  0.25670  0.72932  0.20693  1.0000
  C   C858      1.0  0.38060  0.80875  0.12110  1.0000
  H   H1530     1.0  0.22889  0.69484  0.17154  1.0000
  H   H1531     1.0  0.36679  0.80119  0.12414  1.0000
  H   H1532     1.0  0.33527  0.76740  0.01445  1.0000
  C   C859      1.0  0.42093  0.77608  0.13048  1.0000
  H   H1533     1.0  0.22753  0.78631  0.21896  1.0000
  N   N50       1.0  0.18431  0.71282  0.17270  1.0000
  C   C860      1.0  0.17794  0.69404  0.16959  1.0000
  C   C861      1.0  0.19730  0.70524  0.18953  1.0000
  C   C862      1.0  0.16434  0.72750  0.18105  1.0000
  C   C863      1.0  0.19612  0.72495  0.15260  1.0000
  C   C864      1.0  0.20967  0.71219  0.13582  1.0000
  C   C865      1.0  0.16064  0.69934  0.15643  1.0000
  C   C866      1.0  0.16760  0.74640  0.18822  1.0000
  C   C867      1.0  0.21779  0.68843  0.18567  1.0000
  C   C868      1.0  0.22918  0.68274  0.20401  1.0000
  C   C869      1.0  0.22404  0.72515  0.11854  1.0000
  C   C870      1.0  0.15883  0.67969  0.15022  1.0000
  C   C871      1.0  0.14676  0.76208  0.19289  1.0000
  H   H1534     1.0  0.17180  0.68432  0.18510  1.0000
  H   H1535     1.0  0.19181  0.68311  0.16248  1.0000
  H   H1536     1.0  0.20244  0.71866  0.19199  1.0000
  H   H1537     1.0  0.18737  0.69872  0.20482  1.0000
  H   H1538     1.0  0.15432  0.71850  0.19471  1.0000
  H   H1539     1.0  0.15454  0.73447  0.16886  1.0000
  H   H1540     1.0  0.18495  0.73783  0.14429  1.0000
  H   H1541     1.0  0.20663  0.73331  0.15634  1.0000
  H   H1542     1.0  0.19938  0.70742  0.12815  1.0000
  H   H1543     1.0  0.21985  0.69766  0.14278  1.0000
  H   H1544     1.0  0.14495  0.70531  0.16589  1.0000
  H   H1545     1.0  0.16398  0.71165  0.14195  1.0000
  H   H1546     1.0  0.45628  0.80046  0.14114  1.0000
  H   H1547     1.0  0.48041  0.88598  0.03594  1.0000
  C   C872      1.0  0.33043  0.78325  0.01849  1.0000
  H   H1548     1.0  0.36046  0.90312  0.11376  1.0000
  H   H1549     1.0  0.30218  0.86126  0.01826  1.0000
  C   C873      1.0  0.31722  0.85052  0.02153  1.0000
  H   H1550     1.0  0.46801  0.83526  0.99395  1.0000
  H   H1551     1.0  0.36029  0.95219  0.07278  1.0000
  H   H1552     1.0  0.24491  0.79908  0.22462  1.0000
  C   C874      1.0  0.46686  0.85870  0.05121  1.0000
  H   H1553     1.0  0.30132  0.76517  0.06873  1.0000
  C   C875      1.0  0.36345  0.91539  0.09914  1.0000
  H   H1554     1.0  0.33868  0.66466  0.17765  1.0000
  C   C876      1.0  0.48344  0.86971  0.04419  1.0000
  H   H1555     1.0  0.46154  0.93301  0.02764  1.0000
  H   H1556     1.0  0.47672  0.84431  0.01197  1.0000
  C   C877      1.0  0.26097  0.72645  0.22244  1.0000
  H   H1557     1.0  0.45008  0.78786  0.11286  1.0000
  H   H1558     1.0  0.39139  0.96672  0.10224  1.0000
  C   C878      1.0  0.36807  0.78265  0.01463  1.0000
  C   C879      1.0  0.36849  0.95332  0.08464  1.0000
  C   C880      1.0  0.48123  0.80005  0.01990  1.0000
  H   H1559     1.0  0.40542  0.77465  0.02888  1.0000
  C   C881      1.0  0.34265  0.81627  0.01559  1.0000
  H   H1560     1.0  0.36687  0.96627  0.12055  1.0000
  H   H1561     1.0  0.27883  0.78261  0.22916  1.0000
  H   H1562     1.0  0.47571  0.96450  0.02513  1.0000
  H   H1563     1.0  0.25282  0.66697  0.14120  1.0000
  C   C882      1.0  0.48600  0.95248  0.01618  1.0000
  H   H1564     1.0  0.47200  0.80667  0.03374  1.0000
  C   C883      1.0  0.38823  0.79207  0.00408  1.0000
  H   H1565     1.0  0.41073  0.76189  0.00696  1.0000
  H   H1566     1.0  0.31711  0.77064  0.22880  1.0000
  H   H1567     1.0  0.32432  0.96010  0.09344  1.0000
  H   H1568     1.0  0.42179  0.78464  0.00411  1.0000
  H   H1569     1.0  0.38665  0.80739  0.00828  1.0000
  C   C884      1.0  0.30981  0.66315  0.20105  1.0000
  H   H1570     1.0  0.27838  0.72379  0.21964  1.0000
  H   H1571     1.0  0.33037  0.85920  0.01422  1.0000
  H   H1572     1.0  0.48744  0.91885  0.01772  1.0000
  C   C885      1.0  0.29601  0.75020  0.22982  1.0000
  H   H1573     1.0  0.28252  0.65664  0.22521  1.0000
  C   C886      1.0  0.27509  0.76652  0.23392  1.0000
  C   C887      1.0  0.25423  0.70603  0.23582  1.0000
  H   H1574     1.0  0.45250  0.97367  0.00089  1.0000
  C   C888      1.0  0.47257  0.88773  0.98866  1.0000
  H   H1575     1.0  0.33010  0.97739  0.06838  1.0000
  H   H1576     1.0  0.29669  0.98925  0.10678  1.0000
  N   N51       1.0  0.36393  0.97563  0.08786  1.0000
  C   C889      1.0  0.23932  0.78392  0.22883  1.0000
  C   C890      1.0  0.24973  0.74537  0.23317  1.0000
  C   C891      1.0  0.34051  0.98464  0.09402  1.0000
  H   H1577     1.0  0.23785  0.66000  0.07532  1.0000
  C   C892      1.0  0.22601  0.65844  0.10850  1.0000
  H   H1578     1.0  0.39161  0.98372  0.06517  1.0000
  H   H1579     1.0  0.44962  0.91611  0.99459  1.0000
  H   H1580     1.0  0.33451  0.90615  0.98823  1.0000
  C   C893      1.0  0.37456  0.97528  0.10525  1.0000
  Fe  Fe100     1.0  0.43904  0.98160  0.07415  1.0000
  C   C894      1.0  0.46349  0.96316  0.99055  1.0000
  H   H1581     1.0  0.39631  0.98410  0.13056  1.0000
  C   C895      1.0  0.32513  0.97677  0.08548  1.0000
  H   H1582     1.0  0.36855  0.98921  0.14320  1.0000
  H   H1583     1.0  0.39143  0.79459  0.98668  1.0000
  N   N52       1.0  0.05657  0.81540  0.29978  1.0000
  H   H1584     1.0  0.07668  0.79613  0.40058  1.0000
  H   H1585     1.0  0.04833  0.77816  0.33121  1.0000
  S   S199      1.0  0.22462  0.68211  0.28211  1.0000
  H   H1586     1.0  0.03720  0.77590  0.36950  1.0000
  Fe  Fe101     1.0  0.06597  0.85838  0.38445  1.0000
  S   S200      1.0  0.09712  0.86828  0.36957  1.0000
  S   S201      1.0  0.05339  0.84803  0.41918  1.0000
  Fe  Fe102     1.0  0.05205  0.86884  0.34276  1.0000
  S   S202      1.0  0.08232  0.87864  0.32446  1.0000
  S   S203      1.0  0.02590  0.87649  0.32514  1.0000
  Fe  Fe103     1.0  0.09801  0.85035  0.34543  1.0000
  S   S204      1.0  0.12887  0.83143  0.33107  1.0000
  Fe  Fe104     1.0  0.07849  0.89559  0.34998  1.0000
  S   S205      1.0  0.07916  0.93018  0.34064  1.0000
  S   S206      1.0  0.06791  0.83859  0.36157  1.0000
  S   S207      1.0  0.04723  0.88738  0.36712  1.0000
  C   C896      1.0  0.04829  0.96909  0.41552  1.0000
  N   N53       1.0  0.99292  0.81651  0.48310  1.0000
  C   C897      1.0  0.00962  0.84279  0.35140  1.0000
  C   C898      1.0  0.04619  0.90543  0.47669  1.0000
  H   H1587     1.0  0.14851  0.86704  0.37565  1.0000
  Fe  Fe105     1.0  0.17929  0.74561  0.24712  1.0000
  Fe  Fe106     1.0  0.19433  0.70356  0.27486  1.0000
  H   H1588     1.0  0.02399  0.83814  0.35742  1.0000
  H   H1589     1.0  0.03695  0.81082  0.48184  1.0000
  H   H1590     1.0  0.02685  0.79953  0.33771  1.0000
  C   C899      1.0  0.02491  0.79539  0.43256  1.0000
  C   C900      1.0  0.10696  0.83800  0.44117  1.0000
  C   C901      1.0  0.09286  0.84294  0.42751  1.0000
  C   C902      1.0  0.07120  0.84401  0.43564  1.0000
  C   C903      1.0  0.09939  0.83401  0.46301  1.0000
  C   C904      1.0  0.00930  0.94114  0.38121  1.0000
  H   H1591     1.0  0.12376  0.83698  0.43489  1.0000
  H   H1592     1.0  0.09878  0.84542  0.41077  1.0000
  N   N54       1.0  0.08508  0.90988  0.45934  1.0000
  H   H1593     1.0  0.01800  0.95317  0.38129  1.0000
  H   H1594     1.0  0.09529  0.92338  0.48003  1.0000
  C   C905      1.0  0.11290  0.77559  0.33635  1.0000
  C   C906      1.0  0.11248  0.79572  0.33913  1.0000
  C   C907      1.0  0.12825  0.80680  0.32705  1.0000
  H   H1595     1.0  0.10100  0.76677  0.34601  1.0000
  H   H1596     1.0  0.10015  0.80247  0.35082  1.0000
  H   H1597     1.0  0.21666  0.81543  0.25143  1.0000
  H   H1598     1.0  0.18235  0.78983  0.44146  1.0000
  S   S208      1.0  0.12882  0.74153  0.31799  1.0000
  C   C908      1.0  0.16586  0.75645  0.36218  1.0000
  H   H1599     1.0  0.17212  0.79403  0.36645  1.0000
  H   H1600     1.0  0.99243  0.93457  0.36132  1.0000
  H   H1601     1.0  0.10419  0.81694  0.38724  1.0000
  H   H1602     1.0  0.10150  0.75087  0.28584  1.0000
  N   N55       1.0  0.14781  0.80206  0.39310  1.0000
  C   C909      1.0  0.99907  0.80505  0.46523  1.0000
  H   H1603     1.0  0.02879  0.83933  0.30687  1.0000
  H   H1604     1.0  0.10564  0.90871  0.37105  1.0000
  C   C910      1.0  0.06359  0.84096  0.45739  1.0000
  H   H1605     1.0  0.02433  0.96195  0.44306  1.0000
  H   H1606     1.0  0.11717  0.92192  0.39643  1.0000
  C   C911      1.0  0.16295  0.83512  0.37047  1.0000
  H   H1607     1.0  0.12114  0.80561  0.41903  1.0000
  C   C912      1.0  0.20965  0.80120  0.25506  1.0000
  H   H1608     1.0  0.08346  0.80214  0.42219  1.0000
  C   C913      1.0  0.00797  0.88775  0.42167  1.0000
  H   H1609     1.0  0.03402  0.95114  0.34421  1.0000
  H   H1610     1.0  0.04033  0.84626  0.26622  1.0000
  H   H1611     1.0  0.30861  0.75480  0.25470  1.0000
  C   C914      1.0  0.14418  0.77808  0.30862  1.0000
  H   H1612     1.0  0.00796  0.87418  0.43537  1.0000
  C   C915      1.0  0.00631  0.86137  0.33606  1.0000
  H   H1613     1.0  0.04282  0.80156  0.36645  1.0000
  H   H1614     1.0  0.08743  0.83341  0.31099  1.0000
  C   C916      1.0  0.10907  0.80002  0.39455  1.0000
  H   H1615     1.0  0.17053  0.82815  0.35646  1.0000
  H   H1616     1.0  0.06407  0.77977  0.36021  1.0000
  H   H1617     1.0  0.26979  0.76373  0.25132  1.0000
  H   H1618     1.0  0.07489  0.83113  0.27086  1.0000
  S   S209      1.0  0.16160  0.69693  0.28808  1.0000
  C   C917      1.0  0.99639  0.88483  0.40623  1.0000
  C   C918      1.0  0.15651  0.79036  0.37542  1.0000
  H   H1619     1.0  0.05886  0.95103  0.45948  1.0000
  H   H1620     1.0  0.01586  0.80744  0.42151  1.0000
  C   C919      1.0  0.99546  0.83915  0.47422  1.0000
  H   H1621     1.0  0.23675  0.70803  0.23926  1.0000
  H   H1622     1.0  0.03692  0.92233  0.29491  1.0000
  C   C920      1.0  0.14341  0.82548  0.38339  1.0000
  H   H1623     1.0  0.18023  0.79598  0.39701  1.0000
  C   C921      1.0  0.04729  0.78728  0.35965  1.0000
  H   H1624     1.0  0.15256  0.76157  0.35374  1.0000
  C   C922      1.0  0.14416  0.79791  0.31188  1.0000
  C   C923      1.0  0.08937  0.79307  0.40951  1.0000
  H   H1625     1.0  0.11410  0.79063  0.38222  1.0000
  C   C924      1.0  0.16010  0.76594  0.38168  1.0000
  H   H1626     1.0  0.07334  0.75266  0.29324  1.0000
  H   H1627     1.0  0.14617  0.79601  0.36367  1.0000
  C   C925      1.0  0.02550  0.97360  0.42782  1.0000
  H   H1628     1.0  0.17493  0.83253  0.38009  1.0000
  H   H1629     1.0  0.12937  0.77967  0.41484  1.0000
  C   C926      1.0  0.02957  0.83548  0.27582  1.0000
  H   H1630     1.0  0.07506  0.91144  0.28295  1.0000
  H   H1631     1.0  0.13252  0.82915  0.37243  1.0000
  H   H1632     1.0  0.17068  0.86562  0.35366  1.0000
  C   C927      1.0  0.12868  0.76678  0.32103  1.0000
  H   H1633     1.0  0.15630  0.77147  0.29667  1.0000
  H   H1634     1.0  0.15636  0.80646  0.30243  1.0000
  H   H1635     1.0  0.09216  0.89438  0.41906  1.0000
  S   S210      1.0  0.18582  0.73681  0.27968  1.0000
  C   C928      1.0  0.10521  0.84384  0.28012  1.0000
  H   H1636     1.0  0.07399  0.80230  0.32498  1.0000
  C   C929      1.0  0.10111  0.92530  0.37144  1.0000
  C   C930      1.0  0.05756  0.80921  0.32282  1.0000
  C   C931      1.0  0.02144  0.94453  0.34165  1.0000
  H   H1637     1.0  0.05276  0.82365  0.32952  1.0000
  C   C932      1.0  0.99407  0.98862  0.46524  1.0000
  C   C933      1.0  0.09128  0.82905  0.29543  1.0000
  C   C934      1.0  0.03397  0.82619  0.29835  1.0000
  H   H1638     1.0  0.02292  0.81517  0.30618  1.0000
  C   C935      1.0  0.02224  0.80313  0.45264  1.0000
  C   C936      1.0  0.07500  0.96501  0.47403  1.0000
  H   H1639     1.0  0.04095  0.92272  0.47496  1.0000
  H   H1640     1.0  0.01536  0.97094  0.41851  1.0000
  C   C937      1.0  0.04398  0.79302  0.33703  1.0000
  H   H1641     1.0  0.06473  0.92117  0.40132  1.0000
  H   H1642     1.0  0.04965  0.95705  0.30861  1.0000
  S   S211      1.0  0.14523  0.74294  0.25788  1.0000
  H   H1643     1.0  0.11025  0.83970  0.26442  1.0000
  C   C938      1.0  0.06060  0.90744  0.41384  1.0000
  H   H1644     1.0  0.05030  0.91782  0.31603  1.0000
  C   C939      1.0  0.06222  0.79647  0.28984  1.0000
  C   C940      1.0  0.08838  0.92858  0.46576  1.0000
  H   H1645     1.0  0.09698  0.78920  0.28242  1.0000
  C   C941      1.0  0.08599  0.76148  0.28401  1.0000
  H   H1646     1.0  0.08755  0.92774  0.42730  1.0000
  Fe  Fe107     1.0  0.15255  0.73122  0.29012  1.0000
  Fe  Fe108     1.0  0.15713  0.70925  0.25478  1.0000
  C   C942      1.0  0.08864  0.93931  0.35777  1.0000
  C   C943      1.0  0.07765  0.83561  0.47108  1.0000
  H   H1647     1.0  0.06264  0.80165  0.27264  1.0000
  H   H1648     1.0  0.04961  0.78695  0.29613  1.0000
  C   C944      1.0  0.07056  0.83124  0.28796  1.0000
  H   H1649     1.0  0.04423  0.91193  0.42278  1.0000
  H   H1650     1.0  0.06145  0.92799  0.44115  1.0000
  H   H1651     1.0  0.13525  0.83461  0.39585  1.0000
  H   H1652     1.0  0.02804  0.98710  0.37645  1.0000
  C   C945      1.0  0.07627  0.89983  0.42853  1.0000
  H   H1653     1.0  0.21904  0.76786  0.25703  1.0000
  H   H1654     1.0  0.16271  0.76456  0.42226  1.0000
  H   H1655     1.0  0.01983  0.92531  0.38378  1.0000
  C   C946      1.0  0.08325  0.96088  0.35802  1.0000
  H   H1656     1.0  0.07371  0.97180  0.34739  1.0000
  H   H1657     1.0  0.08015  0.93260  0.29146  1.0000
  H   H1658     1.0  0.18085  0.67042  0.24605  1.0000
  C   C947      1.0  0.16295  0.77944  0.42625  1.0000
  H   H1659     1.0  0.08529  0.76559  0.26707  1.0000
  H   H1660     1.0  0.17352  0.75958  0.38992  1.0000
  H   H1661     1.0  0.15025  0.88322  0.45691  1.0000
  H   H1662     1.0  0.08558  0.77611  0.30862  1.0000
  H   H1663     1.0  0.11963  0.84224  0.28616  1.0000
  H   H1664     1.0  0.11767  0.90439  0.44232  1.0000
  S   S212      1.0  0.11733  0.82659  0.47991  1.0000
  H   H1665     1.0  0.06121  0.89450  0.40616  1.0000
  C   C948      1.0  0.00217  0.94611  0.36031  1.0000
  C   C949      1.0  0.10661  0.89558  0.45500  1.0000
  H   H1666     1.0  0.01901  0.98558  0.34170  1.0000
  H   H1667     1.0  0.14843  0.78327  0.43832  1.0000
  H   H1668     1.0  0.06659  0.93846  0.26987  1.0000
  H   H1669     1.0  0.05066  0.98104  0.40063  1.0000
  C   C950      1.0  0.18194  0.77545  0.43646  1.0000
  H   H1670     1.0  0.08525  0.98489  0.37276  1.0000
  H   H1671     1.0  0.03150  0.82258  0.26761  1.0000
  C   C951      1.0  0.06857  0.92784  0.28532  1.0000
  H   H1672     1.0  0.16190  0.81224  0.41338  1.0000
  H   H1673     1.0  0.05190  0.95350  0.41134  1.0000
  H   H1674     1.0  0.01054  0.87368  0.47505  1.0000
  H   H1675     1.0  0.23758  0.77950  0.26299  1.0000
  C   C952      1.0  0.04735  0.92864  0.30102  1.0000
  H   H1676     1.0  0.09657  0.86057  0.27854  1.0000
  H   H1677     1.0  0.02698  0.97941  0.46997  1.0000
  H   H1678     1.0  0.07161  0.88592  0.44047  1.0000
  H   H1679     1.0  0.10006  0.93659  0.45306  1.0000
  H   H1680     1.0  0.01949  0.78021  0.43622  1.0000
  H   H1681     1.0  0.03294  0.79132  0.46227  1.0000
  H   H1682     1.0  0.99684  0.78843  0.47110  1.0000
  H   H1683     1.0  0.10077  0.81276  0.29702  1.0000
  H   H1684     1.0  0.05966  0.96931  0.42480  1.0000
  C   C953      1.0  0.08377  0.78138  0.29204  1.0000
  H   H1685     1.0  0.08449  0.97243  0.45893  1.0000
  H   H1686     1.0  0.20068  0.79890  0.27163  1.0000
  C   C954      1.0  0.08975  0.96832  0.37237  1.0000
  C   C955      1.0  0.12715  0.79648  0.40639  1.0000
  C   C956      1.0  0.15643  0.85898  0.36238  1.0000
  H   H1687     1.0  0.14553  0.86234  0.35142  1.0000
  C   C957      1.0  0.06860  0.94558  0.47159  1.0000
  H   H1688     1.0  0.04684  0.84255  0.46369  1.0000
  C   C958      1.0  0.00745  0.97770  0.31766  1.0000
  H   H1689     1.0  0.03563  0.96177  0.28836  1.0000
  H   H1690     1.0  0.13917  0.86089  0.45817  1.0000
  H   H1691     1.0  0.19697  0.77091  0.42532  1.0000
  H   H1692     1.0  0.14578  0.76036  0.39183  1.0000
  C   C959      1.0  0.16383  0.79812  0.40672  1.0000
  H   H1693     1.0  0.02825  0.92740  0.34312  1.0000
  H   H1694     1.0  0.06176  0.84767  0.28902  1.0000
  C   C960      1.0  0.10158  0.95425  0.38653  1.0000
  H   H1695     1.0  0.16904  0.73890  0.36692  1.0000
  H   H1696     1.0  0.18022  0.76138  0.35125  1.0000
  H   H1697     1.0  0.25015  0.74008  0.25024  1.0000
  H   H1698     1.0  0.02756  0.81836  0.44774  1.0000
  C   C961      1.0  0.10764  0.93279  0.38577  1.0000
  H   H1699     1.0  0.09289  0.77589  0.41667  1.0000
  H   H1700     1.0  0.14644  0.86357  0.48110  1.0000
  H   H1701     1.0  0.99527  0.83815  0.28614  1.0000
  H   H1702     1.0  0.19831  0.80388  0.24468  1.0000
  H   H1703     1.0  0.18063  0.76236  0.45062  1.0000
  C   C962      1.0  0.07726  0.91752  0.43900  1.0000
  H   H1704     1.0  0.10559  0.88204  0.44899  1.0000
  H   H1705     1.0  0.02465  0.88834  0.41377  1.0000
  C   C963      1.0  0.01092  0.98563  0.47839  1.0000
  C   C964      1.0  0.00112  0.94360  0.31655  1.0000
  H   H1706     1.0  0.01228  0.84007  0.46768  1.0000
  H   H1707     1.0  0.04188  0.79285  0.42461  1.0000
  H   H1708     1.0  0.00287  0.86871  0.40312  1.0000
  C   C965      1.0  0.22696  0.78159  0.25211  1.0000
  H   H1709     1.0  0.00659  0.92607  0.32020  1.0000
  C   C966      1.0  0.07031  0.89782  0.47654  1.0000
  N   N56       1.0  0.01681  0.95432  0.31998  1.0000
  S   S213      1.0  0.10767  0.96314  0.40606  1.0000
  H   H1710     1.0  0.99292  0.97277  0.46391  1.0000
  C   C967      1.0  0.03743  0.95155  0.30408  1.0000
  H   H1711     1.0  0.00068  0.90279  0.42705  1.0000
  H   H1712     1.0  0.08441  0.96054  0.48650  1.0000
  C   C968      1.0  0.11750  0.88509  0.47409  1.0000
  H   H1713     1.0  0.22954  0.66318  0.34404  1.0000
  H   H1714     1.0  0.00031  0.89644  0.39135  1.0000
  C   C969      1.0  0.99586  0.95064  0.29426  1.0000
  C   C970      1.0  0.00687  0.84816  0.27666  1.0000
  H   H1715     1.0  0.11959  0.89669  0.48198  1.0000
  H   H1716     1.0  0.01031  0.94844  0.28180  1.0000
  H   H1717     1.0  0.04229  0.90119  0.46352  1.0000
  C   C971      1.0  0.13968  0.87243  0.46706  1.0000
  H   H1718     1.0  0.00446  0.86202  0.28373  1.0000
  H   H1719     1.0  0.99739  0.81508  0.36972  1.0000
  H   H1720     1.0  0.99069  0.98051  0.32640  1.0000
  H   H1721     1.0  0.25986  0.70141  0.25084  1.0000
  C   C972      1.0  0.99451  0.82988  0.35848  1.0000
  H   H1722     1.0  0.00375  0.85405  0.26048  1.0000
  H   H1723     1.0  0.00666  0.98516  0.30093  1.0000
  H   H1724     1.0  0.03636  0.98875  0.31619  1.0000
  C   C973      1.0  0.22611  0.65663  0.27896  1.0000
  H   H1725     1.0  0.99523  0.94153  0.39436  1.0000
  C   C974      1.0  0.99307  0.87562  0.48028  1.0000
  H   H1726     1.0  0.10807  0.87414  0.48593  1.0000
  S   S214      1.0  0.14023  0.69550  0.23853  1.0000
  H   H1727     1.0  0.07414  0.88084  0.47565  1.0000
  H   H1728     1.0  0.06067  0.97693  0.47854  1.0000
  S   S215      1.0  0.19067  0.71289  0.24132  1.0000
  H   H1729     1.0  0.99189  0.96204  0.35852  1.0000
  H   H1730     1.0  0.29362  0.73416  0.23872  1.0000
  H   H1731     1.0  0.21395  0.65638  0.32951  1.0000
  C   C975      1.0  0.31346  0.75497  0.23758  1.0000
  H   H1732     1.0  0.20237  0.90739  0.59203  1.0000
  H   H1733     1.0  0.18698  0.89087  0.55056  1.0000
  H   H1734     1.0  0.11182  0.86624  0.59442  1.0000
  C   C976      1.0  0.30999  0.80337  0.70679  1.0000
  Fe  Fe109     1.0  0.10217  0.83180  0.51266  1.0000
  Fe  Fe110     1.0  0.19397  0.79327  0.68306  1.0000
  S   S216      1.0  0.19132  0.82843  0.67336  1.0000
  S   S217      1.0  0.17185  0.78133  0.71259  1.0000
  Fe  Fe111     1.0  0.22996  0.78483  0.64649  1.0000
  S   S218      1.0  0.23026  0.81924  0.63411  1.0000
  S   S219      1.0  0.25472  0.76419  0.62699  1.0000
  Fe  Fe112     1.0  0.22673  0.82019  0.66772  1.0000
  H   H1735     1.0  0.22878  0.68641  0.71417  1.0000
  Fe  Fe113     1.0  0.19499  0.82372  0.64086  1.0000
  S   S220      1.0  0.17820  0.84647  0.61624  1.0000
  S   S221      1.0  0.22925  0.78531  0.67983  1.0000
  S   S222      1.0  0.19480  0.78904  0.65097  1.0000
  H   H1736     1.0  0.25179  0.79735  0.70444  1.0000
  S   S223      1.0  0.07066  0.85348  0.51822  1.0000
  Fe  Fe114     1.0  0.10555  0.82360  0.55830  1.0000
  S   S224      1.0  0.07423  0.84502  0.56729  1.0000
  S   S225      1.0  0.12306  0.80365  0.58352  1.0000
  Fe  Fe115     1.0  0.06285  0.82962  0.54783  1.0000
  S   S226      1.0  0.03228  0.81781  0.55776  1.0000
  Fe  Fe116     1.0  0.08524  0.86682  0.53677  1.0000
  S   S227      1.0  0.07787  0.90239  0.53029  1.0000
  S   S228      1.0  0.09337  0.80659  0.54087  1.0000
  H   H1737     1.0  0.14837  0.90525  0.64234  1.0000
  H   H1738     1.0  0.20619  0.87224  0.67189  1.0000
  S   S229      1.0  0.13059  0.94878  0.56262  1.0000
  H   H1739     1.0  0.09128  0.85102  0.60300  1.0000
  H   H1740     1.0  0.11311  0.89575  0.64280  1.0000
  C   C977      1.0  0.09270  0.91481  0.53952  1.0000
  C   C978      1.0  0.11119  0.90367  0.54670  1.0000
  C   C979      1.0  0.12267  0.91416  0.55394  1.0000
  C   C980      1.0  0.11562  0.93576  0.55413  1.0000
  C   C981      1.0  0.09690  0.94667  0.54736  1.0000
  C   C982      1.0  0.08557  0.93629  0.53991  1.0000
  H   H1741     1.0  0.11674  0.88704  0.54654  1.0000
  H   H1742     1.0  0.13709  0.90557  0.55924  1.0000
  H   H1743     1.0  0.09124  0.96318  0.54755  1.0000
  H   H1744     1.0  0.07123  0.94496  0.53448  1.0000
  C   C983      1.0  0.01062  0.83708  0.55055  1.0000
  H   H1745     1.0  0.35832  0.65795  0.72379  1.0000
  C   C984      1.0  0.22965  0.72886  0.60256  1.0000
  C   C985      1.0  0.03275  0.89515  0.49700  1.0000
  H   H1746     1.0  0.01815  0.96848  0.50885  1.0000
  C   C986      1.0  0.01227  0.85829  0.54365  1.0000
  H   H1747     1.0  0.20258  0.87734  0.63529  1.0000
  H   H1748     1.0  0.15492  0.94395  0.61861  1.0000
  H   H1749     1.0  0.32284  0.81117  0.69613  1.0000
  H   H1750     1.0  0.02680  0.86290  0.54307  1.0000
  C   C987      1.0  0.16157  0.83554  0.60775  1.0000
  C   C988      1.0  0.15394  0.81770  0.62034  1.0000
  C   C989      1.0  0.14179  0.80825  0.61289  1.0000
  C   C990      1.0  0.13696  0.81678  0.59293  1.0000
  C   C991      1.0  0.14419  0.83491  0.58046  1.0000
  C   C992      1.0  0.15646  0.84432  0.58790  1.0000
  H   H1751     1.0  0.15727  0.81123  0.63590  1.0000
  H   H1752     1.0  0.13613  0.79427  0.62261  1.0000
  H   H1753     1.0  0.14059  0.84150  0.56499  1.0000
  H   H1754     1.0  0.16232  0.85813  0.57809  1.0000
  C   C993      1.0  0.17380  0.75392  0.71826  1.0000
  H   H1755     1.0  0.09539  0.86535  0.62034  1.0000
  H   H1756     1.0  0.17296  0.82428  0.72241  1.0000
  H   H1757     1.0  0.37849  0.66505  0.73211  1.0000
  H   H1758     1.0  0.19705  0.74867  0.69023  1.0000
  C   C994      1.0  0.26391  0.69368  0.65648  1.0000
  C   C995      1.0  0.24401  0.70683  0.66112  1.0000
  C   C996      1.0  0.24111  0.72865  0.65243  1.0000
  C   C997      1.0  0.25784  0.73708  0.63825  1.0000
  C   C998      1.0  0.27747  0.72381  0.63303  1.0000
  C   C999      1.0  0.28066  0.70221  0.64252  1.0000
  H   H1759     1.0  0.23106  0.70022  0.67195  1.0000
  H   H1760     1.0  0.22593  0.73887  0.65654  1.0000
  H   H1761     1.0  0.29042  0.73033  0.62208  1.0000
  H   H1762     1.0  0.29599  0.69209  0.63880  1.0000
  H   H1763     1.0  0.00773  0.95390  0.49652  1.0000
  H   H1764     1.0  0.22158  0.74272  0.57224  1.0000
  H   H1765     1.0  0.00414  0.92979  0.54513  1.0000
  H   H1766     1.0  0.22669  0.77622  0.57050  1.0000
  C   C1000     1.0  0.15397  0.90311  0.62580  1.0000
  S   S230      1.0  0.35001  0.75188  0.73236  1.0000
  H   H1767     1.0  0.22172  0.65786  0.70141  1.0000
  C   C1001     1.0  0.24720  0.84591  0.71370  1.0000
  H   H1768     1.0  0.99628  0.89003  0.53251  1.0000
  C   C1002     1.0  0.24032  0.67433  0.72256  1.0000
  H   H1769     1.0  0.17151  0.91780  0.57183  1.0000
  H   H1770     1.0  0.29326  0.69577  0.73190  1.0000
  H   H1771     1.0  0.15717  0.93877  0.59371  1.0000
  C   C1003     1.0  0.19441  0.89086  0.56350  1.0000
  H   H1772     1.0  0.22232  0.72593  0.61958  1.0000
  H   H1773     1.0  0.00373  0.91620  0.58255  1.0000
  H   H1774     1.0  0.03669  0.89793  0.51093  1.0000
  C   C1004     1.0  0.18544  0.82710  0.72887  1.0000
  H   H1775     1.0  0.16089  0.76021  0.65329  1.0000
  C   C1005     1.0  0.00530  0.80507  0.50015  1.0000
  H   H1776     1.0  0.17691  0.78825  0.52898  1.0000
  C   C1006     1.0  0.99497  0.87363  0.53777  1.0000
  H   H1777     1.0  0.12514  0.88139  0.62191  1.0000
  H   H1778     1.0  0.17342  0.78550  0.58578  1.0000
  H   H1779     1.0  0.12604  0.92773  0.61942  1.0000
  H   H1780     1.0  0.01575  0.90216  0.49709  1.0000
  H   H1781     1.0  0.19589  0.80783  0.57678  1.0000
  H   H1782     1.0  0.19233  0.89896  0.67268  1.0000
  C   C1007     1.0  0.35613  0.70536  0.69138  1.0000
  H   H1783     1.0  0.05586  0.96273  0.60588  1.0000
  C   C1008     1.0  0.24783  0.83067  0.70277  1.0000
  H   H1784     1.0  0.08106  0.94562  0.59820  1.0000
  H   H1785     1.0  0.04466  0.77886  0.50876  1.0000
  H   H1786     1.0  0.16277  0.74965  0.61996  1.0000
  H   H1787     1.0  0.03257  0.92496  0.53877  1.0000
  N   N57       1.0  0.17315  0.91293  0.61508  1.0000
  S   S231      1.0  0.35994  0.68796  0.67468  1.0000
  C   C1009     1.0  0.16621  0.93623  0.60612  1.0000
  H   H1788     1.0  0.19637  0.94194  0.58446  1.0000
  C   C1010     1.0  0.18759  0.74140  0.70471  1.0000
  C   C1011     1.0  0.03981  0.79452  0.51313  1.0000
  H   H1789     1.0  0.20077  0.87417  0.57069  1.0000
  S   S232      1.0  0.30693  0.66611  0.70327  1.0000
  C   C1012     1.0  0.13392  0.91185  0.61608  1.0000
  H   H1790     1.0  0.20084  0.91618  0.62415  1.0000
  H   H1791     1.0  0.10389  0.90407  0.61842  1.0000
  C   C1013     1.0  0.18561  0.91084  0.63158  1.0000
  H   H1792     1.0  0.17658  0.92138  0.64263  1.0000
  S   S233      1.0  0.11757  0.84673  0.52929  1.0000
  N   N58       1.0  0.30321  0.77269  0.66757  1.0000
  C   C1014     1.0  0.29258  0.78224  0.64898  1.0000
  C   C1015     1.0  0.29098  0.75724  0.68375  1.0000
  C   C1016     1.0  0.30266  0.79060  0.67755  1.0000
  C   C1017     1.0  0.32614  0.76228  0.66109  1.0000
  C   C1018     1.0  0.33072  0.74476  0.64857  1.0000
  C   C1019     1.0  0.30356  0.79831  0.63100  1.0000
  C   C1020     1.0  0.30893  0.78406  0.69941  1.0000
  C   C1021     1.0  0.28133  0.74320  0.67538  1.0000
  C   C1022     1.0  0.27394  0.72518  0.69281  1.0000
  C   C1023     1.0  0.35413  0.73991  0.63802  1.0000
  C   C1024     1.0  0.29208  0.80597  0.61264  1.0000
  C   C1025     1.0  0.17511  0.97169  0.58582  1.0000
  H   H1793     1.0  0.27592  0.79029  0.65440  1.0000
  H   H1794     1.0  0.29108  0.76994  0.64159  1.0000
  H   H1795     1.0  0.30106  0.74671  0.69478  1.0000
  H   H1796     1.0  0.27717  0.76589  0.69368  1.0000
  H   H1797     1.0  0.28653  0.80088  0.67948  1.0000
  H   H1798     1.0  0.31341  0.80111  0.66710  1.0000
  H   H1799     1.0  0.33568  0.77441  0.65195  1.0000
  H   H1800     1.0  0.33327  0.75468  0.67514  1.0000
  H   H1801     1.0  0.32159  0.74913  0.63597  1.0000
  H   H1802     1.0  0.32695  0.72992  0.65952  1.0000
  H   H1803     1.0  0.30355  0.81247  0.63655  1.0000
  H   H1804     1.0  0.32012  0.79099  0.62472  1.0000
  H   H1805     1.0  0.32470  0.77345  0.69884  1.0000
  C   C1026     1.0  0.18402  0.94913  0.59652  1.0000
  H   H1806     1.0  0.26732  0.75292  0.66902  1.0000
  H   H1807     1.0  0.29254  0.73612  0.66271  1.0000
  H   H1808     1.0  0.26179  0.73150  0.70549  1.0000
  H   H1809     1.0  0.26681  0.71567  0.68645  1.0000
  H   H1810     1.0  0.28756  0.71461  0.69920  1.0000
  H   H1811     1.0  0.36429  0.73590  0.64976  1.0000
  H   H1812     1.0  0.35727  0.72612  0.63066  1.0000
  H   H1813     1.0  0.35845  0.75370  0.62559  1.0000
  H   H1814     1.0  0.29136  0.79242  0.60647  1.0000
  H   H1815     1.0  0.27575  0.81463  0.61776  1.0000
  H   H1816     1.0  0.30062  0.81690  0.59971  1.0000
  H   H1817     1.0  0.21764  0.83041  0.58104  1.0000
  C   C1027     1.0  0.09552  0.86574  0.60374  1.0000
  H   H1818     1.0  0.00785  0.78765  0.50182  1.0000
  H   H1819     1.0  0.24236  0.73775  0.59986  1.0000
  H   H1820     1.0  0.15917  0.73291  0.65772  1.0000
  H   H1821     1.0  0.07168  0.83206  0.48786  1.0000
  C   C1028     1.0  0.99156  0.83124  0.55171  1.0000
  H   H1822     1.0  0.07207  0.94925  0.62486  1.0000
  S   S234      1.0  0.17988  0.68230  0.73614  1.0000
  C   C1029     1.0  0.17781  0.90152  0.57991  1.0000
  H   H1823     1.0  0.35265  0.83268  0.72323  1.0000
  H   H1824     1.0  0.03361  0.96791  0.55194  1.0000
  S   S235      1.0  0.24532  0.83883  0.67635  1.0000
  H   H1825     1.0  0.19944  0.70973  0.69937  1.0000
  C   C1030     1.0  0.24968  0.83980  0.73462  1.0000
  H   H1826     1.0  0.24857  0.70919  0.58049  1.0000
  H   H1827     1.0  0.18192  0.77686  0.61877  1.0000
  H   H1828     1.0  0.05431  0.79998  0.51272  1.0000
  C   C1031     1.0  0.02713  0.81059  0.49778  1.0000
  C   C1032     1.0  0.11804  0.89730  0.62548  1.0000
  H   H1829     1.0  0.22823  0.69740  0.60035  1.0000
  Fe  Fe117     1.0  0.11624  0.98273  0.56508  1.0000
  C   C1033     1.0  0.37305  0.71450  0.69040  1.0000
  C   C1034     1.0  0.33669  0.71088  0.70487  1.0000
  C   C1035     1.0  0.37076  0.72881  0.70297  1.0000
  C   C1036     1.0  0.00643  0.96982  0.49930  1.0000
  H   H1830     1.0  0.16417  0.80152  0.55032  1.0000
  H   H1831     1.0  0.25197  0.69900  0.60729  1.0000
  H   H1832     1.0  0.31335  0.79830  0.72289  1.0000
  H   H1833     1.0  0.18530  0.72888  0.62495  1.0000
  N   N59       1.0  0.04148  0.90577  0.60101  1.0000
  C   C1037     1.0  0.04904  0.92600  0.59797  1.0000
  C   C1038     1.0  0.03808  0.90449  0.58016  1.0000
  C   C1039     1.0  0.02127  0.90609  0.61749  1.0000
  C   C1040     1.0  0.05761  0.88652  0.60821  1.0000
  C   C1041     1.0  0.08034  0.88528  0.59457  1.0000
  C   C1042     1.0  0.05583  0.92901  0.61714  1.0000
  C   C1043     1.0  0.01052  0.88697  0.62168  1.0000
  C   C1044     1.0  0.01874  0.92011  0.57236  1.0000
  C   C1045     1.0  0.01867  0.91931  0.54994  1.0000
  H   H1834     1.0  0.20761  0.89952  0.55673  1.0000
  H   H1835     1.0  0.03526  0.87788  0.49811  1.0000
  H   H1836     1.0  0.16250  0.97981  0.59713  1.0000
  H   H1837     1.0  0.03643  0.94002  0.59407  1.0000
  H   H1838     1.0  0.06235  0.92767  0.58404  1.0000
  H   H1839     1.0  0.05218  0.90758  0.56775  1.0000
  H   H1840     1.0  0.03684  0.88821  0.58022  1.0000
  H   H1841     1.0  0.00966  0.92102  0.61349  1.0000
  H   H1842     1.0  0.02429  0.90634  0.63289  1.0000
  H   H1843     1.0  0.05836  0.88505  0.62485  1.0000
  H   H1844     1.0  0.05275  0.87181  0.60825  1.0000
  H   H1845     1.0  0.08677  0.89929  0.59348  1.0000
  H   H1846     1.0  0.08042  0.88424  0.57843  1.0000
  H   H1847     1.0  0.04174  0.93210  0.62983  1.0000
  H   H1848     1.0  0.06696  0.91496  0.62367  1.0000
  H   H1849     1.0  0.02033  0.87231  0.62935  1.0000
  H   H1850     1.0  0.05430  0.98346  0.56738  1.0000
  H   H1851     1.0  0.29721  0.77582  0.71155  1.0000
  H   H1852     1.0  0.01887  0.93653  0.57239  1.0000
  H   H1853     1.0  0.16845  0.97141  0.57244  1.0000
  H   H1854     1.0  0.35218  0.80489  0.72918  1.0000
  H   H1855     1.0  0.18357  0.73935  0.65825  1.0000
  H   H1856     1.0  0.17310  0.75948  0.58523  1.0000
  C   C1046     1.0  0.25125  0.80920  0.71278  1.0000
  H   H1857     1.0  0.24455  0.86250  0.70605  1.0000
  H   H1858     1.0  0.22868  0.77175  0.59693  1.0000
  H   H1859     1.0  0.19955  0.80240  0.60336  1.0000
  C   C1047     1.0  0.24019  0.70730  0.59724  1.0000
  H   H1860     1.0  0.24714  0.98514  0.63523  1.0000
  H   H1861     1.0  0.19749  0.83357  0.71555  1.0000
  C   C1048     1.0  0.03721  0.98703  0.57144  1.0000
  H   H1862     1.0  0.16507  0.89227  0.58565  1.0000
  H   H1863     1.0  0.23676  0.80746  0.58997  1.0000
  H   H1864     1.0  0.32347  0.70430  0.70516  1.0000
  H   H1865     1.0  0.23279  0.81349  0.56322  1.0000
  H   H1866     1.0  0.24434  0.96039  0.68118  1.0000
  C   C1049     1.0  0.18740  0.90142  0.59849  1.0000
  H   H1867     1.0  0.17742  0.88117  0.65316  1.0000
  C   C1050     1.0  0.06686  0.94779  0.61105  1.0000
  C   C1051     1.0  0.18902  0.71939  0.70994  1.0000
  H   H1868     1.0  0.15976  0.77562  0.55168  1.0000
  H   H1869     1.0  0.19865  0.76083  0.55120  1.0000
  H   H1870     1.0  0.13750  0.91357  0.59884  1.0000
  H   H1871     1.0  0.20443  0.75789  0.62538  1.0000
  H   H1872     1.0  0.19257  0.88449  0.60560  1.0000
  H   H1873     1.0  0.21784  0.89389  0.65498  1.0000
  H   H1874     1.0  0.20157  0.73089  0.59084  1.0000
  C   C1052     1.0  0.24609  0.96168  0.66405  1.0000
  H   H1875     1.0  0.19149  0.95026  0.60897  1.0000
  H   H1876     1.0  0.20186  0.78676  0.55103  1.0000
  H   H1877     1.0  0.38802  0.71051  0.67981  1.0000
  H   H1878     1.0  0.15832  0.88570  0.62703  1.0000
  C   C1053     1.0  0.19157  0.88816  0.64510  1.0000
  N   N60       1.0  0.20138  0.76259  0.59317  1.0000
  C   C1054     1.0  0.21297  0.74114  0.58894  1.0000
  C   C1055     1.0  0.18378  0.77093  0.58108  1.0000
  C   C1056     1.0  0.21701  0.77709  0.58653  1.0000
  C   C1057     1.0  0.19179  0.76129  0.61626  1.0000
  C   C1058     1.0  0.17713  0.74511  0.62681  1.0000
  H   H1879     1.0  0.02505  0.82639  0.50120  1.0000
  C   C1059     1.0  0.20751  0.80070  0.58712  1.0000
  C   C1060     1.0  0.19079  0.77567  0.55674  1.0000
  C   C1061     1.0  0.17172  0.78584  0.54636  1.0000
  C   C1062     1.0  0.16979  0.74441  0.65044  1.0000
  H   H1880     1.0  0.01906  0.90292  0.54897  1.0000
  C   C1063     1.0  0.22482  0.81374  0.57985  1.0000
  C   C1064     1.0  0.20264  0.88847  0.66216  1.0000
  H   H1881     1.0  0.38402  0.73572  0.70207  1.0000
  Fe  Fe118     1.0  0.33897  0.66439  0.68185  1.0000
  H   H1882     1.0  0.05884  0.93916  0.48697  1.0000
  C   C1065     1.0  0.35158  0.73407  0.71679  1.0000
  S   S236      1.0  0.09994  0.98821  0.59726  1.0000
  C   C1066     1.0  0.00328  0.98340  0.56735  1.0000
  H   H1883     1.0  0.25616  0.67271  0.71189  1.0000
  H   H1884     1.0  0.07296  0.89782  0.49212  1.0000
  H   H1885     1.0  0.23361  0.95494  0.66157  1.0000
  C   C1067     1.0  0.33438  0.72524  0.71767  1.0000
  H   H1886     1.0  0.00827  0.88427  0.60697  1.0000
  S   S237      1.0  0.26769  0.66668  0.66829  1.0000
  H   H1887     1.0  0.29471  0.81497  0.70726  1.0000
  H   H1888     1.0  0.38586  0.81253  0.73349  1.0000
  C   C1068     1.0  0.02547  0.97812  0.56283  1.0000
  H   H1889     1.0  0.26179  0.95220  0.65815  1.0000
  H   H1890     1.0  0.03028  0.79275  0.52947  1.0000
  C   C1069     1.0  0.24459  0.98476  0.65219  1.0000
  H   H1891     1.0  0.18791  0.98090  0.57956  1.0000
  H   H1892     1.0  0.31938  0.72961  0.72802  1.0000
  C   C1070     1.0  0.17729  0.70988  0.72906  1.0000
  H   H1893     1.0  0.20332  0.79548  0.73081  1.0000
  H   H1894     1.0  0.24135  0.67988  0.73631  1.0000
  H   H1895     1.0  0.99603  0.80807  0.51580  1.0000
  H   H1896     1.0  0.44196  0.75483  0.72832  1.0000
  H   H1897     1.0  0.99268  0.84718  0.50446  1.0000
  C   C1071     1.0  0.25479  0.80302  0.73342  1.0000
  H   H1898     1.0  0.22437  0.74471  0.72949  1.0000
  C   C1072     1.0  0.35221  0.81825  0.73603  1.0000
  H   H1899     1.0  0.45369  0.77281  0.73542  1.0000
  Fe  Fe119     1.0  0.37931  0.85805  0.88382  1.0000
  S   S238      1.0  0.40760  0.87305  0.87450  1.0000
  S   S239      1.0  0.36249  0.85265  0.91789  1.0000
  Fe  Fe120     1.0  0.37986  0.85764  0.83860  1.0000
  S   S240      1.0  0.40848  0.87259  0.82555  1.0000
  S   S241      1.0  0.36334  0.85347  0.81510  1.0000
  Fe  Fe121     1.0  0.42086  0.85030  0.85308  1.0000
  S   S242      1.0  0.45472  0.83346  0.85201  1.0000
  Fe  Fe122     1.0  0.39271  0.89400  0.84805  1.0000
  S   S243      1.0  0.38923  0.92949  0.83912  1.0000
  S   S244      1.0  0.39364  0.83334  0.86443  1.0000
  S   S245      1.0  0.36305  0.88097  0.85905  1.0000
  Fe  Fe123     1.0  0.31678  0.76497  0.80327  1.0000
  S   S246      1.0  0.32632  0.73467  0.79186  1.0000
  S   S247      1.0  0.33402  0.76783  0.82671  1.0000
  Fe  Fe124     1.0  0.28223  0.78254  0.77769  1.0000
  S   S248      1.0  0.28900  0.75391  0.76388  1.0000
  S   S249      1.0  0.25694  0.81126  0.77058  1.0000
  Fe  Fe125     1.0  0.29154  0.73626  0.79684  1.0000
  S   S250      1.0  0.27843  0.70715  0.81313  1.0000
  Fe  Fe126     1.0  0.32307  0.75517  0.76016  1.0000
  H   H1900     1.0  0.41747  0.96010  0.93849  1.0000
  S   S251      1.0  0.28215  0.76471  0.81108  1.0000
  S   S252      1.0  0.31617  0.78547  0.77112  1.0000
  H   H1901     1.0  0.38581  0.70435  0.74311  1.0000
  Fe  Fe127     1.0  0.17923  0.68266  0.81067  1.0000
  S   S253      1.0  0.20459  0.67126  0.78471  1.0000
  S   S254      1.0  0.18177  0.70748  0.82630  1.0000
  H   H1902     1.0  0.41586  0.78216  0.80250  1.0000
  H   H1903     1.0  0.22761  0.72467  0.75318  1.0000
  H   H1904     1.0  0.39856  0.72135  0.80363  1.0000
  H   H1905     1.0  0.41486  0.90540  0.90163  1.0000
  H   H1906     1.0  0.15022  0.75425  0.74688  1.0000
  C   C1073     1.0  0.41020  0.77818  0.75401  1.0000
  C   C1074     1.0  0.37208  0.79273  0.76335  1.0000
  H   H1907     1.0  0.45764  0.86311  0.92117  1.0000
  S   S255      1.0  0.15236  0.68449  0.79570  1.0000
  H   H1908     1.0  0.31804  0.92647  0.83278  1.0000
  H   H1909     1.0  0.35136  0.93770  0.79252  1.0000
  H   H1910     1.0  0.46336  0.86836  0.97300  1.0000
  H   H1911     1.0  0.48073  0.96384  0.89104  1.0000
  H   H1912     1.0  0.42374  0.74473  0.76586  1.0000
  C   C1075     1.0  0.37989  0.89950  0.94853  1.0000
  Fe  Fe128     1.0  0.17762  0.67046  0.77111  1.0000
  H   H1913     1.0  0.43245  0.82704  0.93630  1.0000
  C   C1076     1.0  0.35089  0.92811  0.89235  1.0000
  C   C1077     1.0  0.33337  0.65979  0.78906  1.0000
  H   H1914     1.0  0.37350  0.73254  0.81889  1.0000
  H   H1915     1.0  0.39845  0.81584  0.76663  1.0000
  H   H1916     1.0  0.27918  0.67788  0.75263  1.0000
  H   H1917     1.0  0.33873  0.69846  0.76710  1.0000
  H   H1918     1.0  0.48726  0.94689  0.87326  1.0000
  H   H1919     1.0  0.36584  0.77525  0.94257  1.0000
  H   H1920     1.0  0.27402  0.66465  0.80978  1.0000
  S   S256      1.0  0.43682  0.95959  0.89143  1.0000
  C   C1078     1.0  0.39720  0.95941  0.85522  1.0000
  H   H1921     1.0  0.37194  0.79959  0.94353  1.0000
  C   C1079     1.0  0.25094  0.71192  0.81525  1.0000
  C   C1080     1.0  0.24296  0.70963  0.79897  1.0000
  C   C1081     1.0  0.22157  0.70883  0.80213  1.0000
  C   C1082     1.0  0.20797  0.71071  0.82149  1.0000
  C   C1083     1.0  0.21558  0.71448  0.83734  1.0000
  C   C1084     1.0  0.23712  0.71488  0.83429  1.0000
  H   H1922     1.0  0.25352  0.70732  0.78433  1.0000
  H   H1923     1.0  0.21565  0.70661  0.78963  1.0000
  H   H1924     1.0  0.20503  0.71627  0.85224  1.0000
  H   H1925     1.0  0.24316  0.71694  0.84683  1.0000
  H   H1926     1.0  0.37383  0.94860  0.94759  1.0000
  H   H1927     1.0  0.33837  0.89188  0.96787  1.0000
  H   H1928     1.0  0.34332  0.89628  0.81978  1.0000
  H   H1929     1.0  0.43770  0.86160  0.90841  1.0000
  C   C1085     1.0  0.48491  0.84240  0.86720  1.0000
  H   H1930     1.0  0.26056  0.69199  0.87274  1.0000
  H   H1931     1.0  0.36635  0.68026  0.78679  1.0000
  C   C1086     1.0  0.40381  0.93881  0.85163  1.0000
  H   H1932     1.0  0.37207  0.96184  0.77267  1.0000
  H   H1933     1.0  0.22732  0.77201  0.74610  1.0000
  C   C1087     1.0  0.42889  0.76014  0.76017  1.0000
  C   C1088     1.0  0.43223  0.93248  0.87012  1.0000
  C   C1089     1.0  0.42152  0.92553  0.85877  1.0000
  H   H1934     1.0  0.47468  0.97321  0.84720  1.0000
  H   H1935     1.0  0.48270  0.85777  0.81100  1.0000
  H   H1936     1.0  0.44578  0.92200  0.87589  1.0000
  H   H1937     1.0  0.42692  0.90983  0.85567  1.0000
  C   C1090     1.0  0.35326  0.83038  0.82018  1.0000
  C   C1091     1.0  0.35910  0.81278  0.83573  1.0000
  C   C1092     1.0  0.35251  0.79384  0.83804  1.0000
  C   C1093     1.0  0.33986  0.79249  0.82500  1.0000
  C   C1094     1.0  0.33336  0.81033  0.80997  1.0000
  C   C1095     1.0  0.34023  0.82917  0.80742  1.0000
  H   H1938     1.0  0.36912  0.81356  0.84564  1.0000
  H   H1939     1.0  0.35752  0.78010  0.84975  1.0000
  H   H1940     1.0  0.32336  0.80952  0.80005  1.0000
  H   H1941     1.0  0.33560  0.84277  0.79542  1.0000
  C   C1096     1.0  0.40171  0.83758  0.92810  1.0000
  C   C1097     1.0  0.38013  0.84524  0.93508  1.0000
  H   H1942     1.0  0.40765  0.83536  0.91213  1.0000
  H   H1943     1.0  0.43040  0.79486  0.77761  1.0000
  H   H1944     1.0  0.38190  0.80737  0.79126  1.0000
  C   C1098     1.0  0.38168  0.72867  0.80335  1.0000
  H   H1945     1.0  0.39236  0.97556  0.94882  1.0000
  C   C1099     1.0  0.28636  0.69201  0.74893  1.0000
  C   C1100     1.0  0.35798  0.78163  0.97397  1.0000
  C   C1101     1.0  0.25380  0.81836  0.74441  1.0000
  H   H1946     1.0  0.47217  0.84529  0.95237  1.0000
  H   H1947     1.0  0.41684  0.79228  0.74452  1.0000
  C   C1102     1.0  0.39668  0.97204  0.78009  1.0000
  H   H1948     1.0  0.38359  0.96981  0.84957  1.0000
  C   C1103     1.0  0.23151  0.74002  0.74365  1.0000
  C   C1104     1.0  0.48998  0.87800  0.86307  1.0000
  H   H1949     1.0  0.33731  0.82118  0.74789  1.0000
  C   C1105     1.0  0.36118  0.91190  0.96239  1.0000
  C   C1106     1.0  0.46181  0.87239  0.84991  1.0000
  H   H1950     1.0  0.45131  0.88344  0.89883  1.0000
  H   H1951     1.0  0.37652  0.90190  0.89737  1.0000
  H   H1952     1.0  0.41526  0.82991  0.78792  1.0000
  C   C1107     1.0  0.42780  0.88517  0.92802  1.0000
  C   C1108     1.0  0.41584  0.81467  0.79970  1.0000
  C   C1109     1.0  0.33240  0.96170  0.83450  1.0000
  H   H1953     1.0  0.35615  0.92897  0.81836  1.0000
  H   H1954     1.0  0.43216  0.98300  0.95276  1.0000
  C   C1110     1.0  0.35037  0.68540  0.76065  1.0000
  N   N61       1.0  0.39229  0.78436  0.77171  1.0000
  C   C1111     1.0  0.37750  0.92546  0.91430  1.0000
  H   H1955     1.0  0.19143  0.75927  0.75335  1.0000
  H   H1956     1.0  0.17829  0.83901  0.73877  1.0000
  H   H1957     1.0  0.34477  0.79788  0.94602  1.0000
  H   H1958     1.0  0.34676  0.77065  0.97963  1.0000
  H   H1959     1.0  0.46848  0.90297  0.84700  1.0000
  C   C1112     1.0  0.38058  0.70193  0.76050  1.0000
  C   C1113     1.0  0.45901  0.97190  0.96811  1.0000
  C   C1114     1.0  0.32782  0.97682  0.77591  1.0000
  C   C1115     1.0  0.34421  0.93907  0.80903  1.0000
  H   H1960     1.0  0.17480  0.68026  0.87118  1.0000
  C   C1116     1.0  0.40830  0.83620  0.96233  1.0000
  C   C1117     1.0  0.37989  0.74863  0.78584  1.0000
  C   C1118     1.0  0.32471  0.92839  0.81565  1.0000
  H   H1961     1.0  0.27068  0.66895  0.89135  1.0000
  C   C1119     1.0  0.37256  0.84768  0.95589  1.0000
  H   H1962     1.0  0.46671  0.96003  0.95827  1.0000
  C   C1120     1.0  0.19606  0.80645  0.74168  1.0000
  S   S257      1.0  0.42638  0.83215  0.97854  1.0000
  C   C1121     1.0  0.41565  0.79667  0.78983  1.0000
  H   H1963     1.0  0.29467  0.98384  0.77338  1.0000
  C   C1122     1.0  0.41573  0.83281  0.94181  1.0000
  C   C1123     1.0  0.30330  0.68809  0.76174  1.0000
  C   C1124     1.0  0.32337  0.97591  0.79980  1.0000
  C   C1125     1.0  0.34661  0.89740  0.97710  1.0000
  H   H1964     1.0  0.41704  0.92929  0.92312  1.0000
  H   H1965     1.0  0.31696  0.89858  0.81633  1.0000
  C   C1126     1.0  0.34984  0.80072  0.98483  1.0000
  H   H1966     1.0  0.29597  0.68286  0.77850  1.0000
  H   H1967     1.0  0.16899  0.79226  0.75276  1.0000
  H   H1968     1.0  0.40148  0.88460  0.91562  1.0000
  H   H1969     1.0  0.35823  0.79544  0.77643  1.0000
  H   H1970     1.0  0.31214  0.93758  0.80690  1.0000
  H   H1971     1.0  0.36910  0.71629  0.76442  1.0000
  C   C1127     1.0  0.27143  0.67628  0.87437  1.0000
  H   H1972     1.0  0.32314  0.67363  0.79543  1.0000
  H   H1973     1.0  0.40207  0.81639  0.81302  1.0000
  C   C1128     1.0  0.40261  0.92638  0.93535  1.0000
  C   C1129     1.0  0.43525  0.97615  0.96886  1.0000
  C   C1130     1.0  0.38991  0.94882  0.93781  1.0000
  H   H1974     1.0  0.38842  0.95905  0.92204  1.0000
  H   H1975     1.0  0.40830  0.91816  0.95020  1.0000
  C   C1131     1.0  0.17973  0.79662  0.76028  1.0000
  C   C1132     1.0  0.22346  0.75712  0.75652  1.0000
  H   H1976     1.0  0.38080  0.84589  0.98520  1.0000
  C   C1133     1.0  0.26561  0.66198  0.86344  1.0000
  H   H1977     1.0  0.23256  0.67559  0.86643  1.0000
  H   H1978     1.0  0.46570  0.89353  0.79612  1.0000
  H   H1979     1.0  0.16354  0.66669  0.89702  1.0000
  H   H1980     1.0  0.37377  0.77273  0.97692  1.0000
  C   C1134     1.0  0.48691  0.83328  0.95392  1.0000
  H   H1981     1.0  0.37721  0.77186  0.80360  1.0000
  H   H1982     1.0  0.48461  0.82108  0.92802  1.0000
  C   C1135     1.0  0.47845  0.87198  0.97386  1.0000
  H   H1983     1.0  0.40323  0.75832  0.79627  1.0000
  C   C1136     1.0  0.40848  0.89707  0.91775  1.0000
  H   H1984     1.0  0.36538  0.93786  0.92118  1.0000
  C   C1137     1.0  0.36048  0.97022  0.80391  1.0000
  H   H1985     1.0  0.38704  0.93430  0.90012  1.0000
  N   N62       1.0  0.39172  0.91239  0.92928  1.0000
  H   H1986     1.0  0.36020  0.93764  0.87870  1.0000
  C   C1138     1.0  0.37050  0.68246  0.76939  1.0000
  H   H1987     1.0  0.39461  0.69978  0.76735  1.0000
  H   H1988     1.0  0.34275  0.97525  0.86641  1.0000
  C   C1139     1.0  0.38666  0.84344  0.96939  1.0000
  H   H1989     1.0  0.23254  0.75269  0.76923  1.0000
  H   H1990     1.0  0.43506  0.76265  0.77281  1.0000
  C   C1140     1.0  0.32656  0.98200  0.86325  1.0000
  H   H1991     1.0  0.28780  0.67874  0.86698  1.0000
  H   H1992     1.0  0.36047  0.81209  0.97713  1.0000
  H   H1993     1.0  0.34317  0.91879  0.88632  1.0000
  H   H1994     1.0  0.35584  0.85347  0.96136  1.0000
  C   C1141     1.0  0.47294  0.88609  0.85286  1.0000
  H   H1995     1.0  0.39081  0.88972  0.95906  1.0000
  H   H1996     1.0  0.43050  0.81116  0.80593  1.0000
  C   C1142     1.0  0.42497  0.95255  0.87473  1.0000
  H   H1997     1.0  0.30777  0.70343  0.75973  1.0000
  N   N63       1.0  0.18848  0.77788  0.77610  1.0000
  C   C1143     1.0  0.20275  0.78466  0.78601  1.0000
  H   H1998     1.0  0.37390  0.88784  0.94390  1.0000
  C   C1144     1.0  0.16998  0.77181  0.79330  1.0000
  C   C1145     1.0  0.19940  0.75922  0.76597  1.0000
  H   H1999     1.0  0.43575  0.89605  0.93153  1.0000
  C   C1146     1.0  0.20972  0.76864  0.80552  1.0000
  C   C1147     1.0  0.15287  0.76490  0.78636  1.0000
  H   H2000     1.0  0.33055  0.96088  0.77261  1.0000
  H   H2001     1.0  0.35522  0.90415  0.91996  1.0000
  C   C1148     1.0  0.16351  0.72249  0.74247  1.0000
  C   C1149     1.0  0.22935  0.77278  0.80991  1.0000
  C   C1150     1.0  0.13626  0.75709  0.80534  1.0000
  H   H2002     1.0  0.19479  0.79983  0.79106  1.0000
  H   H2003     1.0  0.21728  0.78830  0.77448  1.0000
  H   H2004     1.0  0.27378  0.70574  0.75249  1.0000
  H   H2005     1.0  0.16988  0.80941  0.76845  1.0000
  H   H2006     1.0  0.16198  0.78505  0.80151  1.0000
  H   H2007     1.0  0.17561  0.75810  0.80553  1.0000
  H   H2008     1.0  0.19769  0.74405  0.77754  1.0000
  H   H2009     1.0  0.34442  0.95103  0.84346  1.0000
  H   H2010     1.0  0.39134  0.98920  0.77374  1.0000
  H   H2011     1.0  0.30767  0.97160  0.80722  1.0000
  H   H2012     1.0  0.19683  0.76983  0.81971  1.0000
  H   H2013     1.0  0.21333  0.75226  0.80323  1.0000
  H   H2014     1.0  0.16018  0.75169  0.77814  1.0000
  H   H2015     1.0  0.14437  0.77823  0.77585  1.0000
  H   H2016     1.0  0.44889  0.87870  0.84167  1.0000
  H   H2017     1.0  0.42923  0.96122  0.97527  1.0000
  C   C1151     1.0  0.36537  0.91310  0.90660  1.0000
  H   H2018     1.0  0.20864  0.81029  0.74704  1.0000
  N   N64       1.0  0.34086  0.66607  0.76556  1.0000
  C   C1152     1.0  0.46792  0.85053  0.85689  1.0000
  H   H2019     1.0  0.22667  0.78927  0.81188  1.0000
  H   H2020     1.0  0.23331  0.76171  0.82452  1.0000
  H   H2021     1.0  0.24297  0.77016  0.79665  1.0000
  H   H2022     1.0  0.14374  0.74306  0.81605  1.0000
  H   H2023     1.0  0.12818  0.76978  0.81414  1.0000
  H   H2024     1.0  0.12422  0.75234  0.79987  1.0000
  H   H2025     1.0  0.15393  0.71536  0.75689  1.0000
  C   C1153     1.0  0.33093  0.90623  0.81109  1.0000
  C   C1154     1.0  0.32675  0.98376  0.84014  1.0000
  C   C1155     1.0  0.32275  0.67130  0.75435  1.0000
  C   C1156     1.0  0.48939  0.97922  0.83885  1.0000
  H   H2026     1.0  0.23957  0.67229  0.82997  1.0000
  H   H2027     1.0  0.46017  0.74476  0.74596  1.0000
  H   H2028     1.0  0.35117  0.92476  0.95298  1.0000
  C   C1157     1.0  0.39615  0.80183  0.77963  1.0000
  H   H2029     1.0  0.40223  0.95008  0.96422  1.0000
  H   H2030     1.0  0.47228  0.93452  0.92190  1.0000
  H   H2031     1.0  0.48435  0.88079  0.95770  1.0000
  C   C1158     1.0  0.36023  0.78910  0.95009  1.0000
  H   H2032     1.0  0.33840  0.93887  0.90122  1.0000
  C   C1159     1.0  0.24338  0.65689  0.82543  1.0000
  H   H2033     1.0  0.38270  0.66867  0.76526  1.0000
  H   H2034     1.0  0.45949  0.91577  0.96699  1.0000
  C   C1160     1.0  0.40125  0.95922  0.94797  1.0000
  C   C1161     1.0  0.38865  0.76604  0.79009  1.0000
  H   H2035     1.0  0.40400  0.96993  0.79372  1.0000
  C   C1162     1.0  0.48461  0.92336  0.91334  1.0000
  H   H2036     1.0  0.38441  0.94374  0.79319  1.0000
  H   H2037     1.0  0.25796  0.78646  0.74096  1.0000
  C   C1163     1.0  0.44456  0.87256  0.91321  1.0000
  C   C1164     1.0  0.40768  0.96622  0.86697  1.0000
  H   H2038     1.0  0.35409  0.69167  0.74338  1.0000
  N   N65       1.0  0.34015  0.96169  0.81133  1.0000
  H   H2039     1.0  0.42278  0.87407  0.94294  1.0000
  H   H2040     1.0  0.36829  0.96806  0.81727  1.0000
  C   C1165     1.0  0.37807  0.96068  0.78685  1.0000
  H   H2041     1.0  0.26819  0.66924  0.84636  1.0000
  H   H2042     1.0  0.40207  0.98179  0.87048  1.0000
  H   H2043     1.0  0.44038  0.89996  0.98305  1.0000
  H   H2044     1.0  0.37401  0.71704  0.80070  1.0000
  H   H2045     1.0  0.38828  0.74438  0.77055  1.0000
  H   H2046     1.0  0.33430  0.80889  0.98056  1.0000
  H   H2047     1.0  0.25720  0.66634  0.79224  1.0000
  H   H2048     1.0  0.40421  0.77285  0.74273  1.0000
  H   H2049     1.0  0.36745  0.91876  0.97224  1.0000
  H   H2050     1.0  0.31551  0.97182  0.87369  1.0000
  C   C1166     1.0  0.37139  0.81351  0.74613  1.0000
  H   H2051     1.0  0.33704  0.90685  0.79398  1.0000
  H   H2052     1.0  0.36284  0.75445  0.78538  1.0000
  H   H2053     1.0  0.36897  0.78076  0.75643  1.0000
  H   H2054     1.0  0.31777  0.95520  0.84108  1.0000
  H   H2055     1.0  0.48258  0.81901  0.96556  1.0000
  C   C1167     1.0  0.48042  0.88562  0.78668  1.0000
  H   H2056     1.0  0.20185  0.66256  0.89346  1.0000
  H   H2057     1.0  0.36998  0.82718  0.75312  1.0000
  C   C1168     1.0  0.24214  0.65967  0.87189  1.0000
  H   H2058     1.0  0.20941  0.66515  0.85302  1.0000
  H   H2059     1.0  0.47587  0.87825  0.77603  1.0000
  C   C1169     1.0  0.17432  0.66443  0.88181  1.0000
  H   H2060     1.0  0.24884  0.85169  0.74312  1.0000
  H   H2061     1.0  0.48945  0.82552  0.87291  1.0000
  H   H2062     1.0  0.31698  0.65684  0.75538  1.0000
  H   H2063     1.0  0.40886  0.96516  0.76766  1.0000
  H   H2064     1.0  0.24897  0.73795  0.73859  1.0000
  H   H2065     1.0  0.47721  0.91758  0.90355  1.0000
  H   H2066     1.0  0.32832  0.67715  0.73724  1.0000
  H   H2067     1.0  0.34183  0.98401  0.76779  1.0000
  H   H2068     1.0  0.46442  0.98695  0.96039  1.0000
  H   H2069     1.0  0.42643  0.98762  0.97890  1.0000
  C   C1170     1.0  0.45445  0.90599  0.98285  1.0000
  C   C1171     1.0  0.26239  0.65708  0.80700  1.0000
  H   H2070     1.0  0.48970  0.89782  0.77717  1.0000
  H   H2071     1.0  0.35700  0.98764  0.79788  1.0000
  H   H2072     1.0  0.23871  0.65731  0.88936  1.0000
  C   C1172     1.0  0.44726  0.75808  0.74125  1.0000
  H   H2073     1.0  0.35577  0.88343  0.98630  1.0000
  C   C1173     1.0  0.16147  0.74449  0.73686  1.0000
  C   C1174     1.0  0.79561  0.04385  0.18146  1.0000
  C   C1175     1.0  0.80391  0.30407  0.10781  1.0000
  C   C1176     1.0  0.87395  0.30696  0.00436  1.0000
  H   H2074     1.0  0.74960  0.17339  0.23088  1.0000
  H   H2075     1.0  0.74762  0.08552  0.22585  1.0000
  H   H2076     1.0  0.71785  0.04372  0.23051  1.0000
  H   H2077     1.0  0.61178  0.18308  0.23517  1.0000
  C   C1177     1.0  0.52552  0.09165  0.13256  1.0000
  C   C1178     1.0  0.59223  0.09729  0.09077  1.0000
  H   H2078     1.0  0.84372  0.31462  0.05447  1.0000
  H   H2079     1.0  0.61654  0.08723  0.06473  1.0000
  Fe  Fe129     1.0  0.81233  0.22955  0.12063  1.0000
  S   S258      1.0  0.84528  0.21995  0.12694  1.0000
  S   S259      1.0  0.78365  0.25114  0.13477  1.0000
  Fe  Fe130     1.0  0.82311  0.20635  0.08544  1.0000
  S   S260      1.0  0.85709  0.19523  0.08780  1.0000
  S   S261      1.0  0.81018  0.19836  0.06166  1.0000
  Fe  Fe131     1.0  0.84424  0.18821  0.12252  1.0000
  S   S262      1.0  0.85734  0.15592  0.13984  1.0000
  Fe  Fe132     1.0  0.85556  0.22776  0.09166  1.0000
  S   S263      1.0  0.88396  0.24263  0.07564  1.0000
  S   S264      1.0  0.81019  0.19703  0.11993  1.0000
  S   S265      1.0  0.82273  0.23984  0.08563  1.0000
  H   H2080     1.0  0.52060  0.08842  0.15000  1.0000
  H   H2081     1.0  0.81214  0.29712  0.07646  1.0000
  C   C1179     1.0  0.95043  0.26614  0.02203  1.0000
  C   C1180     1.0  0.59429  0.07538  0.10628  1.0000
  S   S266      1.0  0.67413  0.23313  0.20181  1.0000
  H   H2082     1.0  0.85894  0.05900  0.14657  1.0000
  C   C1181     1.0  0.72841  0.05527  0.22541  1.0000
  H   H2083     1.0  0.55111  0.02964  0.01104  1.0000
  H   H2084     1.0  0.59750  0.08263  0.00660  1.0000
  C   C1182     1.0  0.53337  0.08056  0.01886  1.0000
  Fe  Fe133     1.0  0.71238  0.14793  0.12240  1.0000
  S   S267      1.0  0.67854  0.14859  0.13925  1.0000
  S   S268      1.0  0.71878  0.17783  0.09912  1.0000
  Fe  Fe134     1.0  0.72650  0.10219  0.14335  1.0000
  S   S269      1.0  0.69385  0.09893  0.16194  1.0000
  C   C1183     1.0  0.86536  0.26751  0.12364  1.0000
  Fe  Fe135     1.0  0.68310  0.11671  0.13195  1.0000
  S   S270      1.0  0.65782  0.11070  0.11880  1.0000
  Fe  Fe136     1.0  0.69226  0.13095  0.16742  1.0000
  S   S271      1.0  0.67968  0.13826  0.19959  1.0000
  S   S272      1.0  0.71591  0.11748  0.11274  1.0000
  S   S273      1.0  0.72593  0.13282  0.15130  1.0000
  Fe  Fe137     1.0  0.63843  0.01651  0.08802  1.0000
  H   H2085     1.0  0.62747  0.00842  0.15451  1.0000
  S   S274      1.0  0.66137  0.01958  0.10595  1.0000
  Fe  Fe138     1.0  0.63121  0.01389  0.04611  1.0000
  H   H2086     1.0  0.73462  0.26333  0.19940  1.0000
  S   S275      1.0  0.64357  0.01697  0.01115  1.0000
  Fe  Fe139     1.0  0.59428  0.03016  0.07873  1.0000
  S   S276      1.0  0.56225  0.05190  0.07986  1.0000
  C   C1184     1.0  0.83905  0.12717  0.20051  1.0000
  S   S277      1.0  0.62478  0.04089  0.06225  1.0000
  H   H2087     1.0  0.78525  0.30936  0.18670  1.0000
  S   S278      1.0  0.75702  0.24396  0.23283  1.0000
  H   H2088     1.0  0.60888  0.05927  0.02377  1.0000
  C   C1185     1.0  0.68397  0.19013  0.21646  1.0000
  H   H2089     1.0  0.49307  0.03846  0.08083  1.0000
  C   C1186     1.0  0.66138  0.08545  0.11364  1.0000
  C   C1187     1.0  0.65254  0.08333  0.09778  1.0000
  C   C1188     1.0  0.65324  0.06319  0.09475  1.0000
  C   C1189     1.0  0.66236  0.04504  0.10787  1.0000
  C   C1190     1.0  0.67175  0.04717  0.12333  1.0000
  C   C1191     1.0  0.67136  0.06734  0.12616  1.0000
  H   H2090     1.0  0.64501  0.09731  0.08789  1.0000
  H   H2091     1.0  0.64662  0.06169  0.08236  1.0000
  H   H2092     1.0  0.67906  0.03318  0.13338  1.0000
  H   H2093     1.0  0.67826  0.06884  0.13840  1.0000
  C   C1192     1.0  0.67700  0.20667  0.20053  1.0000
  H   H2094     1.0  0.55825  0.08543  0.15137  1.0000
  H   H2095     1.0  0.55772  0.99863  0.04639  1.0000
  C   C1193     1.0  0.67985  0.16451  0.19905  1.0000
  C   C1194     1.0  0.67322  0.18099  0.18290  1.0000
  C   C1195     1.0  0.67150  0.20207  0.18383  1.0000
  H   H2096     1.0  0.79595  0.22585  0.20695  1.0000
  H   H2097     1.0  0.86144  0.26088  0.11208  1.0000
  H   H2098     1.0  0.66865  0.17755  0.17012  1.0000
  H   H2099     1.0  0.66543  0.21479  0.17187  1.0000
  C   C1196     1.0  0.78539  0.19109  0.07219  1.0000
  C   C1197     1.0  0.78052  0.17937  0.09283  1.0000
  C   C1198     1.0  0.76039  0.17420  0.10106  1.0000
  C   C1199     1.0  0.74496  0.18126  0.08874  1.0000
  C   C1200     1.0  0.74987  0.19297  0.06815  1.0000
  C   C1201     1.0  0.77012  0.19754  0.05977  1.0000
  H   H2100     1.0  0.79231  0.17414  0.10237  1.0000
  H   H2101     1.0  0.75662  0.16530  0.11704  1.0000
  H   H2102     1.0  0.73793  0.19857  0.05864  1.0000
  H   H2103     1.0  0.77376  0.20658  0.04383  1.0000
  C   C1202     1.0  0.77636  0.24690  0.16222  1.0000
  C   C1203     1.0  0.75611  0.25674  0.17110  1.0000
  C   C1204     1.0  0.78104  0.07829  0.18987  1.0000
  C   C1205     1.0  0.76448  0.24439  0.20578  1.0000
  C   C1206     1.0  0.79305  0.29250  0.19118  1.0000
  C   C1207     1.0  0.79070  0.23544  0.17512  1.0000
  H   H2104     1.0  0.74508  0.26576  0.16114  1.0000
  H   H2105     1.0  0.73234  0.05829  0.20784  1.0000
  S   S279      1.0  0.80959  0.05071  0.21295  1.0000
  H   H2106     1.0  0.80641  0.22783  0.16827  1.0000
  H   H2107     1.0  0.78513  0.31034  0.08413  1.0000
  C   C1208     1.0  0.83437  0.16851  0.17609  1.0000
  C   C1209     1.0  0.84595  0.15158  0.16678  1.0000
  C   C1210     1.0  0.84834  0.13093  0.17899  1.0000
  H   H2108     1.0  0.75814  0.09873  0.17187  1.0000
  H   H2109     1.0  0.83243  0.18447  0.16669  1.0000
  H   H2110     1.0  0.85736  0.11784  0.17182  1.0000
  C   C1211     1.0  0.56411  0.08721  0.13406  1.0000
  H   H2111     1.0  0.61122  0.06763  0.10297  1.0000
  H   H2112     1.0  0.78933  0.30544  0.12025  1.0000
  C   C1212     1.0  0.85856  0.30497  0.05806  1.0000
  C   C1213     1.0  0.86065  0.28292  0.06515  1.0000
  C   C1214     1.0  0.88011  0.27034  0.06891  1.0000
  C   C1215     1.0  0.89727  0.27986  0.06609  1.0000
  C   C1216     1.0  0.89519  0.30182  0.05905  1.0000
  S   S280      1.0  0.69663  0.26527  0.22885  1.0000
  H   H2113     1.0  0.84745  0.27557  0.06707  1.0000
  H   H2114     1.0  0.91229  0.27020  0.06921  1.0000
  N   N66       1.0  0.58686  0.07574  0.12935  1.0000
  H   H2115     1.0  0.83613  0.28817  0.10253  1.0000
  C   C1217     1.0  0.50841  0.03186  0.08488  1.0000
  H   H2116     1.0  0.69053  0.15644  0.22819  1.0000
  H   H2117     1.0  0.52418  0.10897  0.12630  1.0000
  S   S281      1.0  0.75299  0.07353  0.14505  1.0000
  C   C1218     1.0  0.88355  0.25147  0.13233  1.0000
  H   H2118     1.0  0.59002  0.08531  0.06448  1.0000
  H   H2119     1.0  0.87559  0.14446  0.08834  1.0000
  H   H2120     1.0  0.56334  0.00812  0.09980  1.0000
  H   H2121     1.0  0.58016  0.05268  0.15853  1.0000
  H   H2122     1.0  0.87110  0.28232  0.11526  1.0000
  C   C1219     1.0  0.54317  0.03623  0.08593  1.0000
  H   H2123     1.0  0.83221  0.14386  0.08123  1.0000
  H   H2124     1.0  0.58606  0.06530  0.10185  1.0000
  H   H2125     1.0  0.51456  0.08621  0.12625  1.0000
  C   C1220     1.0  0.76909  0.06844  0.16336  1.0000
  C   C1221     1.0  0.59703  0.08669  0.15896  1.0000
  H   H2126     1.0  0.59887  0.07033  0.16859  1.0000
  H   H2127     1.0  0.87853  0.23631  0.14081  1.0000
  H   H2128     1.0  0.58094  0.09556  0.16465  1.0000
  N   N67       1.0  0.71736  0.23271  0.12961  1.0000
  C   C1222     1.0  0.70442  0.23140  0.11483  1.0000
  C   C1223     1.0  0.73520  0.24369  0.11683  1.0000
  C   C1224     1.0  0.72568  0.21057  0.14085  1.0000
  C   C1225     1.0  0.70419  0.24519  0.14580  1.0000
  C   C1226     1.0  0.69233  0.26773  0.13706  1.0000
  C   C1227     1.0  0.68350  0.22336  0.12531  1.0000
  C   C1228     1.0  0.74036  0.20871  0.15597  1.0000
  C   C1229     1.0  0.75280  0.23113  0.10205  1.0000
  C   C1230     1.0  0.76696  0.24543  0.08631  1.0000
  C   C1231     1.0  0.67861  0.27819  0.15500  1.0000
  C   C1232     1.0  0.67149  0.22365  0.10877  1.0000
  C   C1233     1.0  0.74885  0.18554  0.16518  1.0000
  H   H2129     1.0  0.71378  0.22051  0.10435  1.0000
  H   H2130     1.0  0.70064  0.24696  0.10397  1.0000
  H   H2131     1.0  0.72880  0.25895  0.10682  1.0000
  H   H2132     1.0  0.74302  0.24816  0.12724  1.0000
  H   H2133     1.0  0.73412  0.20045  0.12931  1.0000
  H   H2134     1.0  0.71235  0.20292  0.15064  1.0000
  H   H2135     1.0  0.69253  0.23626  0.15717  1.0000
  H   H2136     1.0  0.71430  0.24729  0.15555  1.0000
  H   H2137     1.0  0.68176  0.26745  0.12696  1.0000
  H   H2138     1.0  0.70379  0.27789  0.12771  1.0000
  H   H2139     1.0  0.68676  0.20681  0.13437  1.0000
  H   H2140     1.0  0.67278  0.23343  0.13598  1.0000
  H   H2141     1.0  0.73155  0.21619  0.16943  1.0000
  H   H2142     1.0  0.75413  0.21626  0.14785  1.0000
  H   H2143     1.0  0.76293  0.21814  0.11134  1.0000
  H   H2144     1.0  0.74614  0.22410  0.09279  1.0000
  H   H2145     1.0  0.77394  0.25328  0.09462  1.0000
  H   H2146     1.0  0.78002  0.23584  0.07671  1.0000
  H   H2147     1.0  0.75776  0.25768  0.07552  1.0000
  H   H2148     1.0  0.68840  0.27882  0.16578  1.0000
  S   S282      1.0  0.59976  0.00517  0.06075  1.0000
  H   H2149     1.0  0.66606  0.26921  0.16416  1.0000
  H   H2150     1.0  0.66694  0.24004  0.09975  1.0000
  H   H2151     1.0  0.68137  0.21354  0.09769  1.0000
  H   H2152     1.0  0.65689  0.21733  0.11664  1.0000
  C   C1234     1.0  0.84548  0.27148  0.14128  1.0000
  H   H2153     1.0  0.92557  0.29049  0.99464  1.0000
  H   H2154     1.0  0.75822  0.17733  0.15238  1.0000
  H   H2155     1.0  0.50685  0.04818  0.03487  1.0000
  H   H2156     1.0  0.84544  0.31350  0.11362  1.0000
  H   H2157     1.0  0.90976  0.28512  0.02014  1.0000
  C   C1235     1.0  0.88832  0.25948  0.01500  1.0000
  C   C1236     1.0  0.75013  0.25530  0.19282  1.0000
  C   C1237     1.0  0.91764  0.27807  0.00618  1.0000
  H   H2158     1.0  0.50015  0.01335  0.03502  1.0000
  C   C1238     1.0  0.82798  0.14413  0.20997  1.0000
  H   H2159     1.0  0.83906  0.25666  0.14701  1.0000
  C   C1239     1.0  0.86880  0.25492  0.00991  1.0000
  C   C1240     1.0  0.85644  0.24210  0.02944  1.0000
  H   H2160     1.0  0.96282  0.25235  0.02698  1.0000
  C   C1241     1.0  0.73508  0.13013  0.21130  1.0000
  H   H2161     1.0  0.63942  0.18235  0.22387  1.0000
  H   H2162     1.0  0.51926  0.06142  0.07358  1.0000
  C   C1242     1.0  0.57862  0.05815  0.01833  1.0000
  H   H2163     1.0  0.89822  0.24378  0.02042  1.0000
  H   H2164     1.0  0.88278  0.26660  0.02906  1.0000
  C   C1243     1.0  0.51343  0.01044  0.09459  1.0000
  H   H2165     1.0  0.86291  0.29806  0.01667  1.0000
  C   C1244     1.0  0.54808  0.01485  0.09560  1.0000
  C   C1245     1.0  0.61106  0.01797  0.15606  1.0000
  H   H2166     1.0  0.60333  0.22154  0.22163  1.0000
  H   H2167     1.0  0.92788  0.24700  0.02633  1.0000
  H   H2168     1.0  0.86362  0.15899  0.06620  1.0000
  C   C1246     1.0  0.78302  0.04888  0.16648  1.0000
  C   C1247     1.0  0.54020  0.04232  0.01875  1.0000
  H   H2169     1.0  0.76095  0.02630  0.20797  1.0000
  H   H2170     1.0  0.85122  0.27326  0.15468  1.0000
  C   C1248     1.0  0.61070  0.00127  0.00778  1.0000
  H   H2171     1.0  0.85050  0.25112  0.04214  1.0000
  H   H2172     1.0  0.84264  0.23872  0.02558  1.0000
  H   H2173     1.0  0.86663  0.22679  0.03536  1.0000
  H   H2174     1.0  0.89701  0.24825  0.11907  1.0000
  H   H2175     1.0  0.61077  0.99233  0.02362  1.0000
  H   H2176     1.0  0.67088  0.29459  0.14849  1.0000
  H   H2177     1.0  0.79653  0.28958  0.20707  1.0000
  C   C1249     1.0  0.80926  0.28945  0.15323  1.0000
  N   N68       1.0  0.54354  0.06384  0.00587  1.0000
  H   H2178     1.0  0.78199  0.28231  0.19200  1.0000
  H   H2179     1.0  0.66322  0.09330  0.20503  1.0000
  H   H2180     1.0  0.60958  0.05860  0.99714  1.0000
  C   C1250     1.0  0.93498  0.25904  0.01351  1.0000
  C   C1251     1.0  0.68534  0.16912  0.21573  1.0000
  C   C1252     1.0  0.62472  0.19186  0.23158  1.0000
  H   H2181     1.0  0.84094  0.11120  0.20988  1.0000
  H   H2182     1.0  0.78056  0.08980  0.19861  1.0000
  C   C1253     1.0  0.61906  0.21228  0.21552  1.0000
  H   H2183     1.0  0.51078  0.04258  0.00915  1.0000
  H   H2184     1.0  0.53374  0.07366  0.03579  1.0000
  C   C1254     1.0  0.82249  0.28750  0.11605  1.0000
  C   C1255     1.0  0.68411  0.06906  0.22340  1.0000
  H   H2185     1.0  0.81888  0.27149  0.11903  1.0000
  C   C1256     1.0  0.58849  0.05319  0.14183  1.0000
  H   H2186     1.0  0.59746  0.11073  0.05718  1.0000
  H   H2187     1.0  0.58016  0.04441  0.13577  1.0000
  H   H2188     1.0  0.80606  0.02851  0.18402  1.0000
  H   H2189     1.0  0.84900  0.30822  0.13969  1.0000
  H   H2190     1.0  0.58154  0.04080  0.02490  1.0000
  C   C1257     1.0  0.72394  0.11354  0.22756  1.0000
  C   C1258     1.0  0.79440  0.05836  0.19346  1.0000
  S   S283      1.0  0.49570  0.99347  0.09986  1.0000
  C   C1259     1.0  0.60054  0.08710  0.13519  1.0000
  C   C1260     1.0  0.61312  0.09699  0.16296  1.0000
  H   H2191     1.0  0.79361  0.15891  0.16327  1.0000
  H   H2192     1.0  0.61759  0.08083  0.12937  1.0000
  H   H2193     1.0  0.62142  0.04734  0.14664  1.0000
  H   H2194     1.0  0.61888  0.03744  0.12539  1.0000
  H   H2195     1.0  0.94203  0.27311  0.03593  1.0000
  H   H2196     1.0  0.61213  0.11353  0.15366  1.0000
  H   H2197     1.0  0.60997  0.09720  0.17992  1.0000
  H   H2198     1.0  0.62948  0.08791  0.15850  1.0000
  H   H2199     1.0  0.83402  0.05786  0.16509  1.0000
  C   C1261     1.0  0.62547  0.01419  0.99776  1.0000
  H   H2200     1.0  0.57562  0.10620  0.09277  1.0000
  H   H2201     1.0  0.60228  0.10694  0.09314  1.0000
  H   H2202     1.0  0.87135  0.13062  0.07053  1.0000
  H   H2203     1.0  0.54477  0.03921  0.03424  1.0000
  H   H2204     1.0  0.78382  0.03741  0.15750  1.0000
  H   H2205     1.0  0.73561  0.17744  0.17427  1.0000
  C   C1262     1.0  0.56707  0.06332  0.99977  1.0000
  H   H2206     1.0  0.59796  0.10410  0.12713  1.0000
  C   C1263     1.0  0.76836  0.08333  0.17478  1.0000
  H   H2207     1.0  0.76551  0.13074  0.10061  1.0000
  S   S284      1.0  0.60725  0.00776  0.10591  1.0000
  C   C1264     1.0  0.79835  0.29812  0.08983  1.0000
  H   H2208     1.0  0.92014  0.24484  0.98665  1.0000
  H   H2209     1.0  0.77249  0.17923  0.21088  1.0000
  C   C1265     1.0  0.53317  0.00207  0.10013  1.0000
  H   H2210     1.0  0.90850  0.30902  0.05712  1.0000
  C   C1266     1.0  0.51729  0.03866  0.02356  1.0000
  H   H2211     1.0  0.95824  0.27804  0.00969  1.0000
  H   H2212     1.0  0.85569  0.06305  0.17275  1.0000
  C   C1267     1.0  0.54817  0.07987  0.12579  1.0000
  H   H2213     1.0  0.55182  0.08301  0.10834  1.0000
  H   H2214     1.0  0.76277  0.10373  0.10558  1.0000
  H   H2215     1.0  0.81715  0.17799  0.20500  1.0000
  C   C1268     1.0  0.61128  0.03980  0.14150  1.0000
  C   C1269     1.0  0.51631  0.01563  0.03365  1.0000
  H   H2216     1.0  0.60107  0.00951  0.15179  1.0000
  H   H2217     1.0  0.56277  0.10455  0.12774  1.0000
  C   C1270     1.0  0.69674  0.08481  0.22502  1.0000
  C   C1271     1.0  0.78482  0.23441  0.19695  1.0000
  C   C1272     1.0  0.87603  0.31437  0.05445  1.0000
  H   H2218     1.0  0.78331  0.11298  0.08461  1.0000
  H   H2219     1.0  0.80238  0.13410  0.18043  1.0000
  C   C1273     1.0  0.59951  0.09489  0.06792  1.0000
  H   H2220     1.0  0.79575  0.09027  0.11752  1.0000
  C   C1274     1.0  0.88782  0.29353  0.98835  1.0000
  H   H2221     1.0  0.77472  0.14323  0.17989  1.0000
  H   H2222     1.0  0.77974  0.10999  0.13181  1.0000
  N   N69       1.0  0.82256  0.11696  0.12263  1.0000
  C   C1275     1.0  0.82649  0.09438  0.13505  1.0000
  C   C1276     1.0  0.80751  0.11987  0.10827  1.0000
  C   C1277     1.0  0.84356  0.12126  0.10885  1.0000
  C   C1278     1.0  0.81475  0.13251  0.13683  1.0000
  C   C1279     1.0  0.79362  0.13075  0.15273  1.0000
  C   C1280     1.0  0.84022  0.08970  0.15180  1.0000
  C   C1281     1.0  0.84272  0.14243  0.09206  1.0000
  C   C1282     1.0  0.78926  0.10750  0.11626  1.0000
  C   C1283     1.0  0.77437  0.11423  0.10078  1.0000
  C   C1284     1.0  0.79094  0.14253  0.17009  1.0000
  C   C1285     1.0  0.84764  0.06593  0.15946  1.0000
  C   C1286     1.0  0.86473  0.14413  0.07850  1.0000
  H   H2223     1.0  0.83384  0.08346  0.12404  1.0000
  H   H2224     1.0  0.81150  0.08926  0.14390  1.0000
  H   H2225     1.0  0.80033  0.13691  0.10362  1.0000
  H   H2226     1.0  0.81637  0.11485  0.09333  1.0000
  H   H2227     1.0  0.85147  0.10823  0.10034  1.0000
  H   H2228     1.0  0.85462  0.12162  0.11847  1.0000
  H   H2229     1.0  0.82699  0.13133  0.14573  1.0000
  H   H2230     1.0  0.81255  0.14902  0.12751  1.0000
  H   H2231     1.0  0.79278  0.11418  0.16049  1.0000
  H   H2232     1.0  0.78021  0.13790  0.14450  1.0000
  H   H2233     1.0  0.85457  0.09661  0.14576  1.0000
  H   H2234     1.0  0.83072  0.09631  0.16565  1.0000
  H   H2235     1.0  0.83698  0.15620  0.09965  1.0000
  H   H2236     1.0  0.82137  0.27073  0.18129  1.0000
  H   H2237     1.0  0.56939  0.06606  0.03132  1.0000
  H   H2238     1.0  0.49966  0.08140  0.01965  1.0000
  H   H2239     1.0  0.54847  0.06271  0.13188  1.0000
  H   H2240     1.0  0.75926  0.18461  0.17596  1.0000
  S   S285      1.0  0.64768  0.99037  0.07032  1.0000
  C   C1287     1.0  0.52321  0.04483  0.08078  1.0000
  H   H2241     1.0  0.88408  0.31195  0.01200  1.0000
  H   H2242     1.0  0.77441  0.15443  0.22980  1.0000
  N   N70       1.0  0.90137  0.27302  0.99740  1.0000
  H   H2243     1.0  0.85773  0.26974  0.00460  1.0000
  H   H2244     1.0  0.54271  0.09331  0.01426  1.0000
  H   H2245     1.0  0.52766  0.00493  0.02389  1.0000
  H   H2246     1.0  0.61851  0.20839  0.20068  1.0000
  H   H2247     1.0  0.63114  0.22216  0.21185  1.0000
  C   C1288     1.0  0.81361  0.28732  0.17529  1.0000
  H   H2248     1.0  0.88907  0.25775  0.14317  1.0000
  H   H2249     1.0  0.65377  0.06908  0.21724  1.0000
  H   H2250     1.0  0.80220  0.27575  0.15436  1.0000
  H   H2251     1.0  0.69944  0.09495  0.20885  1.0000
  C   C1289     1.0  0.82569  0.16482  0.19777  1.0000
  N   N71       1.0  0.82827  0.29022  0.13524  1.0000
  H   H2252     1.0  0.79638  0.30343  0.15042  1.0000
  H   H2253     1.0  0.77370  0.01538  0.23010  1.0000
  C   C1290     1.0  0.75824  0.02284  0.22542  1.0000
  C   C1291     1.0  0.73175  0.09147  0.22187  1.0000
  H   H2254     1.0  0.73008  0.13334  0.19608  1.0000
  C   C1292     1.0  0.59992  0.06510  0.01094  1.0000
  S   S286      1.0  0.97925  0.32074  0.04376  1.0000
  C   C1293     1.0  0.51028  0.09236  0.01755  1.0000
  H   H2255     1.0  0.79322  0.28270  0.09528  1.0000
  C   C1294     1.0  0.59663  0.99883  0.99683  1.0000
  Fe  Fe140     1.0  0.68566  0.23633  0.22906  1.0000
  H   H2256     1.0  0.75250  0.12463  0.20878  1.0000
  H   H2257     1.0  0.51968  0.01162  0.04964  1.0000
  H   H2258     1.0  0.73430  0.09381  0.20450  1.0000
  H   H2259     1.0  0.60495  0.01943  0.17270  1.0000
  C   C1295     1.0  0.74890  0.04318  0.23361  1.0000
  H   H2260     1.0  0.73084  0.14513  0.21688  1.0000
  H   H2261     1.0  0.74741  0.01149  0.23208  1.0000
  H   H2262     1.0  0.68776  0.19348  0.22964  1.0000
  H   H2263     1.0  0.82421  0.29788  0.17469  1.0000
  H   H2264     1.0  0.51088  0.11703  0.03284  1.0000
  H   H2265     1.0  0.87377  0.24560  0.99749  1.0000
  C   C1296     1.0  0.66206  0.08046  0.21945  1.0000
  C   C1297     1.0  0.50088  0.10555  0.03435  1.0000
  H   H2266     1.0  0.65252  0.08743  0.23304  1.0000
  H   H2267     1.0  0.70670  0.11923  0.22880  1.0000
  H   H2268     1.0  0.51010  0.10332  0.00191  1.0000
  H   H2269     1.0  0.94440  0.25146  0.00032  1.0000
  N   N72       1.0  0.71750  0.07574  0.23240  1.0000
  H   H2270     1.0  0.69256  0.06144  0.20991  1.0000
  H   H2271     1.0  0.57013  0.07874  0.98935  1.0000
  C   C1298     1.0  0.76709  0.17154  0.22757  1.0000
  H   H2272     1.0  0.98368  0.31003  0.00396  1.0000
  H   H2273     1.0  0.68594  0.09556  0.23509  1.0000
  S   S287      1.0  0.93332  0.32193  0.01689  1.0000
  H   H2274     1.0  0.76127  0.05276  0.22853  1.0000
  C   C1299     1.0  0.83681  0.31024  0.13037  1.0000
  H   H2275     1.0  0.80853  0.31967  0.10136  1.0000
  H   H2276     1.0  0.57545  0.05119  0.99030  1.0000
  H   H2277     1.0  0.51801  0.07208  0.98883  1.0000
  H   H2278     1.0  0.49963  0.09513  0.05036  1.0000
  S   S288      1.0  0.92637  0.99554  0.40669  1.0000
  H   H2279     1.0  0.66750  0.29014  0.35935  1.0000
  S   S289      1.0  0.82894  0.07674  0.24729  1.0000
  H   H2280     1.0  0.67569  0.30153  0.32037  1.0000
  Fe  Fe141     1.0  0.76846  0.09019  0.27058  1.0000
  S   S290      1.0  0.79228  0.09840  0.28339  1.0000
  S   S291      1.0  0.73398  0.09481  0.28644  1.0000
  Fe  Fe142     1.0  0.80750  0.10832  0.24932  1.0000
  C   C1300     1.0  0.56003  0.29729  0.36384  1.0000
  Fe  Fe143     1.0  0.81138  0.06615  0.28022  1.0000
  S   S292      1.0  0.82584  0.04219  0.30581  1.0000
  H   H2281     1.0  0.98262  0.06875  0.44372  1.0000
  S   S293      1.0  0.78624  0.05701  0.27010  1.0000
  H   H2282     1.0  0.67957  0.11321  0.28355  1.0000
  H   H2283     1.0  0.71655  0.17200  0.26289  1.0000
  Fe  Fe144     1.0  0.90761  0.02859  0.40483  1.0000
  Fe  Fe145     1.0  0.94910  0.00971  0.37888  1.0000
  Fe  Fe146     1.0  0.91390  0.03685  0.35732  1.0000
  C   C1301     1.0  0.69019  0.30692  0.32024  1.0000
  S   S294      1.0  0.90522  0.05972  0.32815  1.0000
  H   H2284     1.0  0.88438  0.01034  0.25865  1.0000
  H   H2285     1.0  0.81637  0.00648  0.47261  1.0000
  H   H2286     1.0  0.91235  0.03045  0.25732  1.0000
  H   H2287     1.0  0.64237  0.20375  0.24707  1.0000
  S   S295      1.0  0.88834  0.02536  0.38370  1.0000
  S   S296      1.0  0.93155  0.04325  0.37859  1.0000
  H   H2288     1.0  0.97857  0.99477  0.47499  1.0000
  H   H2289     1.0  0.71973  0.28783  0.27555  1.0000
  H   H2290     1.0  0.69101  0.04227  0.30260  1.0000
  H   H2291     1.0  0.83940  0.01811  0.41378  1.0000
  S   S297      1.0  0.98355  0.99590  0.37946  1.0000
  H   H2292     1.0  0.91212  0.99619  0.28261  1.0000
  H   H2293     1.0  0.68396  0.06283  0.26801  1.0000
  H   H2294     1.0  0.71877  0.31365  0.29633  1.0000
  H   H2295     1.0  0.94917  0.01885  0.42990  1.0000
  H   H2296     1.0  0.82620  0.00084  0.29138  1.0000
  H   H2297     1.0  0.64385  0.30704  0.38807  1.0000
  C   C1302     1.0  0.84756  0.04773  0.31197  1.0000
  C   C1303     1.0  0.85756  0.03305  0.32732  1.0000
  C   C1304     1.0  0.87541  0.03657  0.33206  1.0000
  C   C1305     1.0  0.88309  0.05506  0.32185  1.0000
  C   C1306     1.0  0.87304  0.06983  0.30650  1.0000
  C   C1307     1.0  0.85531  0.06614  0.30150  1.0000
  H   H2298     1.0  0.85158  0.01886  0.33558  1.0000
  H   H2299     1.0  0.88334  0.02484  0.34347  1.0000
  H   H2300     1.0  0.87898  0.08411  0.29849  1.0000
  H   H2301     1.0  0.84768  0.07753  0.28959  1.0000
  H   H2302     1.0  0.68860  0.13467  0.26348  1.0000
  S   S298      1.0  0.65833  0.29354  0.26979  1.0000
  C   C1308     1.0  0.92138  0.05589  0.43929  1.0000
  C   C1309     1.0  0.83510  0.00304  0.27482  1.0000
  H   H2303     1.0  0.64799  0.15621  0.24996  1.0000
  Fe  Fe147     1.0  0.69275  0.21494  0.27275  1.0000
  H   H2304     1.0  0.54496  0.29909  0.29240  1.0000
  C   C1310     1.0  0.85497  0.00503  0.44081  1.0000
  H   H2305     1.0  0.51052  0.31371  0.45619  1.0000
  H   H2306     1.0  0.83815  0.01935  0.26964  1.0000
  C   C1311     1.0  0.72182  0.12064  0.28947  1.0000
  C   C1312     1.0  0.70734  0.12350  0.30817  1.0000
  C   C1313     1.0  0.69700  0.14389  0.31094  1.0000
  C   C1314     1.0  0.70044  0.16152  0.29473  1.0000
  C   C1315     1.0  0.71419  0.15861  0.27564  1.0000
  C   C1316     1.0  0.72540  0.13823  0.27321  1.0000
  H   H2307     1.0  0.70444  0.10993  0.32071  1.0000
  H   H2308     1.0  0.68630  0.14600  0.32570  1.0000
  H   H2309     1.0  0.97686  0.04546  0.42306  1.0000
  H   H2310     1.0  0.73652  0.13615  0.25867  1.0000
  C   C1317     1.0  0.63805  0.28018  0.33338  1.0000
  H   H2311     1.0  0.82567  0.05457  0.42021  1.0000
  C   C1318     1.0  0.95765  0.00922  0.44259  1.0000
  H   H2312     1.0  0.60512  0.25732  0.27693  1.0000
  H   H2313     1.0  0.92381  0.06183  0.42242  1.0000
  H   H2314     1.0  0.67077  0.12101  0.25892  1.0000
  N   N73       1.0  0.77338  0.17910  0.28142  1.0000
  C   C1319     1.0  0.76728  0.17094  0.26546  1.0000
  C   C1320     1.0  0.76136  0.17084  0.30330  1.0000
  C   C1321     1.0  0.76698  0.20298  0.27647  1.0000
  C   C1322     1.0  0.79709  0.17344  0.27989  1.0000
  C   C1323     1.0  0.80676  0.15003  0.28825  1.0000
  H   H2315     1.0  0.63877  0.26652  0.34633  1.0000
  C   C1324     1.0  0.76639  0.21435  0.29401  1.0000
  C   C1325     1.0  0.75731  0.14796  0.30838  1.0000
  C   C1326     1.0  0.74683  0.14124  0.33149  1.0000
  C   C1327     1.0  0.83096  0.14611  0.28380  1.0000
  C   C1328     1.0  0.89815  0.00913  0.28502  1.0000
  C   C1329     1.0  0.76350  0.23830  0.28577  1.0000
  H   H2316     1.0  0.74979  0.17304  0.26875  1.0000
  H   H2317     1.0  0.77377  0.15370  0.26687  1.0000
  H   H2318     1.0  0.76930  0.17214  0.31539  1.0000
  H   H2319     1.0  0.74511  0.18082  0.30608  1.0000
  H   H2320     1.0  0.75084  0.20800  0.27274  1.0000
  H   H2321     1.0  0.77793  0.20973  0.26207  1.0000
  H   H2322     1.0  0.80551  0.17820  0.26334  1.0000
  H   H2323     1.0  0.80197  0.18252  0.28869  1.0000
  H   H2324     1.0  0.80236  0.13947  0.28075  1.0000
  H   H2325     1.0  0.80133  0.14561  0.30559  1.0000
  C   C1330     1.0  0.83893  0.04380  0.42720  1.0000
  H   H2326     1.0  0.82133  0.01903  0.43849  1.0000
  H   H2327     1.0  0.78108  0.20890  0.30029  1.0000
  H   H2328     1.0  0.75289  0.21141  0.30736  1.0000
  H   H2329     1.0  0.74640  0.14711  0.29896  1.0000
  H   H2330     1.0  0.77183  0.13602  0.30497  1.0000
  H   H2331     1.0  0.74371  0.12508  0.33444  1.0000
  H   H2332     1.0  0.75737  0.14101  0.34189  1.0000
  H   H2333     1.0  0.73145  0.15220  0.33539  1.0000
  C   C1331     1.0  0.55141  0.31369  0.28925  1.0000
  H   H2334     1.0  0.71751  0.04735  0.29547  1.0000
  S   S299      1.0  0.61560  0.30299  0.36329  1.0000
  H   H2335     1.0  0.97846  0.04204  0.36759  1.0000
  H   H2336     1.0  0.80563  0.01299  0.26365  1.0000
  H   H2337     1.0  0.69494  0.06892  0.29810  1.0000
  H   H2338     1.0  0.74851  0.24468  0.27994  1.0000
  H   H2339     1.0  0.76286  0.24605  0.29861  1.0000
  H   H2340     1.0  0.77693  0.24226  0.27269  1.0000
  S   S300      1.0  0.66428  0.23570  0.26081  1.0000
  H   H2341     1.0  0.58005  0.28011  0.34099  1.0000
  H   H2342     1.0  0.83631  0.15562  0.29185  1.0000
  C   C1332     1.0  0.98125  0.00209  0.43230  1.0000
  C   C1333     1.0  0.57205  0.29681  0.34127  1.0000
  Fe  Fe148     1.0  0.67778  0.26261  0.26197  1.0000
  H   H2343     1.0  0.60444  0.30494  0.26912  1.0000
  H   H2344     1.0  0.55511  0.31884  0.43100  1.0000
  H   H2345     1.0  0.72970  0.06922  0.26064  1.0000
  S   S301      1.0  0.68756  0.18682  0.29919  1.0000
  C   C1334     1.0  0.62666  0.31772  0.32056  1.0000
  C   C1335     1.0  0.90249  0.03651  0.47140  1.0000
  H   H2346     1.0  0.82839  0.00476  0.24433  1.0000
  H   H2347     1.0  0.86656  0.02074  0.27957  1.0000
  C   C1336     1.0  0.55700  0.30513  0.32547  1.0000
  C   C1337     1.0  0.54242  0.30967  0.43877  1.0000
  H   H2348     1.0  0.70608  0.08843  0.26054  1.0000
  C   C1338     1.0  0.70108  0.05369  0.29286  1.0000
  H   H2349     1.0  0.70661  0.04129  0.26526  1.0000
  C   C1339     1.0  0.67311  0.30164  0.36475  1.0000
  H   H2350     1.0  0.50886  0.31783  0.28730  1.0000
  H   H2351     1.0  0.58437  0.30638  0.33722  1.0000
  C   C1340     1.0  0.59620  0.29139  0.27489  1.0000
  H   H2352     1.0  0.98179  0.02938  0.45944  1.0000
  H   H2353     1.0  0.86997  0.00654  0.42895  1.0000
  H   H2354     1.0  0.62399  0.26825  0.28355  1.0000
  H   H2355     1.0  0.57667  0.27629  0.30332  1.0000
  H   H2356     1.0  0.69610  0.28049  0.29311  1.0000
  C   C1341     1.0  0.83748  0.02082  0.42981  1.0000
  H   H2357     1.0  0.85015  0.99989  0.31012  1.0000
  H   H2358     1.0  0.72345  0.30399  0.33878  1.0000
  S   S302      1.0  0.89042  0.03770  0.43555  1.0000
  H   H2359     1.0  0.54812  0.29686  0.45159  1.0000
  C   C1342     1.0  0.63622  0.31534  0.29995  1.0000
  C   C1343     1.0  0.87965  0.00718  0.27614  1.0000
  C   C1344     1.0  0.71810  0.31973  0.34290  1.0000
  C   C1345     1.0  0.70070  0.05690  0.26962  1.0000
  N   N74       1.0  0.63007  0.17803  0.27012  1.0000
  H   H2360     1.0  0.57120  0.29050  0.37474  1.0000
  C   C1346     1.0  0.63353  0.18489  0.28842  1.0000
  C   C1347     1.0  0.64968  0.16221  0.26319  1.0000
  C   C1348     1.0  0.61144  0.16715  0.27665  1.0000
  C   C1349     1.0  0.58902  0.18125  0.28039  1.0000
  C   C1350     1.0  0.90588  0.04384  0.44954  1.0000
  C   C1351     1.0  0.65598  0.14242  0.28035  1.0000
  C   C1352     1.0  0.62108  0.20692  0.29253  1.0000
  C   C1353     1.0  0.62465  0.21065  0.31264  1.0000
  C   C1354     1.0  0.57203  0.16889  0.28235  1.0000
  H   H2361     1.0  0.61466  0.20953  0.25602  1.0000
  H   H2362     1.0  0.63033  0.17288  0.30329  1.0000
  H   H2363     1.0  0.65051  0.18564  0.28604  1.0000
  H   H2364     1.0  0.61217  0.15791  0.26490  1.0000
  H   H2365     1.0  0.61232  0.15518  0.29162  1.0000
  H   H2366     1.0  0.58688  0.19531  0.26741  1.0000
  H   H2367     1.0  0.58581  0.18635  0.29544  1.0000
  H   H2368     1.0  0.54743  0.28788  0.36851  1.0000
  H   H2369     1.0  0.64292  0.13372  0.28755  1.0000
  H   H2370     1.0  0.66048  0.14701  0.29298  1.0000
  H   H2371     1.0  0.62661  0.21961  0.27942  1.0000
  H   H2372     1.0  0.60389  0.20894  0.29395  1.0000
  H   H2373     1.0  0.64176  0.20973  0.31147  1.0000
  H   H2374     1.0  0.61593  0.22665  0.31496  1.0000
  H   H2375     1.0  0.61889  0.19871  0.32656  1.0000
  H   H2376     1.0  0.57307  0.15468  0.29544  1.0000
  H   H2377     1.0  0.55607  0.17908  0.28567  1.0000
  H   H2378     1.0  0.57384  0.16387  0.26743  1.0000
  C   C1355     1.0  0.82073  0.00128  0.26130  1.0000
  H   H2379     1.0  0.92940  0.99709  0.45932  1.0000
  C   C1356     1.0  0.66115  0.30213  0.38735  1.0000
  H   H2380     1.0  0.65580  0.26232  0.30968  1.0000
  N   N75       1.0  0.56766  0.30997  0.30249  1.0000
  C   C1357     1.0  0.62760  0.30021  0.33735  1.0000
  H   H2381     1.0  0.83739  0.12909  0.28967  1.0000
  H   H2382     1.0  0.54716  0.29307  0.32843  1.0000
  C   C1358     1.0  0.67487  0.12691  0.27094  1.0000
  C   C1359     1.0  0.70405  0.30818  0.29770  1.0000
  C   C1360     1.0  0.64676  0.29543  0.29595  1.0000
  C   C1361     1.0  0.64769  0.27777  0.31268  1.0000
  H   H2383     1.0  0.85400  0.04705  0.41644  1.0000
  H   H2384     1.0  0.95556  0.01929  0.45377  1.0000
  H   H2385     1.0  0.53943  0.30236  0.42713  1.0000
  H   H2386     1.0  0.59663  0.28726  0.30726  1.0000
  H   H2387     1.0  0.83804  0.04730  0.44264  1.0000
  H   H2388     1.0  0.55282  0.31380  0.36543  1.0000
  C   C1362     1.0  0.61284  0.27111  0.27294  1.0000
  H   H2389     1.0  0.66359  0.17004  0.25709  1.0000
  H   H2390     1.0  0.69884  0.29375  0.33071  1.0000
  H   H2391     1.0  0.91749  0.03180  0.28190  1.0000
  H   H2392     1.0  0.66426  0.28607  0.39752  1.0000
  C   C1363     1.0  0.90536  0.03002  0.27427  1.0000
  S   S303      1.0  0.81724  0.13970  0.23707  1.0000
  H   H2393     1.0  0.58547  0.29278  0.26432  1.0000
  H   H2394     1.0  0.62386  0.32074  0.46688  1.0000
  C   C1364     1.0  0.62799  0.19663  0.25169  1.0000
  S   S304      1.0  0.93364  0.00447  0.35536  1.0000
  H   H2395     1.0  0.83750  0.15020  0.26660  1.0000
  C   C1365     1.0  0.71046  0.28651  0.29199  1.0000
  H   H2396     1.0  0.98703  0.09188  0.48143  1.0000
  Fe  Fe149     1.0  0.90917  0.99344  0.38327  1.0000
  H   H2397     1.0  0.89183  0.04362  0.27572  1.0000
  C   C1366     1.0  0.93092  0.05215  0.47273  1.0000
  H   H2398     1.0  0.94567  0.06962  0.44305  1.0000
  H   H2399     1.0  0.72033  0.27501  0.30266  1.0000
  C   C1367     1.0  0.93371  0.06031  0.45096  1.0000
  C   C1368     1.0  0.58406  0.29049  0.29807  1.0000
  C   C1369     1.0  0.71416  0.07317  0.25584  1.0000
  H   H2400     1.0  0.98405  0.01179  0.41599  1.0000
  H   H2401     1.0  0.89313  0.00879  0.30212  1.0000
  H   H2402     1.0  0.54568  0.31919  0.33007  1.0000
  H   H2403     1.0  0.85627  0.01100  0.45425  1.0000
  S   S305      1.0  0.70460  0.24179  0.27674  1.0000
  H   H2404     1.0  0.69003  0.29536  0.36514  1.0000
  H   H2405     1.0  0.68214  0.05648  0.23784  1.0000
  H   H2406     1.0  0.89039  0.02733  0.47937  1.0000
  H   H2407     1.0  0.66636  0.31322  0.39364  1.0000
  H   H2408     1.0  0.72744  0.11254  0.24302  1.0000
  H   H2409     1.0  0.74562  0.03856  0.25105  1.0000
  H   H2410     1.0  0.71033  0.31796  0.35980  1.0000
  C   C1370     1.0  0.91516  0.04042  0.48294  1.0000
  C   C1371     1.0  0.77358  0.18190  0.24193  1.0000
  Fe  Fe150     1.0  0.72254  0.24247  0.24344  1.0000
  H   H2411     1.0  0.69516  0.31900  0.28583  1.0000
  H   H2412     1.0  0.74843  0.31758  0.35028  1.0000
  H   H2413     1.0  0.62216  0.27258  0.25651  1.0000
  S   S306      1.0  0.71327  0.21368  0.24083  1.0000
  H   H2414     1.0  0.76537  0.19870  0.23901  1.0000
  H   H2415     1.0  0.55875  0.31702  0.27222  1.0000
  C   C1372     1.0  0.81693  0.98945  0.47406  1.0000
  H   H2416     1.0  0.89396  0.98989  0.45015  1.0000
  C   C1373     1.0  0.94652  0.99075  0.45393  1.0000
  S   S307      1.0  0.78194  0.10281  0.23668  1.0000
  H   H2417     1.0  0.79082  0.18133  0.23701  1.0000
  Fe  Fe151     1.0  0.80212  0.07030  0.23729  1.0000
  C   C1374     1.0  0.89126  0.07650  0.61571  1.0000
  H   H2418     1.0  0.78865  0.24154  0.66488  1.0000
  C   C1375     1.0  0.94576  0.10784  0.63310  1.0000
  H   H2419     1.0  0.86453  0.26039  0.68799  1.0000
  H   H2420     1.0  0.92046  0.07931  0.65897  1.0000
  H   H2421     1.0  0.88018  0.29549  0.72919  1.0000
  Fe  Fe152     1.0  0.83921  0.27421  0.73187  1.0000
  H   H2422     1.0  0.63968  0.28844  0.70422  1.0000
  Fe  Fe153     1.0  0.72069  0.30354  0.67550  1.0000
  S   S308      1.0  0.71201  0.30111  0.64637  1.0000
  S   S309      1.0  0.70641  0.28886  0.70876  1.0000
  H   H2423     1.0  0.95569  0.11216  0.59889  1.0000
  H   H2424     1.0  0.68502  0.20011  0.68507  1.0000
  H   H2425     1.0  0.97575  0.00085  0.58494  1.0000
  C   C1376     1.0  0.64155  0.20828  0.68277  1.0000
  H   H2426     1.0  0.80767  0.21889  0.64163  1.0000
  Fe  Fe154     1.0  0.74697  0.29509  0.63362  1.0000
  S   S310      1.0  0.76222  0.27134  0.61344  1.0000
  H   H2427     1.0  0.69963  0.24864  0.61193  1.0000
  S   S311      1.0  0.75575  0.29443  0.66369  1.0000
  S   S312      1.0  0.80409  0.12615  0.65967  1.0000
  H   H2428     1.0  0.86658  0.10878  0.56781  1.0000
  Fe  Fe155     1.0  0.79864  0.15940  0.66356  1.0000
  S   S313      1.0  0.76612  0.17930  0.66971  1.0000
  S   S314      1.0  0.82548  0.16823  0.63730  1.0000
  H   H2429     1.0  0.75664  0.25113  0.68947  1.0000
  C   C1377     1.0  0.65013  0.29713  0.55634  1.0000
  H   H2430     1.0  0.89901  0.08080  0.56295  1.0000
  C   C1378     1.0  0.97967  0.05956  0.58345  1.0000
  S   S315      1.0  0.90961  0.04329  0.54245  1.0000
  N   N76       1.0  0.92425  0.12220  0.63679  1.0000
  H   H2431     1.0  0.71117  0.20728  0.65281  1.0000
  H   H2432     1.0  0.83299  0.19922  0.72847  1.0000
  H   H2433     1.0  0.98278  0.08356  0.61527  1.0000
  S   S316      1.0  0.81711  0.15149  0.68897  1.0000
  H   H2434     1.0  0.90466  0.00635  0.62195  1.0000
  H   H2435     1.0  0.91274  0.03424  0.49973  1.0000
  H   H2436     1.0  0.84056  0.28384  0.64444  1.0000
  C   C1379     1.0  0.86401  0.10393  0.60124  1.0000
  C   C1380     1.0  0.87275  0.09199  0.61851  1.0000
  H   H2437     1.0  0.67337  0.17785  0.69197  1.0000
  H   H2438     1.0  0.86517  0.09452  0.63407  1.0000
  Fe  Fe156     1.0  0.83289  0.13398  0.63562  1.0000
  C   C1381     1.0  0.70561  0.26208  0.71251  1.0000
  C   C1382     1.0  0.83383  0.24578  0.67731  1.0000
  H   H2439     1.0  0.66022  0.25707  0.72502  1.0000
  H   H2440     1.0  0.84611  0.23731  0.63746  1.0000
  C   C1383     1.0  0.70328  0.23287  0.69897  1.0000
  C   C1384     1.0  0.70568  0.25378  0.69557  1.0000
  C   C1385     1.0  0.76560  0.24502  0.70229  1.0000
  C   C1386     1.0  0.81315  0.26926  0.65085  1.0000
  H   H2441     1.0  0.70303  0.22670  0.68581  1.0000
  H   H2442     1.0  0.70703  0.26364  0.67992  1.0000
  C   C1387     1.0  0.76238  0.24569  0.62867  1.0000
  C   C1388     1.0  0.77347  0.22827  0.61987  1.0000
  C   C1389     1.0  0.77472  0.20774  0.63245  1.0000
  C   C1390     1.0  0.76454  0.20469  0.65368  1.0000
  C   C1391     1.0  0.75282  0.22205  0.66222  1.0000
  C   C1392     1.0  0.75189  0.24257  0.64977  1.0000
  H   H2443     1.0  0.78157  0.23068  0.60352  1.0000
  H   H2444     1.0  0.78357  0.19429  0.62574  1.0000
  H   H2445     1.0  0.74509  0.21963  0.67868  1.0000
  H   H2446     1.0  0.74327  0.25598  0.65660  1.0000
  H   H2447     1.0  0.67191  0.27381  0.58567  1.0000
  Fe  Fe157     1.0  0.95891  0.99880  0.55075  1.0000
  H   H2448     1.0  0.81462  0.01464  0.62734  1.0000
  C   C1393     1.0  0.69043  0.26230  0.61893  1.0000
  H   H2449     1.0  0.80062  0.27038  0.64227  1.0000
  H   H2450     1.0  0.86743  0.23222  0.69904  1.0000
  C   C1394     1.0  0.80025  0.09072  0.72569  1.0000
  H   H2451     1.0  0.84228  0.23199  0.60336  1.0000
  H   H2452     1.0  0.89148  0.03101  0.62949  1.0000
  C   C1395     1.0  0.69791  0.28301  0.60621  1.0000
  S   S317      1.0  0.82830  0.24620  0.72990  1.0000
  H   H2453     1.0  0.64412  0.21719  0.69329  1.0000
  H   H2454     1.0  0.71529  0.27704  0.55458  1.0000
  C   C1396     1.0  0.78834  0.24861  0.69460  1.0000
  C   C1397     1.0  0.86809  0.17898  0.68833  1.0000
  H   H2455     1.0  0.90952  0.15450  0.63870  1.0000
  H   H2456     1.0  0.63603  0.19367  0.69240  1.0000
  H   H2457     1.0  0.70622  0.25718  0.57579  1.0000
  S   S318      1.0  0.94802  0.05524  0.48701  1.0000
  C   C1398     1.0  0.83067  0.28027  0.63543  1.0000
  H   H2458     1.0  0.81150  0.29871  0.61240  1.0000
  Fe  Fe158     1.0  0.92967  0.03686  0.56625  1.0000
  H   H2459     1.0  0.83160  0.07789  0.61786  1.0000
  H   H2460     1.0  0.68725  0.29613  0.61344  1.0000
  C   C1399     1.0  0.70137  0.21996  0.71925  1.0000
  H   H2461     1.0  0.78748  0.26585  0.69133  1.0000
  H   H2462     1.0  0.75212  0.30150  0.71460  1.0000
  H   H2463     1.0  0.80885  0.17155  0.72565  1.0000
  H   H2464     1.0  0.73534  0.25714  0.59359  1.0000
  C   C1400     1.0  0.67631  0.28962  0.58013  1.0000
  C   C1401     1.0  0.74880  0.24661  0.56481  1.0000
  H   H2465     1.0  0.75101  0.25287  0.54752  1.0000
  H   H2466     1.0  0.80539  0.27967  0.66215  1.0000
  H   H2467     1.0  0.88044  0.09682  0.68909  1.0000
  C   C1402     1.0  0.62750  0.25177  0.73135  1.0000
  H   H2468     1.0  0.79053  0.09395  0.60088  1.0000
  H   H2469     1.0  0.95378  0.10548  0.64633  1.0000
  C   C1403     1.0  0.88673  0.17608  0.69544  1.0000
  C   C1404     1.0  0.91246  0.11361  0.65864  1.0000
  C   C1405     1.0  0.71324  0.27148  0.57196  1.0000
  C   C1406     1.0  0.67248  0.29809  0.55729  1.0000
  C   C1407     1.0  0.91160  0.12240  0.62104  1.0000
  H   H2470     1.0  0.80874  0.28979  0.70581  1.0000
  H   H2471     1.0  0.88723  0.24213  0.67747  1.0000
  C   C1408     1.0  0.91202  0.28879  0.73515  1.0000
  H   H2472     1.0  0.84081  0.27061  0.62415  1.0000
  H   H2473     1.0  0.79231  0.08451  0.62838  1.0000
  H   H2474     1.0  0.96285  0.13106  0.60927  1.0000
  H   H2475     1.0  0.82544  0.07320  0.56318  1.0000
  H   H2476     1.0  0.86442  0.22618  0.66554  1.0000
  C   C1409     1.0  0.83143  0.23231  0.64741  1.0000
  S   S319      1.0  0.96049  0.03304  0.54297  1.0000
  H   H2477     1.0  0.93383  0.15208  0.62035  1.0000
  C   C1410     1.0  0.85819  0.24239  0.66858  1.0000
  H   H2478     1.0  0.86241  0.25381  0.65370  1.0000
  C   C1411     1.0  0.87730  0.02240  0.60807  1.0000
  H   H2479     1.0  0.61762  0.24985  0.72129  1.0000
  H   H2480     1.0  0.89560  0.09271  0.65171  1.0000
  H   H2481     1.0  0.80903  0.24500  0.62568  1.0000
  H   H2482     1.0  0.83183  0.23225  0.69100  1.0000
  H   H2483     1.0  0.71196  0.31925  0.59840  1.0000
  H   H2484     1.0  0.65887  0.19480  0.65599  1.0000
  H   H2485     1.0  0.85018  0.01231  0.58746  1.0000
  H   H2486     1.0  0.86472  0.05567  0.53226  1.0000
  H   H2487     1.0  0.96695  0.07214  0.58952  1.0000
  S   S320      1.0  0.58419  0.31765  0.57146  1.0000
  H   H2488     1.0  0.92306  0.18068  0.64991  1.0000
  C   C1412     1.0  0.93903  0.17017  0.64871  1.0000
  C   C1413     1.0  0.90076  0.07240  0.59571  1.0000
  C   C1414     1.0  0.82235  0.07865  0.60610  1.0000
  C   C1415     1.0  0.80037  0.09197  0.61251  1.0000
  H   H2489     1.0  0.79669  0.24124  0.70784  1.0000
  H   H2490     1.0  0.82993  0.08713  0.59055  1.0000
  C   C1416     1.0  0.89164  0.08376  0.57848  1.0000
  S   S321      1.0  0.84177  0.12456  0.60424  1.0000
  H   H2491     1.0  0.64796  0.28050  0.56073  1.0000
  H   H2492     1.0  0.94407  0.09174  0.63314  1.0000
  H   H2493     1.0  0.88988  0.06973  0.68670  1.0000
  C   C1417     1.0  0.66203  0.20283  0.66690  1.0000
  C   C1418     1.0  0.83304  0.22033  0.61427  1.0000
  H   H2494     1.0  0.67335  0.26381  0.61949  1.0000
  C   C1419     1.0  0.92577  0.14450  0.63611  1.0000
  C   C1420     1.0  0.93729  0.14712  0.65218  1.0000
  C   C1421     1.0  0.87332  0.09961  0.58124  1.0000
  C   C1422     1.0  0.98337  0.10057  0.61211  1.0000
  H   H2495     1.0  0.80191  0.10792  0.61309  1.0000
  C   C1423     1.0  0.84862  0.18707  0.70040  1.0000
  C   C1424     1.0  0.84797  0.19269  0.71931  1.0000
  H   H2496     1.0  0.88570  0.13714  0.59098  1.0000
  H   H2497     1.0  0.92203  0.11154  0.67056  1.0000
  H   H2498     1.0  0.75723  0.25357  0.71509  1.0000
  S   S322      1.0  0.85417  0.12398  0.65873  1.0000
  H   H2499     1.0  0.80898  0.05766  0.59596  1.0000
  H   H2500     1.0  0.68376  0.27068  0.64945  1.0000
  H   H2501     1.0  0.73123  0.15636  0.71452  1.0000
  H   H2502     1.0  0.84174  0.00123  0.62727  1.0000
  H   H2503     1.0  0.89761  0.12520  0.66307  1.0000
  H   H2504     1.0  0.92839  0.14258  0.66854  1.0000
  H   H2505     1.0  0.97788  0.07488  0.55167  1.0000
  C   C1425     1.0  0.77657  0.18212  0.72220  1.0000
  C   C1426     1.0  0.85106  0.12260  0.72786  1.0000
  C   C1427     1.0  0.90298  0.13568  0.58450  1.0000
  C   C1428     1.0  0.64667  0.27369  0.69825  1.0000
  C   C1429     1.0  0.81852  0.22977  0.63257  1.0000
  H   H2506     1.0  0.77449  0.16812  0.71768  1.0000
  H   H2507     1.0  0.62900  0.21833  0.67430  1.0000
  S   S323      1.0  0.69636  0.19454  0.72322  1.0000
  N   N77       1.0  0.81999  0.24675  0.66237  1.0000
  H   H2508     1.0  0.90595  0.15537  0.60334  1.0000
  C   C1430     1.0  0.70414  0.30981  0.57300  1.0000
  C   C1431     1.0  0.71967  0.31653  0.58237  1.0000
  C   C1432     1.0  0.80018  0.23881  0.67512  1.0000
  H   H2509     1.0  0.73434  0.30451  0.58371  1.0000
  H   H2510     1.0  0.92011  0.29591  0.71919  1.0000
  S   S324      1.0  0.86988  0.17334  0.66380  1.0000
  H   H2511     1.0  0.94892  0.17533  0.63297  1.0000
  H   H2512     1.0  0.87533  0.00748  0.60541  1.0000
  H   H2513     1.0  0.82337  0.21622  0.60540  1.0000
  H   H2514     1.0  0.66448  0.29990  0.59010  1.0000
  H   H2515     1.0  0.74451  0.27699  0.57119  1.0000
  H   H2516     1.0  0.89432  0.12537  0.62806  1.0000
  H   H2517     1.0  0.84424  0.20581  0.62012  1.0000
  H   H2518     1.0  0.68377  0.28860  0.54637  1.0000
  H   H2519     1.0  0.85931  0.08137  0.53874  1.0000
  C   C1433     1.0  0.64925  0.25456  0.71653  1.0000
  H   H2520     1.0  0.91529  0.10656  0.61705  1.0000
  H   H2521     1.0  0.94652  0.17185  0.66091  1.0000
  H   H2522     1.0  0.69683  0.15491  0.70755  1.0000
  Fe  Fe159     1.0  0.94053  0.03620  0.51988  1.0000
  C   C1434     1.0  0.73582  0.26389  0.57659  1.0000
  H   H2523     1.0  0.71006  0.25517  0.64218  1.0000
  H   H2524     1.0  0.90525  0.14773  0.56958  1.0000
  C   C1435     1.0  0.91377  0.13942  0.60014  1.0000
  S   S325      1.0  0.92422  0.05330  0.59275  1.0000
  H   H2525     1.0  0.74092  0.23290  0.56920  1.0000
  Fe  Fe160     1.0  0.84451  0.15750  0.66254  1.0000
  N   N78       1.0  0.69923  0.17821  0.66456  1.0000
  C   C1436     1.0  0.68015  0.18924  0.67817  1.0000
  C   C1437     1.0  0.71632  0.16829  0.67718  1.0000
  C   C1438     1.0  0.70761  0.19502  0.64656  1.0000
  C   C1439     1.0  0.69418  0.16197  0.65581  1.0000
  C   C1440     1.0  0.67664  0.14984  0.66981  1.0000
  H   H2526     1.0  0.78094  0.30824  0.68509  1.0000
  C   C1441     1.0  0.72783  0.18731  0.63071  1.0000
  C   C1442     1.0  0.71169  0.15013  0.69640  1.0000
  C   C1443     1.0  0.72948  0.14306  0.70861  1.0000
  C   C1444     1.0  0.67682  0.13069  0.66150  1.0000
  H   H2527     1.0  0.78919  0.12385  0.71344  1.0000
  C   C1445     1.0  0.73261  0.20522  0.61174  1.0000
  H   H2528     1.0  0.90545  0.08234  0.69590  1.0000
  H   H2529     1.0  0.68742  0.24289  0.65071  1.0000
  H   H2530     1.0  0.73115  0.16125  0.66726  1.0000
  H   H2531     1.0  0.72042  0.18070  0.68278  1.0000
  H   H2532     1.0  0.66245  0.27533  0.68804  1.0000
  H   H2533     1.0  0.69544  0.20333  0.63699  1.0000
  H   H2534     1.0  0.68899  0.16948  0.64060  1.0000
  H   H2535     1.0  0.70888  0.15008  0.65181  1.0000
  H   H2536     1.0  0.66074  0.16021  0.66989  1.0000
  H   H2537     1.0  0.67826  0.14416  0.68640  1.0000
  H   H2538     1.0  0.89462  0.31311  0.69757  1.0000
  S   S326      1.0  0.61880  0.31915  0.60860  1.0000
  H   H2539     1.0  0.72610  0.17403  0.62483  1.0000
  H   H2540     1.0  0.74187  0.18202  0.63804  1.0000
  C   C1446     1.0  0.88892  0.01659  0.62622  1.0000
  H   H2541     1.0  0.71090  0.13611  0.69109  1.0000
  H   H2542     1.0  0.95357  0.13738  0.65065  1.0000
  H   H2543     1.0  0.74480  0.13721  0.69850  1.0000
  H   H2544     1.0  0.65687  0.24049  0.70963  1.0000
  H   H2545     1.0  0.66377  0.12270  0.67137  1.0000
  H   H2546     1.0  0.67453  0.13567  0.64500  1.0000
  H   H2547     1.0  0.69206  0.11913  0.66217  1.0000
  H   H2548     1.0  0.63809  0.30623  0.56719  1.0000
  H   H2549     1.0  0.97229  0.04633  0.58387  1.0000
  Fe  Fe161     1.0  0.91209  0.00811  0.55008  1.0000
  H   H2550     1.0  0.71992  0.21008  0.60255  1.0000
  H   H2551     1.0  0.73402  0.21909  0.61696  1.0000
  H   H2552     1.0  0.74789  0.19978  0.60136  1.0000
  C   C1447     1.0  0.82100  0.30133  0.62241  1.0000
  H   H2553     1.0  0.89812  0.06748  0.62910  1.0000
  H   H2554     1.0  0.80393  0.22133  0.68107  1.0000
  H   H2555     1.0  0.90980  0.11975  0.58093  1.0000
  H   H2556     1.0  0.93047  0.13982  0.59236  1.0000
  C   C1448     1.0  0.81090  0.30392  0.69381  1.0000
  C   C1449     1.0  0.90631  0.09188  0.66210  1.0000
  S   S327      1.0  0.82506  0.08938  0.70848  1.0000
  C   C1450     1.0  0.86997  0.24445  0.68430  1.0000
  Fe  Fe162     1.0  0.82487  0.11881  0.68298  1.0000
  H   H2557     1.0  0.81357  0.04889  0.62186  1.0000
  H   H2558     1.0  0.83417  0.18950  0.69490  1.0000
  H   H2559     1.0  0.76467  0.24106  0.56896  1.0000
  C   C1451     1.0  0.96122  0.11443  0.61214  1.0000
  H   H2560     1.0  0.83694  0.21608  0.65652  1.0000
  C   C1452     1.0  0.89485  0.08484  0.68484  1.0000
  N   N79       1.0  0.84135  0.04190  0.59783  1.0000
  C   C1453     1.0  0.88601  0.18094  0.71459  1.0000
  C   C1454     1.0  0.83638  0.02158  0.59660  1.0000
  C   C1455     1.0  0.85584  0.03793  0.61289  1.0000
  C   C1456     1.0  0.85234  0.05186  0.57622  1.0000
  C   C1457     1.0  0.83873  0.06011  0.55914  1.0000
  H   H2561     1.0  0.90725  0.26259  0.72462  1.0000
  H   H2562     1.0  0.90178  0.16987  0.68623  1.0000
  H   H2563     1.0  0.71375  0.28197  0.60926  1.0000
  C   C1458     1.0  0.69311  0.25751  0.64168  1.0000
  C   C1459     1.0  0.85202  0.06860  0.53776  1.0000
  C   C1460     1.0  0.74324  0.31729  0.71751  1.0000
  H   H2564     1.0  0.85257  0.13775  0.71627  1.0000
  C   C1461     1.0  0.82082  0.05611  0.60552  1.0000
  H   H2565     1.0  0.82366  0.02503  0.58758  1.0000
  C   C1462     1.0  0.78548  0.10984  0.72481  1.0000
  H   H2566     1.0  0.84758  0.03247  0.62939  1.0000
  H   H2567     1.0  0.86008  0.05296  0.61281  1.0000
  H   H2568     1.0  0.85904  0.06513  0.57696  1.0000
  H   H2569     1.0  0.86628  0.04026  0.57008  1.0000
  H   H2570     1.0  0.63647  0.27174  0.68856  1.0000
  H   H2571     1.0  0.83215  0.04729  0.55727  1.0000
  H   H2572     1.0  0.76541  0.22800  0.70850  1.0000
  H   H2573     1.0  0.88765  0.02995  0.59375  1.0000
  C   C1463     1.0  0.82920  0.00665  0.61789  1.0000
  S   S328      1.0  0.92962  0.00222  0.57596  1.0000
  H   H2574     1.0  0.82876  0.26026  0.68394  1.0000
  S   S329      1.0  0.84948  0.29914  0.70405  1.0000
  N   N80       1.0  0.69841  0.28831  0.58289  1.0000
  C   C1464     1.0  0.70386  0.24915  0.73279  1.0000
  H   H2575     1.0  0.84182  0.07517  0.52594  1.0000
  H   H2576     1.0  0.76105  0.18968  0.73075  1.0000
  H   H2577     1.0  0.81063  0.31188  0.63283  1.0000
  H   H2578     1.0  0.78176  0.19340  0.70745  1.0000
  H   H2579     1.0  0.66634  0.21802  0.65748  1.0000
  H   H2580     1.0  0.72569  0.13004  0.72228  1.0000
  H   H2581     1.0  0.99036  0.10313  0.62426  1.0000
  H   H2582     1.0  0.64126  0.31200  0.64138  1.0000
  C   C1465     1.0  0.86673  0.18954  0.72644  1.0000
  H   H2583     1.0  0.90051  0.17844  0.72005  1.0000
  H   H2584     1.0  0.85305  0.11017  0.71906  1.0000
  H   H2585     1.0  0.83379  0.30941  0.61206  1.0000
  H   H2586     1.0  0.81144  0.99126  0.60557  1.0000
  C   C1466     1.0  0.82939  0.31181  0.68985  1.0000
  H   H2587     1.0  0.71047  0.31136  0.55576  1.0000
  H   H2588     1.0  0.93203  0.25799  0.73272  1.0000
  C   C1467     1.0  0.79510  0.31438  0.68214  1.0000
  H   H2589     1.0  0.87973  0.00787  0.64068  1.0000
  S   S330      1.0  0.88207  0.99570  0.55785  1.0000
  H   H2590     1.0  0.64739  0.30409  0.54010  1.0000
  H   H2591     1.0  0.81719  0.12893  0.73305  1.0000
  S   S331      1.0  0.61137  0.31991  0.51123  1.0000
  H   H2592     1.0  0.62677  0.21330  0.73115  1.0000
  H   H2593     1.0  0.67415  0.31485  0.55138  1.0000
  S   S332      1.0  0.94151  0.00139  0.52559  1.0000
  H   H2594     1.0  0.50093  0.26558  0.57767  1.0000
  C   C1468     1.0  0.70208  0.22800  0.73612  1.0000
  H   H2595     1.0  0.65248  0.21199  0.73422  1.0000
  C   C1469     1.0  0.79320  0.17592  0.73584  1.0000
  H   H2596     1.0  0.61989  0.26707  0.73629  1.0000
  H   H2597     1.0  0.78884  0.99023  0.49917  1.0000
  C   C1470     1.0  0.91489  0.26516  0.73628  1.0000
  C   C1471     1.0  0.99048  0.06832  0.56096  1.0000
  H   H2598     1.0  0.49061  0.29066  0.56218  1.0000
  H   H2599     1.0  0.68965  0.32255  0.57450  1.0000
  C   C1472     1.0  0.65640  0.23161  0.79585  1.0000
  S   S333      1.0  0.93480  0.29922  0.85708  1.0000
  C   C1473     1.0  0.85684  0.28472  0.87578  1.0000
  H   H2600     1.0  0.63611  0.10897  0.79556  1.0000
  H   H2601     1.0  0.74406  0.22763  0.74816  1.0000
  H   H2602     1.0  0.65206  0.11780  0.77018  1.0000
  Fe  Fe163     1.0  0.60943  0.05121  0.89228  1.0000
  S   S334      1.0  0.61445  0.01583  0.90328  1.0000
  S   S335      1.0  0.63814  0.06577  0.88441  1.0000
  Fe  Fe164     1.0  0.56213  0.05619  0.89799  1.0000
  S   S336      1.0  0.56317  0.02144  0.90904  1.0000
  Fe  Fe165     1.0  0.58551  0.02230  0.92822  1.0000
  H   H2603     1.0  0.70857  0.05986  0.78748  1.0000
  Fe  Fe166     1.0  0.59183  0.01828  0.88306  1.0000
  H   H2604     1.0  0.52815  0.00636  0.89628  1.0000
  S   S337      1.0  0.58241  0.05747  0.91921  1.0000
  S   S338      1.0  0.58890  0.05318  0.86996  1.0000
  Fe  Fe167     1.0  0.80289  0.25315  0.75747  1.0000
  S   S339      1.0  0.82100  0.23300  0.78192  1.0000
  S   S340      1.0  0.77120  0.25120  0.75405  1.0000
  C   C1474     1.0  0.89204  0.26458  0.86303  1.0000
  H   H2605     1.0  0.52514  0.00251  0.96136  1.0000
  Fe  Fe168     1.0  0.84726  0.22792  0.75401  1.0000
  H   H2606     1.0  0.66975  0.99199  0.94956  1.0000
  Fe  Fe169     1.0  0.83287  0.26233  0.77929  1.0000
  S   S341      1.0  0.83363  0.27518  0.80682  1.0000
  C   C1475     1.0  0.63952  0.22774  0.78655  1.0000
  S   S342      1.0  0.81191  0.28310  0.75735  1.0000
  H   H2607     1.0  0.86091  0.27276  0.95215  1.0000
  H   H2608     1.0  0.65614  0.08227  0.82435  1.0000
  C   C1476     1.0  0.86387  0.24608  0.88672  1.0000
  H   H2609     1.0  0.94878  0.26618  0.93236  1.0000
  H   H2610     1.0  0.70213  0.23642  0.81049  1.0000
  H   H2611     1.0  0.64533  0.09210  0.77669  1.0000
  H   H2612     1.0  0.84899  0.24791  0.89889  1.0000
  H   H2613     1.0  0.65445  0.22368  0.81279  1.0000
  S   S343      1.0  0.73223  0.15575  0.76186  1.0000
  Fe  Fe170     1.0  0.67607  0.14986  0.79481  1.0000
  S   S344      1.0  0.70543  0.13147  0.80645  1.0000
  S   S345      1.0  0.64238  0.14711  0.81057  1.0000
  Fe  Fe171     1.0  0.71703  0.16185  0.79404  1.0000
  S   S346      1.0  0.73573  0.17172  0.81154  1.0000
  Fe  Fe172     1.0  0.71832  0.12664  0.77352  1.0000
  S   S347      1.0  0.73536  0.09375  0.76991  1.0000
  S   S348      1.0  0.68640  0.18099  0.78542  1.0000
  S   S349      1.0  0.68804  0.14258  0.76268  1.0000
  H   H2614     1.0  0.71692  0.01992  0.77477  1.0000
  C   C1477     1.0  0.51537  0.06542  0.88748  1.0000
  H   H2615     1.0  0.65131  0.01310  0.92146  1.0000
  H   H2616     1.0  0.98060  0.28536  0.82347  1.0000
  C   C1478     1.0  0.78849  0.15720  0.75447  1.0000
  H   H2617     1.0  0.70153  0.01574  0.81339  1.0000
  H   H2618     1.0  0.86300  0.30793  0.89000  1.0000
  H   H2619     1.0  0.93998  0.27570  0.96675  1.0000
  H   H2620     1.0  0.68705  0.04779  0.79063  1.0000
  H   H2621     1.0  0.85348  0.28534  0.86032  1.0000
  C   C1479     1.0  0.76203  0.22877  0.76996  1.0000
  C   C1480     1.0  0.74835  0.22053  0.76328  1.0000
  C   C1481     1.0  0.74017  0.20305  0.77613  1.0000
  C   C1482     1.0  0.74541  0.19398  0.79581  1.0000
  C   C1483     1.0  0.75879  0.20246  0.80270  1.0000
  C   C1484     1.0  0.76734  0.21971  0.78964  1.0000
  S   S350      1.0  0.59823  0.99532  0.86221  1.0000
  H   H2622     1.0  0.72968  0.19674  0.77082  1.0000
  H   H2623     1.0  0.76274  0.19550  0.81800  1.0000
  H   H2624     1.0  0.77750  0.22636  0.79505  1.0000
  H   H2625     1.0  0.87756  0.30809  0.86354  1.0000
  H   H2626     1.0  0.51469  0.05821  0.96044  1.0000
  N   N81       1.0  0.87352  0.26537  0.88152  1.0000
  H   H2627     1.0  0.89944  0.27851  0.85965  1.0000
  H   H2628     1.0  0.53817  0.04703  0.94362  1.0000
  C   C1485     1.0  0.69815  0.04979  0.79942  1.0000
  N   N82       1.0  0.68622  0.06095  0.81711  1.0000
  C   C1486     1.0  0.70291  0.24989  0.79663  1.0000
  H   H2629     1.0  0.68262  0.08926  0.77886  1.0000
  C   C1487     1.0  0.49263  0.04874  0.86845  1.0000
  C   C1488     1.0  0.63774  0.08978  0.86557  1.0000
  C   C1489     1.0  0.62103  0.09863  0.85495  1.0000
  C   C1490     1.0  0.62216  0.11674  0.83857  1.0000
  C   C1491     1.0  0.64011  0.12589  0.83260  1.0000
  C   C1492     1.0  0.65641  0.11748  0.84377  1.0000
  C   C1493     1.0  0.65518  0.09955  0.86026  1.0000
  H   H2630     1.0  0.60737  0.09139  0.85912  1.0000
  H   H2631     1.0  0.60937  0.12331  0.83016  1.0000
  H   H2632     1.0  0.66994  0.12483  0.83981  1.0000
  H   H2633     1.0  0.66797  0.09299  0.86868  1.0000
  H   H2634     1.0  0.72890  0.27328  0.76511  1.0000
  H   H2635     1.0  0.89953  0.25842  0.97320  1.0000
  C   C1494     1.0  0.72637  0.02016  0.78601  1.0000
  C   C1495     1.0  0.49331  0.06802  0.89394  1.0000
  H   H2636     1.0  0.67323  0.05487  0.85059  1.0000
  H   H2637     1.0  0.67534  0.00356  0.85623  1.0000
  C   C1496     1.0  0.98552  0.28060  0.80808  1.0000
  H   H2638     1.0  0.87247  0.23699  0.85586  1.0000
  C   C1497     1.0  0.66048  0.01575  0.85719  1.0000
  H   H2639     1.0  0.84715  0.25456  0.86034  1.0000
  H   H2640     1.0  0.92599  0.25417  0.93914  1.0000
  H   H2641     1.0  0.75628  0.29352  0.75133  1.0000
  H   H2642     1.0  0.65993  0.22921  0.75561  1.0000
  C   C1498     1.0  0.63575  0.21332  0.74290  1.0000
  H   H2643     1.0  0.61294  0.02998  0.94924  1.0000
  C   C1499     1.0  0.79513  0.07262  0.74037  1.0000
  C   C1500     1.0  0.89732  0.28883  0.80668  1.0000
  C   C1501     1.0  0.89662  0.27304  0.79698  1.0000
  C   C1502     1.0  0.87714  0.26862  0.79715  1.0000
  C   C1503     1.0  0.85824  0.28013  0.80683  1.0000
  C   C1504     1.0  0.85891  0.29588  0.81662  1.0000
  C   C1505     1.0  0.87842  0.30025  0.81656  1.0000
  H   H2644     1.0  0.91120  0.26412  0.78936  1.0000
  H   H2645     1.0  0.87679  0.25617  0.78993  1.0000
  C   C1506     1.0  0.66967  0.09419  0.79181  1.0000
  C   C1507     1.0  0.67955  0.04602  0.83768  1.0000
  H   H2646     1.0  0.54310  0.05197  0.86684  1.0000
  H   H2647     1.0  0.60565  0.22307  0.77877  1.0000
  C   C1508     1.0  0.77509  0.07358  0.75385  1.0000
  H   H2648     1.0  0.63975  0.15885  0.76195  1.0000
  H   H2649     1.0  0.52297  0.03772  0.84964  1.0000
  H   H2650     1.0  0.67260  0.22524  0.78764  1.0000
  C   C1509     1.0  0.53166  0.05878  0.95376  1.0000
  C   C1510     1.0  0.76577  0.11093  0.73875  1.0000
  H   H2651     1.0  0.65474  0.24883  0.79442  1.0000
  C   C1511     1.0  0.58860  0.23341  0.75367  1.0000
  H   H2652     1.0  0.64328  0.25355  0.76028  1.0000
  C   C1512     1.0  0.86219  0.30633  0.87433  1.0000
  C   C1513     1.0  0.53548  0.06963  0.98568  1.0000
  S   S351      1.0  0.86664  0.19585  0.75020  1.0000
  C   C1514     1.0  0.84726  0.22200  0.87530  1.0000
  H   H2653     1.0  0.85786  0.20770  0.88251  1.0000
  C   C1515     1.0  0.85811  0.24097  0.86797  1.0000
  H   H2654     1.0  0.90788  0.25701  0.75231  1.0000
  H   H2655     1.0  0.95992  0.31102  0.92196  1.0000
  C   C1516     1.0  0.74810  0.28878  0.79216  1.0000
  H   H2656     1.0  0.87886  0.31255  0.82393  1.0000
  C   C1517     1.0  0.74311  0.30622  0.75658  1.0000
  H   H2657     1.0  0.54276  0.03718  0.98006  1.0000
  H   H2658     1.0  0.50821  0.00358  0.92012  1.0000
  H   H2659     1.0  0.80652  0.05780  0.74107  1.0000
  C   C1518     1.0  0.71185  0.02741  0.80551  1.0000
  H   H2660     1.0  0.91996  0.24503  0.83177  1.0000
  H   H2661     1.0  0.88039  0.28563  0.93255  1.0000
  H   H2662     1.0  0.71406  0.30520  0.82027  1.0000
  H   H2663     1.0  0.84741  0.30446  0.76464  1.0000
  H   H2664     1.0  0.51001  0.99577  0.84621  1.0000
  C   C1519     1.0  0.69932  0.07446  0.82069  1.0000
  C   C1520     1.0  0.72066  0.06286  0.82714  1.0000
  C   C1521     1.0  0.73120  0.07803  0.83228  1.0000
  H   H2665     1.0  0.70350  0.08648  0.80622  1.0000
  H   H2666     1.0  0.68987  0.08356  0.83280  1.0000
  H   H2667     1.0  0.66534  0.02814  0.82364  1.0000
  H   H2668     1.0  0.67373  0.10685  0.79689  1.0000
  H   H2669     1.0  0.71854  0.04991  0.84126  1.0000
  H   H2670     1.0  0.73180  0.05646  0.81385  1.0000
  H   H2671     1.0  0.73509  0.09054  0.81812  1.0000
  H   H2672     1.0  0.72066  0.08553  0.84518  1.0000
  H   H2673     1.0  0.74619  0.06923  0.83736  1.0000
  N   N83       1.0  0.80465  0.14827  0.76824  1.0000
  C   C1522     1.0  0.59749  0.00905  0.97570  1.0000
  C   C1523     1.0  0.79750  0.13051  0.78590  1.0000
  C   C1524     1.0  0.80566  0.16579  0.77795  1.0000
  H   H2674     1.0  0.73765  0.03093  0.77803  1.0000
  C   C1525     1.0  0.60606  0.23536  0.76395  1.0000
  Fe  Fe173     1.0  0.70063  0.17238  0.75413  1.0000
  C   C1526     1.0  0.81776  0.15892  0.79631  1.0000
  C   C1527     1.0  0.78611  0.11563  0.78069  1.0000
  C   C1528     1.0  0.78323  0.09648  0.79879  1.0000
  H   H2675     1.0  0.69238  0.30200  0.81071  1.0000
  C   C1529     1.0  0.77625  0.29260  0.80909  1.0000
  C   C1530     1.0  0.82070  0.17809  0.80253  1.0000
  H   H2676     1.0  0.77274  0.16264  0.76426  1.0000
  C   C1531     1.0  0.91175  0.26101  0.98015  1.0000
  H   H2677     1.0  0.81114  0.12059  0.79293  1.0000
  H   H2678     1.0  0.78575  0.13718  0.79886  1.0000
  H   H2679     1.0  0.78939  0.17395  0.78423  1.0000
  H   H2680     1.0  0.81312  0.17819  0.76581  1.0000
  C   C1532     1.0  0.93798  0.25780  0.94563  1.0000
  H   H2681     1.0  0.83792  0.13399  0.76659  1.0000
  H   H2682     1.0  0.64717  0.00840  0.85766  1.0000
  H   H2683     1.0  0.66197  0.99249  0.90649  1.0000
  C   C1533     1.0  0.51913  0.99504  0.90815  1.0000
  C   C1534     1.0  0.71749  0.26341  0.79810  1.0000
  H   H2684     1.0  0.83374  0.14923  0.79202  1.0000
  H   H2685     1.0  0.80881  0.14959  0.81048  1.0000
  H   H2686     1.0  0.77004  0.12423  0.77820  1.0000
  H   H2687     1.0  0.79477  0.10974  0.76635  1.0000
  H   H2688     1.0  0.79886  0.08671  0.80147  1.0000
  H   H2689     1.0  0.77394  0.10166  0.81346  1.0000
  H   H2690     1.0  0.77449  0.08656  0.79480  1.0000
  H   H2691     1.0  0.70399  0.25551  0.74588  1.0000
  C   C1535     1.0  0.88819  0.29933  0.73983  1.0000
  H   H2692     1.0  0.63963  0.21058  0.79076  1.0000
  H   H2693     1.0  0.71080  0.26942  0.81271  1.0000
  H   H2694     1.0  0.59284  0.21848  0.74800  1.0000
  H   H2695     1.0  0.63780  0.03433  0.96869  1.0000
  H   H2696     1.0  0.82832  0.17281  0.81637  1.0000
  H   H2697     1.0  0.83118  0.18688  0.78933  1.0000
  H   H2698     1.0  0.80521  0.18875  0.80667  1.0000
  H   H2699     1.0  0.70075  0.21812  0.75179  1.0000
  C   C1536     1.0  0.88129  0.26617  0.90034  1.0000
  C   C1537     1.0  0.91020  0.24479  0.86538  1.0000
  C   C1538     1.0  0.86403  0.26851  0.92057  1.0000
  C   C1539     1.0  0.87350  0.27117  0.93783  1.0000
  C   C1540     1.0  0.92702  0.24488  0.84503  1.0000
  H   H2700     1.0  0.87445  0.23180  0.89408  1.0000
  H   H2701     1.0  0.89284  0.25141  0.90493  1.0000
  H   H2702     1.0  0.89028  0.27913  0.89628  1.0000
  H   H2703     1.0  0.55517  0.23225  0.76171  1.0000
  H   H2704     1.0  0.90427  0.22993  0.86916  1.0000
  H   H2705     1.0  0.91824  0.24451  0.87794  1.0000
  H   H2706     1.0  0.85108  0.28239  0.91766  1.0000
  H   H2707     1.0  0.85700  0.25417  0.92681  1.0000
  H   H2708     1.0  0.88601  0.25717  0.94195  1.0000
  H   H2709     1.0  0.84144  0.28388  0.88712  1.0000
  H   H2710     1.0  0.93968  0.23047  0.84700  1.0000
  H   H2711     1.0  0.84343  0.21869  0.86157  1.0000
  H   H2712     1.0  0.93436  0.25895  0.84104  1.0000
  C   C1541     1.0  0.76039  0.09277  0.75306  1.0000
  C   C1542     1.0  0.63510  0.19253  0.75982  1.0000
  H   H2713     1.0  0.62405  0.23602  0.79445  1.0000
  H   H2714     1.0  0.69324  0.03410  0.84264  1.0000
  H   H2715     1.0  0.94747  0.24282  0.95319  1.0000
  H   H2716     1.0  0.65727  0.02148  0.87195  1.0000
  H   H2717     1.0  0.97417  0.29035  0.79804  1.0000
  C   C1543     1.0  0.72031  0.28152  0.77820  1.0000
  H   H2718     1.0  0.53296  0.07475  0.94379  1.0000
  H   H2719     1.0  0.70901  0.24333  0.78224  1.0000
  C   C1544     1.0  0.66635  0.07544  0.81089  1.0000
  H   H2720     1.0  0.65663  0.06632  0.80705  1.0000
  S   S352      1.0  0.58143  0.00385  0.96170  1.0000
  H   H2721     1.0  0.77105  0.05949  0.76496  1.0000
  C   C1545     1.0  0.64952  0.10378  0.78306  1.0000
  H   H2722     1.0  0.68670  0.25950  0.79633  1.0000
  H   H2723     1.0  0.64648  0.04524  0.83943  1.0000
  C   C1546     1.0  0.52607  0.05408  0.87182  1.0000
  H   H2724     1.0  0.73564  0.00395  0.79069  1.0000
  H   H2725     1.0  0.56890  0.21961  0.78296  1.0000
  Fe  Fe174     1.0  0.92499  0.31439  0.82614  1.0000
  H   H2726     1.0  0.73306  0.25284  0.79970  1.0000
  C   C1547     1.0  0.92729  0.27190  0.96144  1.0000
  H   H2727     1.0  0.72194  0.02675  0.81641  1.0000
  C   C1548     1.0  0.51467  0.04604  0.86208  1.0000
  H   H2728     1.0  0.78621  0.14488  0.74757  1.0000
  S   S353      1.0  0.92203  0.29420  0.80552  1.0000
  H   H2729     1.0  0.62688  0.17509  0.74101  1.0000
  S   S354      1.0  0.52956  0.07631  0.89895  1.0000
  C   C1549     1.0  0.94326  0.31810  0.92545  1.0000
  H   H2730     1.0  0.91863  0.28675  0.95285  1.0000
  C   C1550     1.0  0.66218  0.03423  0.83815  1.0000
  H   H2731     1.0  0.98460  0.26375  0.81064  1.0000
  C   C1551     1.0  0.71595  0.31684  0.78598  1.0000
  H   H2732     1.0  0.60099  0.25076  0.76902  1.0000
  C   C1552     1.0  0.82660  0.14117  0.75592  1.0000
  N   N84       1.0  0.73163  0.29826  0.77873  1.0000
  H   H2733     1.0  0.84427  0.30490  0.82397  1.0000
  H   H2734     1.0  0.53918  0.08515  0.97617  1.0000
  C   C1553     1.0  0.56748  0.23339  0.76948  1.0000
  H   H2735     1.0  0.61955  0.19261  0.77084  1.0000
  C   C1554     1.0  0.64339  0.23643  0.76234  1.0000
  C   C1555     1.0  0.61211  0.02214  0.96563  1.0000
  H   H2736     1.0  0.90883  0.32248  0.75307  1.0000
  H   H2737     1.0  0.56095  0.05349  0.96373  1.0000
  S   S355      1.0  0.86100  0.25540  0.75353  1.0000
  H   H2738     1.0  0.88656  0.26584  0.84846  1.0000
  H   H2739     1.0  0.77131  0.30962  0.77848  1.0000
  H   H2740     1.0  0.88148  0.29088  0.75582  1.0000
  H   H2741     1.0  0.76713  0.28771  0.82529  1.0000
  H   H2742     1.0  0.83225  0.22536  0.88691  1.0000
  H   H2743     1.0  0.70437  0.28897  0.77450  1.0000
  H   H2744     1.0  0.74091  0.28174  0.80851  1.0000
  N   N85       1.0  0.62816  0.23375  0.75051  1.0000
  H   H2745     1.0  0.64760  0.18967  0.76884  1.0000
  C   C1556     1.0  0.82931  0.12466  0.74274  1.0000
  H   H2746     1.0  0.56223  0.24822  0.77546  1.0000
  H   H2747     1.0  0.89799  0.30395  0.97675  1.0000
  H   H2748     1.0  0.65509  0.17254  0.73842  1.0000
  C   C1557     1.0  0.70342  0.31251  0.80897  1.0000
  H   H2749     1.0  0.83288  0.15506  0.74530  1.0000
  H   H2750     1.0  0.82844  0.10888  0.75327  1.0000
  H   H2751     1.0  0.67934  0.00634  0.91148  1.0000
  H   H2752     1.0  0.58595  0.24696  0.74026  1.0000
  C   C1558     1.0  0.76132  0.30393  0.79394  1.0000
  C   C1559     1.0  0.54407  0.05344  0.97124  1.0000
  H   H2753     1.0  0.75947  0.27531  0.78604  1.0000
  H   H2754     1.0  0.78688  0.27835  0.80393  1.0000
  H   H2755     1.0  0.87746  0.29074  0.97927  1.0000
  C   C1560     1.0  0.84594  0.32174  0.76253  1.0000
  H   H2756     1.0  0.93677  0.30980  0.89944  1.0000
  C   C1561     1.0  0.66473  0.99977  0.91826  1.0000
  H   H2757     1.0  0.78627  0.30336  0.80943  1.0000
  C   C1562     1.0  0.72933  0.31486  0.73960  1.0000
  C   C1563     1.0  0.62628  0.02446  0.97659  1.0000
  H   H2758     1.0  0.92018  0.29037  0.74686  1.0000
  C   C1564     1.0  0.63949  0.17365  0.74956  1.0000
  H   H2759     1.0  0.79297  0.19009  0.74153  1.0000
  H   H2760     1.0  0.49573  0.00041  0.88996  1.0000
  H   H2761     1.0  0.75076  0.31936  0.75585  1.0000
  H   H2762     1.0  0.53613  0.00260  0.98300  1.0000
  H   H2763     1.0  0.49791  0.00554  0.81335  1.0000
  H   H2764     1.0  0.75097  0.31776  0.79999  1.0000
  H   H2765     1.0  0.75469  0.12578  0.73815  1.0000
  H   H2766     1.0  0.71865  0.30428  0.74058  1.0000
  H   H2767     1.0  0.98896  0.30454  0.97805  1.0000
  C   C1565     1.0  0.52138  0.00242  0.97845  1.0000
  Fe  Fe175     1.0  0.95895  0.31980  0.84566  1.0000
  C   C1566     1.0  0.93010  0.31723  0.91277  1.0000
  H   H2768     1.0  0.88592  0.31609  0.77125  1.0000
  H   H2769     1.0  0.50957  0.01695  0.98136  1.0000
  H   H2770     1.0  0.86391  0.11810  0.73683  1.0000
  C   C1567     1.0  0.83062  0.35021  0.12495  1.0000
  Fe  Fe176     1.0  0.92950  0.54787  0.04061  1.0000
  S   S356      1.0  0.95999  0.54419  0.01673  1.0000
  S   S357      1.0  0.91457  0.58068  0.04622  1.0000
  Fe  Fe177     1.0  0.92539  0.50263  0.04682  1.0000
  S   S358      1.0  0.95576  0.49541  0.02421  1.0000
  S   S359      1.0  0.90789  0.47580  0.05986  1.0000
  Fe  Fe178     1.0  0.96888  0.51360  0.03919  1.0000
  H   H2771     1.0  0.88801  0.48681  0.99809  1.0000
  Fe  Fe179     1.0  0.94443  0.52616  0.00372  1.0000
  H   H2772     1.0  0.85070  0.42795  0.00365  1.0000
  S   S360      1.0  0.93935  0.51824  0.06428  1.0000
  S   S361      1.0  0.91292  0.53261  0.02538  1.0000
  C   C1568     1.0  0.86164  0.43151  0.01150  1.0000
  S   S362      1.0  0.96163  0.35819  0.99457  1.0000
  C   C1569     1.0  0.88977  0.55341  0.14338  1.0000
  Fe  Fe180     1.0  0.88685  0.62564  0.14250  1.0000
  S   S363      1.0  0.85547  0.62456  0.13733  1.0000
  S   S364      1.0  0.91629  0.60250  0.13125  1.0000
  H   H2773     1.0  0.92616  0.63614  0.03546  1.0000
  Fe  Fe181     1.0  0.84305  0.62749  0.17078  1.0000
  S   S365      1.0  0.81940  0.60706  0.18839  1.0000
  C   C1570     1.0  0.88110  0.43852  0.99519  1.0000
  S   S366      1.0  0.87498  0.62592  0.17694  1.0000
  C   C1571     1.0  0.80662  0.61268  0.21309  1.0000
  H   H2774     1.0  0.89228  0.43995  0.00406  1.0000
  H   H2775     1.0  0.97095  0.61626  0.02025  1.0000
  C   C1572     1.0  0.91641  0.58663  0.06943  1.0000
  C   C1573     1.0  0.90667  0.60675  0.07335  1.0000
  C   C1574     1.0  0.90661  0.61170  0.09230  1.0000
  C   C1575     1.0  0.91669  0.59663  0.10727  1.0000
  C   C1576     1.0  0.92712  0.57670  0.10307  1.0000
  C   C1577     1.0  0.92689  0.57164  0.08421  1.0000
  H   H2776     1.0  0.89881  0.61849  0.06186  1.0000
  H   H2777     1.0  0.89872  0.62719  0.09536  1.0000
  H   H2778     1.0  0.93494  0.56498  0.11464  1.0000
  H   H2779     1.0  0.93460  0.55612  0.08126  1.0000
  H   H2780     1.0  0.84467  0.34867  0.13158  1.0000
  H   H2781     1.0  0.98207  0.58388  0.00897  1.0000
  C   C1578     1.0  0.77179  0.65080  0.16682  1.0000
  H   H2782     1.0  0.84713  0.47412  0.99601  1.0000
  C   C1579     1.0  0.97743  0.59416  0.07091  1.0000
  C   C1580     1.0  0.79134  0.60126  0.22593  1.0000
  H   H2783     1.0  0.73299  0.62746  0.22480  1.0000
  H   H2784     1.0  0.88940  0.42494  0.98762  1.0000
  H   H2785     1.0  0.78687  0.61949  0.16035  1.0000
  S   S367      1.0  0.87433  0.34138  0.04250  1.0000
  C   C1581     1.0  0.92991  0.43145  0.01369  1.0000
  C   C1582     1.0  0.92114  0.42378  0.03482  1.0000
  C   C1583     1.0  0.91413  0.43742  0.04903  1.0000
  C   C1584     1.0  0.91567  0.45877  0.04207  1.0000
  C   C1585     1.0  0.92383  0.46644  0.02080  1.0000
  C   C1586     1.0  0.93149  0.45275  0.00684  1.0000
  H   H2786     1.0  0.91971  0.40742  0.04025  1.0000
  H   H2787     1.0  0.90770  0.43137  0.06543  1.0000
  H   H2788     1.0  0.92387  0.48309  0.01492  1.0000
  N   N86       1.0  0.75065  0.64909  0.18153  1.0000
  Fe  Fe182     1.0  0.93294  0.38182  0.00511  1.0000
  H   H2789     1.0  0.97397  0.36576  0.02924  1.0000
  C   C1587     1.0  0.82062  0.33073  0.13450  1.0000
  H   H2790     1.0  0.83557  0.35227  0.10755  1.0000
  H   H2791     1.0  0.78434  0.64787  0.17602  1.0000
  H   H2792     1.0  0.78807  0.58865  0.22084  1.0000
  C   C1588     1.0  0.80025  0.57520  0.15041  1.0000
  S   S368      1.0  0.92578  0.36304  0.03825  1.0000
  C   C1589     1.0  0.86918  0.55697  0.13593  1.0000
  H   H2793     1.0  0.88909  0.54196  0.15879  1.0000
  H   H2794     1.0  0.96640  0.57765  0.11360  1.0000
  C   C1590     1.0  0.82983  0.58332  0.11879  1.0000
  H   H2795     1.0  0.98413  0.44631  0.07675  1.0000
  H   H2796     1.0  0.95354  0.60248  0.04088  1.0000
  H   H2797     1.0  0.84830  0.54309  0.11230  1.0000
  H   H2798     1.0  0.97745  0.56913  0.04559  1.0000
  S   S369      1.0  0.91128  0.36933  0.99297  1.0000
  N   N87       1.0  0.85075  0.57620  0.10457  1.0000
  C   C1591     1.0  0.86353  0.47665  0.98880  1.0000
  H   H2799     1.0  0.97573  0.44383  0.04332  1.0000
  H   H2800     1.0  0.80268  0.63024  0.12336  1.0000
  H   H2801     1.0  0.90350  0.59294  0.00125  1.0000
  H   H2802     1.0  0.76631  0.63305  0.14601  1.0000
  H   H2803     1.0  0.90346  0.54683  0.13192  1.0000
  H   H2804     1.0  0.86340  0.61766  0.09368  1.0000
  H   H2805     1.0  0.97617  0.44977  0.10345  1.0000
  H   H2806     1.0  0.83189  0.59373  0.12825  1.0000
  H   H2807     1.0  0.89210  0.56847  0.14549  1.0000
  H   H2808     1.0  0.85100  0.33634  0.00544  1.0000
  H   H2809     1.0  0.94501  0.65071  0.01668  1.0000
  H   H2810     1.0  0.81802  0.59325  0.10924  1.0000
  C   C1592     1.0  0.96619  0.61174  0.03771  1.0000
  H   H2811     1.0  0.82305  0.63746  0.21008  1.0000
  H   H2812     1.0  0.90391  0.57077  0.99074  1.0000
  H   H2813     1.0  0.94826  0.62921  0.06253  1.0000
  H   H2814     1.0  0.76637  0.62026  0.19949  1.0000
  H   H2815     1.0  0.87565  0.46750  0.01839  1.0000
  H   H2816     1.0  0.72960  0.64213  0.16567  1.0000
  Fe  Fe183     1.0  0.90655  0.34830  0.02547  1.0000
  H   H2817     1.0  0.82905  0.55309  0.14280  1.0000
  H   H2818     1.0  0.78874  0.58797  0.14254  1.0000
  H   H2819     1.0  0.86510  0.50253  0.02701  1.0000
  H   H2820     1.0  0.85443  0.40660  0.03896  1.0000
  C   C1593     1.0  0.81835  0.56590  0.13412  1.0000
  C   C1594     1.0  0.85777  0.49918  0.01555  1.0000
  H   H2821     1.0  0.96741  0.64254  0.04296  1.0000
  H   H2822     1.0  0.98727  0.46982  0.08294  1.0000
  C   C1595     1.0  0.73282  0.62130  0.21112  1.0000
  C   C1596     1.0  0.81113  0.62871  0.21986  1.0000
  H   H2823     1.0  0.85613  0.56272  0.14841  1.0000
  H   H2824     1.0  0.87909  0.41432  0.03629  1.0000
  H   H2825     1.0  0.85469  0.51389  0.00340  1.0000
  C   C1597     1.0  0.75182  0.62618  0.19290  1.0000
  C   C1598     1.0  0.79617  0.64263  0.13271  1.0000
  H   H2826     1.0  0.75965  0.65520  0.20758  1.0000
  H   H2827     1.0  0.86758  0.54141  0.13445  1.0000
  H   H2828     1.0  0.81147  0.55864  0.12513  1.0000
  H   H2829     1.0  0.80934  0.64586  0.13778  1.0000
  H   H2830     1.0  0.75330  0.61607  0.18172  1.0000
  C   C1599     1.0  0.98374  0.57410  0.10728  1.0000
  C   C1600     1.0  0.85022  0.61617  0.08744  1.0000
  H   H2831     1.0  0.86928  0.58869  0.11849  1.0000
  H   H2832     1.0  0.93817  0.45889  0.99055  1.0000
  H   H2833     1.0  0.71755  0.62855  0.20602  1.0000
  C   C1601     1.0  0.86854  0.41146  0.02749  1.0000
  C   C1602     1.0  0.77956  0.63519  0.15177  1.0000
  N   N88       1.0  0.98475  0.59824  0.04718  1.0000
  H   H2834     1.0  0.84254  0.49435  0.02407  1.0000
  H   H2835     1.0  0.79182  0.56262  0.16068  1.0000
  C   C1603     1.0  0.95566  0.63257  0.04550  1.0000
  C   C1604     1.0  0.98851  0.43038  0.03904  1.0000
  C   C1605     1.0  0.86901  0.57356  0.11493  1.0000
  H   H2836     1.0  0.85281  0.44388  0.02044  1.0000
  C   C1606     1.0  0.98815  0.45249  0.08860  1.0000
  C   C1607     1.0  0.98848  0.57347  0.08398  1.0000
  H   H2837     1.0  0.73312  0.59037  0.20608  1.0000
  C   C1608     1.0  0.85080  0.55613  0.09833  1.0000
  C   C1609     1.0  0.85320  0.59321  0.08461  1.0000
  C   C1610     1.0  0.87116  0.54720  0.08329  1.0000
  C   C1611     1.0  0.86929  0.52668  0.07871  1.0000
  C   C1612     1.0  0.84985  0.63215  0.06646  1.0000
  H   H2838     1.0  0.83716  0.55872  0.09067  1.0000
  H   H2839     1.0  0.96036  0.59331  0.07546  1.0000
  H   H2840     1.0  0.84176  0.59347  0.07505  1.0000
  H   H2841     1.0  0.86925  0.58973  0.07455  1.0000
  H   H2842     1.0  0.88435  0.56993  0.10392  1.0000
  H   H2843     1.0  0.87400  0.55849  0.06793  1.0000
  H   H2844     1.0  0.88529  0.54349  0.09035  1.0000
  H   H2845     1.0  0.85592  0.52951  0.07071  1.0000
  H   H2846     1.0  0.88411  0.52044  0.06823  1.0000
  H   H2847     1.0  0.86693  0.51442  0.09348  1.0000
  H   H2848     1.0  0.84924  0.64816  0.06871  1.0000
  H   H2849     1.0  0.86426  0.62794  0.05448  1.0000
  H   H2850     1.0  0.83562  0.63276  0.06056  1.0000
  H   H2851     1.0  0.80658  0.58169  0.16052  1.0000
  Fe  Fe184     1.0  0.95302  0.33840  0.02677  1.0000
  H   H2852     1.0  0.83525  0.62110  0.09836  1.0000
  H   H2853     1.0  0.87706  0.39824  0.01950  1.0000
  S   S370      1.0  0.93694  0.41572  0.99481  1.0000
  C   C1613     1.0  0.93823  0.64556  0.03369  1.0000
  H   H2854     1.0  0.81893  0.36457  0.12855  1.0000
  C   C1614     1.0  0.87280  0.48151  0.00548  1.0000
  C   C1615     1.0  0.98980  0.35953  0.03213  1.0000
  C   C1616     1.0  0.73387  0.59750  0.21889  1.0000
  H   H2855     1.0  0.98255  0.55992  0.08265  1.0000
  C   C1617     1.0  0.86062  0.32707  0.99352  1.0000
  H   H2856     1.0  0.81517  0.32990  0.15168  1.0000
  H   H2857     1.0  0.98158  0.41599  0.04370  1.0000
  C   C1618     1.0  0.90414  0.58792  0.98663  1.0000
  H   H2858     1.0  0.74871  0.58971  0.22470  1.0000
  H   H2859     1.0  0.97832  0.60772  0.07703  1.0000
  H   H2860     1.0  0.80642  0.33330  0.12791  1.0000
  H   H2861     1.0  0.98471  0.43517  0.00774  1.0000
  H   H2862     1.0  0.72022  0.59464  0.23211  1.0000
  C   C1619     1.0  0.73239  0.65583  0.17021  1.0000
  Fe  Fe185     1.0  0.69699  0.61611  0.30495  1.0000
  Fe  Fe186     1.0  0.57269  0.52548  0.41798  1.0000
  S   S371      1.0  0.60577  0.52657  0.40001  1.0000
  S   S372      1.0  0.55850  0.54002  0.44606  1.0000
  Fe  Fe187     1.0  0.56350  0.50448  0.38798  1.0000
  S   S373      1.0  0.59553  0.50419  0.36668  1.0000
  S   S374      1.0  0.53807  0.49015  0.38481  1.0000
  Fe  Fe188     1.0  0.60692  0.49380  0.39704  1.0000
  S   S375      1.0  0.63547  0.46823  0.40125  1.0000
  Fe  Fe189     1.0  0.59159  0.53711  0.37143  1.0000
  S   S376      1.0  0.59815  0.56579  0.34611  1.0000
  S   S377      1.0  0.57523  0.49156  0.41803  1.0000
  S   S378      1.0  0.55825  0.53841  0.38968  1.0000
  Fe  Fe190     1.0  0.56806  0.37609  0.36153  1.0000
  S   S379      1.0  0.60144  0.36601  0.34456  1.0000
  S   S380      1.0  0.54194  0.39420  0.34419  1.0000
  Fe  Fe191     1.0  0.57895  0.35963  0.40459  1.0000
  S   S381      1.0  0.61323  0.34758  0.39166  1.0000
  S   S382      1.0  0.56105  0.35952  0.43787  1.0000
  Fe  Fe192     1.0  0.61079  0.37838  0.36791  1.0000
  S   S383      1.0  0.63875  0.39430  0.35812  1.0000
  H   H2863     1.0  0.55814  0.40152  0.46609  1.0000
  H   H2864     1.0  0.65243  0.32609  0.34800  1.0000
  S   S384      1.0  0.57743  0.39141  0.38255  1.0000
  S   S385      1.0  0.56729  0.34507  0.38465  1.0000
  C   C1620     1.0  0.51332  0.34157  0.43044  1.0000
  C   C1621     1.0  0.60826  0.55326  0.29583  1.0000
  H   H2865     1.0  0.64206  0.59408  0.38994  1.0000
  H   H2866     1.0  0.64099  0.51933  0.42037  1.0000
  H   H2867     1.0  0.49695  0.50194  0.45624  1.0000
  C   C1622     1.0  0.57489  0.34680  0.45812  1.0000
  C   C1623     1.0  0.50778  0.53630  0.42220  1.0000
  H   H2868     1.0  0.67624  0.46924  0.30277  1.0000
  C   C1624     1.0  0.64372  0.57957  0.47788  1.0000
  H   H2869     1.0  0.57078  0.34130  0.32531  1.0000
  H   H2870     1.0  0.49321  0.49368  0.39531  1.0000
  H   H2871     1.0  0.64026  0.39464  0.30948  1.0000
  C   C1625     1.0  0.73789  0.32854  0.33995  1.0000
  C   C1626     1.0  0.51287  0.34628  0.34959  1.0000
  H   H2872     1.0  0.55135  0.35212  0.30940  1.0000
  H   H2873     1.0  0.62323  0.56346  0.45801  1.0000
  S   S386      1.0  0.71795  0.61528  0.27292  1.0000
  H   H2874     1.0  0.64005  0.45238  0.33677  1.0000
  C   C1627     1.0  0.59138  0.58164  0.40571  1.0000
  C   C1628     1.0  0.65724  0.56619  0.35094  1.0000
  C   C1629     1.0  0.63578  0.44764  0.38964  1.0000
  C   C1630     1.0  0.65511  0.43452  0.38318  1.0000
  C   C1631     1.0  0.65579  0.41832  0.37340  1.0000
  C   C1632     1.0  0.63708  0.41474  0.37056  1.0000
  C   C1633     1.0  0.61765  0.42766  0.37728  1.0000
  C   C1634     1.0  0.61703  0.44432  0.38657  1.0000
  H   H2875     1.0  0.66960  0.43708  0.38550  1.0000
  H   H2876     1.0  0.67082  0.40838  0.36821  1.0000
  H   H2877     1.0  0.60318  0.42512  0.37492  1.0000
  H   H2878     1.0  0.60203  0.45445  0.39152  1.0000
  C   C1635     1.0  0.60651  0.58065  0.41964  1.0000
  C   C1636     1.0  0.63712  0.56141  0.35509  1.0000
  H   H2879     1.0  0.63283  0.54883  0.36809  1.0000
  H   H2880     1.0  0.50201  0.48045  0.32512  1.0000
  C   C1637     1.0  0.61035  0.51310  0.47093  1.0000
  C   C1638     1.0  0.59515  0.51786  0.45858  1.0000
  C   C1639     1.0  0.57716  0.53374  0.46190  1.0000
  C   C1640     1.0  0.66044  0.36473  0.32030  1.0000
  C   C1641     1.0  0.65238  0.45213  0.32208  1.0000
  H   H2881     1.0  0.62423  0.50075  0.46837  1.0000
  H   H2882     1.0  0.59735  0.50918  0.44653  1.0000
  Fe  Fe193     1.0  0.69790  0.64733  0.26294  1.0000
  Fe  Fe194     1.0  0.73662  0.63338  0.28217  1.0000
  H   H2883     1.0  0.65046  0.51041  0.37868  1.0000
  C   C1642     1.0  0.50774  0.60337  0.39293  1.0000
  C   C1643     1.0  0.52648  0.35797  0.35181  1.0000
  C   C1644     1.0  0.66685  0.50510  0.37020  1.0000
  H   H2884     1.0  0.49867  0.35501  0.39359  1.0000
  S   S387      1.0  0.68910  0.58659  0.32838  1.0000
  C   C1645     1.0  0.51767  0.51051  0.37677  1.0000
  C   C1646     1.0  0.52219  0.52945  0.36336  1.0000
  H   H2885     1.0  0.62377  0.41081  0.42665  1.0000
  H   H2886     1.0  0.64412  0.53052  0.45127  1.0000
  C   C1647     1.0  0.52732  0.45477  0.34989  1.0000
  H   H2887     1.0  0.59083  0.55457  0.30092  1.0000
  H   H2888     1.0  0.63275  0.40152  0.47003  1.0000
  C   C1648     1.0  0.65337  0.59315  0.39981  1.0000
  H   H2889     1.0  0.59711  0.58014  0.43600  1.0000
  C   C1649     1.0  0.52033  0.47813  0.44231  1.0000
  H   H2890     1.0  0.53788  0.34768  0.28488  1.0000
  H   H2891     1.0  0.52468  0.33196  0.30851  1.0000
  H   H2892     1.0  0.61661  0.54748  0.42863  1.0000
  H   H2893     1.0  0.58369  0.56773  0.41145  1.0000
  C   C1650     1.0  0.57852  0.32856  0.29666  1.0000
  H   H2894     1.0  0.52224  0.52859  0.47279  1.0000
  H   H2895     1.0  0.63698  0.59660  0.47249  1.0000
  C   C1651     1.0  0.54871  0.44588  0.35640  1.0000
  C   C1652     1.0  0.52143  0.48896  0.47542  1.0000
  C   C1653     1.0  0.80328  0.64621  0.31239  1.0000
  H   H2896     1.0  0.65845  0.53018  0.33474  1.0000
  C   C1654     1.0  0.50468  0.55997  0.42051  1.0000
  H   H2897     1.0  0.61234  0.59560  0.41435  1.0000
  C   C1655     1.0  0.49664  0.37699  0.32645  1.0000
  N   N89       1.0  0.65685  0.51131  0.31405  1.0000
  C   C1656     1.0  0.67962  0.50949  0.30226  1.0000
  C   C1657     1.0  0.64861  0.49197  0.31496  1.0000
  C   C1658     1.0  0.64391  0.53045  0.30189  1.0000
  C   C1659     1.0  0.65419  0.51492  0.33581  1.0000
  C   C1660     1.0  0.66655  0.49744  0.35093  1.0000
  C   C1661     1.0  0.61946  0.53244  0.30792  1.0000
  H   H2898     1.0  0.66365  0.43666  0.32418  1.0000
  H   H2899     1.0  0.68027  0.59182  0.37317  1.0000
  H   H2900     1.0  0.52626  0.33044  0.45959  1.0000
  C   C1662     1.0  0.53247  0.33248  0.29184  1.0000
  H   H2901     1.0  0.63420  0.49079  0.32778  1.0000
  H   H2902     1.0  0.71980  0.53881  0.28612  1.0000
  H   H2903     1.0  0.64867  0.53075  0.28469  1.0000
  H   H2904     1.0  0.63729  0.51688  0.34403  1.0000
  H   H2905     1.0  0.65864  0.48366  0.35667  1.0000
  H   H2906     1.0  0.61344  0.53187  0.32493  1.0000
  H   H2907     1.0  0.61462  0.51949  0.30412  1.0000
  H   H2908     1.0  0.53769  0.35065  0.36177  1.0000
  H   H2909     1.0  0.59634  0.36116  0.29818  1.0000
  H   H2910     1.0  0.68396  0.60215  0.39389  1.0000
  C   C1663     1.0  0.52229  0.59488  0.37360  1.0000
  H   H2911     1.0  0.51690  0.59907  0.40563  1.0000
  H   H2912     1.0  0.64852  0.36172  0.33507  1.0000
  H   H2913     1.0  0.55344  0.59591  0.35354  1.0000
  H   H2914     1.0  0.52223  0.33327  0.26334  1.0000
  H   H2915     1.0  0.49497  0.42416  0.34909  1.0000
  H   H2916     1.0  0.53446  0.49654  0.46459  1.0000
  C   C1664     1.0  0.49720  0.56281  0.48562  1.0000
  H   H2917     1.0  0.51473  0.60084  0.35973  1.0000
  H   H2918     1.0  0.79915  0.63281  0.32546  1.0000
  H   H2919     1.0  0.59502  0.32316  0.29908  1.0000
  H   H2920     1.0  0.52590  0.57736  0.37684  1.0000
  C   C1665     1.0  0.71276  0.52510  0.28731  1.0000
  H   H2921     1.0  0.51503  0.53234  0.40664  1.0000
  H   H2922     1.0  0.68326  0.49223  0.34337  1.0000
  C   C1666     1.0  0.62467  0.56069  0.41926  1.0000
  H   H2923     1.0  0.55414  0.49824  0.48638  1.0000
  C   C1667     1.0  0.69005  0.52841  0.30010  1.0000
  C   C1668     1.0  0.49248  0.39784  0.47179  1.0000
  H   H2924     1.0  0.62511  0.36447  0.42691  1.0000
  H   H2925     1.0  0.61281  0.55392  0.27863  1.0000
  H   H2926     1.0  0.60424  0.33599  0.43784  1.0000
  H   H2927     1.0  0.56114  0.45332  0.34447  1.0000
  C   C1669     1.0  0.66414  0.47017  0.31757  1.0000
  N   N90       1.0  0.64357  0.56006  0.42799  1.0000
  C   C1670     1.0  0.50719  0.48662  0.46163  1.0000
  H   H2928     1.0  0.68086  0.50732  0.28612  1.0000
  H   H2929     1.0  0.52456  0.47227  0.34728  1.0000
  H   H2930     1.0  0.62953  0.58761  0.44184  1.0000
  C   C1671     1.0  0.65336  0.56893  0.45914  1.0000
  C   C1672     1.0  0.66025  0.56994  0.41115  1.0000
  H   H2931     1.0  0.68291  0.34837  0.29784  1.0000
  H   H2932     1.0  0.50968  0.47598  0.43319  1.0000
  H   H2933     1.0  0.50874  0.40107  0.46581  1.0000
  H   H2934     1.0  0.50912  0.56063  0.34718  1.0000
  H   H2935     1.0  0.51008  0.40473  0.31980  1.0000
  H   H2936     1.0  0.72262  0.51055  0.29510  1.0000
  C   C1673     1.0  0.67233  0.60175  0.38495  1.0000
  H   H2937     1.0  0.66635  0.56090  0.39845  1.0000
  C   C1674     1.0  0.50563  0.54600  0.35761  1.0000
  H   H2938     1.0  0.57212  0.37816  0.30800  1.0000
  C   C1675     1.0  0.50924  0.44642  0.36727  1.0000
  H   H2939     1.0  0.49782  0.56294  0.43657  1.0000
  C   C1676     1.0  0.62293  0.57247  0.34198  1.0000
  C   C1677     1.0  0.66912  0.49994  0.42970  1.0000
  H   H2940     1.0  0.50463  0.35927  0.46533  1.0000
  H   H2941     1.0  0.49641  0.52841  0.47113  1.0000
  H   H2942     1.0  0.51682  0.37456  0.44181  1.0000
  H   H2943     1.0  0.56015  0.55678  0.48055  1.0000
  Fe  Fe195     1.0  0.60151  0.33597  0.36932  1.0000
  C   C1678     1.0  0.57903  0.36574  0.29866  1.0000
  H   H2944     1.0  0.67171  0.37288  0.32289  1.0000
  C   C1679     1.0  0.63634  0.57054  0.44661  1.0000
  H   H2945     1.0  0.51346  0.56513  0.47744  1.0000
  C   C1680     1.0  0.50708  0.52443  0.48245  1.0000
  C   C1681     1.0  0.80042  0.63320  0.23954  1.0000
  H   H2946     1.0  0.50908  0.33297  0.42066  1.0000
  S   S388      1.0  0.77208  0.62721  0.27700  1.0000
  C   C1682     1.0  0.64867  0.37998  0.30375  1.0000
  H   H2947     1.0  0.53086  0.46265  0.44701  1.0000
  H   H2948     1.0  0.64004  0.38213  0.40731  1.0000
  C   C1683     1.0  0.52535  0.37912  0.34127  1.0000
  H   H2949     1.0  0.66876  0.33607  0.35829  1.0000
  H   H2950     1.0  0.51859  0.52763  0.43310  1.0000
  S   S389      1.0  0.71728  0.63202  0.31487  1.0000
  S   S390      1.0  0.67509  0.64656  0.29412  1.0000
  H   H2951     1.0  0.73132  0.62808  0.35501  1.0000
  H   H2952     1.0  0.50902  0.45295  0.38083  1.0000
  N   N91       1.0  0.49476  0.35844  0.43732  1.0000
  H   H2953     1.0  0.52882  0.45020  0.33488  1.0000
  H   H2954     1.0  0.64473  0.45348  0.30887  1.0000
  H   H2955     1.0  0.65994  0.38430  0.28871  1.0000
  H   H2956     1.0  0.66686  0.61810  0.37628  1.0000
  H   H2957     1.0  0.59994  0.58215  0.38910  1.0000
  C   C1684     1.0  0.65652  0.52173  0.42120  1.0000
  H   H2958     1.0  0.68125  0.54348  0.29197  1.0000
  H   H2959     1.0  0.52667  0.34912  0.42029  1.0000
  H   H2960     1.0  0.67259  0.46725  0.33045  1.0000
  C   C1685     1.0  0.65357  0.53719  0.43579  1.0000
  H   H2961     1.0  0.57626  0.37252  0.28242  1.0000
  H   H2962     1.0  0.76282  0.64099  0.33253  1.0000
  H   H2963     1.0  0.61157  0.38760  0.41080  1.0000
  H   H2964     1.0  0.63739  0.38767  0.44231  1.0000
  H   H2965     1.0  0.61848  0.33311  0.32338  1.0000
  H   H2966     1.0  0.68551  0.50092  0.42954  1.0000
  H   H2967     1.0  0.61231  0.56697  0.29909  1.0000
  H   H2968     1.0  0.64607  0.60359  0.41115  1.0000
  C   C1686     1.0  0.66326  0.58215  0.33373  1.0000
  H   H2969     1.0  0.66636  0.57680  0.44902  1.0000
  H   H2970     1.0  0.66130  0.49340  0.44604  1.0000
  C   C1687     1.0  0.49790  0.35579  0.33698  1.0000
  H   H2971     1.0  0.55314  0.42856  0.35745  1.0000
  H   H2972     1.0  0.66011  0.55220  0.46568  1.0000
  H   H2973     1.0  0.67434  0.56877  0.41756  1.0000
  H   H2974     1.0  0.63673  0.37274  0.30094  1.0000
  H   H2975     1.0  0.65351  0.60596  0.30755  1.0000
  H   H2976     1.0  0.61782  0.59746  0.31485  1.0000
  H   H2977     1.0  0.61236  0.43069  0.45095  1.0000
  H   H2978     1.0  0.64698  0.54535  0.30380  1.0000
  H   H2979     1.0  0.66493  0.52766  0.40499  1.0000
  H   H2980     1.0  0.55595  0.42495  0.47550  1.0000
  C   C1688     1.0  0.58050  0.39791  0.48637  1.0000
  H   H2981     1.0  0.71301  0.52387  0.27113  1.0000
  H   H2982     1.0  0.50240  0.34624  0.28230  1.0000
  H   H2983     1.0  0.68998  0.49518  0.30966  1.0000
  H   H2984     1.0  0.63003  0.55815  0.40286  1.0000
  H   H2985     1.0  0.66832  0.55735  0.36090  1.0000
  C   C1689     1.0  0.50147  0.36982  0.45024  1.0000
  H   H2986     1.0  0.66993  0.48886  0.41973  1.0000
  H   H2987     1.0  0.67550  0.51829  0.36551  1.0000
  C   C1690     1.0  0.62879  0.58874  0.32499  1.0000
  H   H2988     1.0  0.57876  0.59611  0.40620  1.0000
  H   H2989     1.0  0.76581  0.65237  0.35207  1.0000
  C   C1691     1.0  0.72632  0.64262  0.36146  1.0000
  H   H2990     1.0  0.53844  0.53127  0.35728  1.0000
  H   H2991     1.0  0.79880  0.64456  0.29829  1.0000
  H   H2992     1.0  0.67500  0.49189  0.38112  1.0000
  C   C1692     1.0  0.64895  0.59360  0.32085  1.0000
  H   H2993     1.0  0.54821  0.44913  0.37186  1.0000
  C   C1693     1.0  0.52219  0.32395  0.44800  1.0000
  H   H2994     1.0  0.66952  0.53602  0.43877  1.0000
  H   H2995     1.0  0.49547  0.56707  0.39022  1.0000
  H   H2996     1.0  0.73353  0.34423  0.34424  1.0000
  H   H2997     1.0  0.70872  0.64638  0.36561  1.0000
  N   N92       1.0  0.68384  0.32705  0.32840  1.0000
  H   H2998     1.0  0.54780  0.35456  0.48238  1.0000
  H   H2999     1.0  0.57493  0.46931  0.46299  1.0000
  H   H3000     1.0  0.69080  0.53020  0.31578  1.0000
  N   N93       1.0  0.59977  0.40342  0.47019  1.0000
  C   C1694     1.0  0.60234  0.39328  0.45199  1.0000
  C   C1695     1.0  0.54351  0.60194  0.36757  1.0000
  C   C1696     1.0  0.59752  0.42701  0.46204  1.0000
  C   C1697     1.0  0.51057  0.38854  0.32839  1.0000
  H   H3001     1.0  0.50313  0.38250  0.40954  1.0000
  C   C1698     1.0  0.62322  0.39424  0.43522  1.0000
  C   C1699     1.0  0.59283  0.44024  0.47905  1.0000
  C   C1700     1.0  0.56443  0.34731  0.47894  1.0000
  C   C1701     1.0  0.82733  0.64392  0.30749  1.0000
  H   H3002     1.0  0.64348  0.49355  0.30005  1.0000
  C   C1702     1.0  0.62499  0.38133  0.41910  1.0000
  C   C1703     1.0  0.55885  0.40743  0.47974  1.0000
  H   H3003     1.0  0.58922  0.40081  0.44338  1.0000
  H   H3004     1.0  0.60081  0.37644  0.45780  1.0000
  C   C1704     1.0  0.67202  0.34380  0.31314  1.0000
  H   H3005     1.0  0.76821  0.59748  0.25509  1.0000
  H   H3006     1.0  0.58513  0.43329  0.45238  1.0000
  H   H3007     1.0  0.83503  0.62826  0.30356  1.0000
  H   H3008     1.0  0.60339  0.46748  0.45630  1.0000
  H   H3009     1.0  0.54111  0.61947  0.36366  1.0000
  H   H3010     1.0  0.52056  0.56407  0.41522  1.0000
  H   H3011     1.0  0.74680  0.33013  0.32337  1.0000
  C   C1705     1.0  0.59620  0.33680  0.45382  1.0000
  H   H3012     1.0  0.83280  0.64509  0.32126  1.0000
  H   H3013     1.0  0.62751  0.36281  0.47471  1.0000
  H   H3014     1.0  0.71201  0.33992  0.31311  1.0000
  H   H3015     1.0  0.51420  0.42887  0.37210  1.0000
  C   C1706     1.0  0.56853  0.34665  0.30882  1.0000
  C   C1707     1.0  0.61872  0.39538  0.48046  1.0000
  C   C1708     1.0  0.70272  0.33497  0.32926  1.0000
  C   C1709     1.0  0.78479  0.62208  0.25215  1.0000
  H   H3016     1.0  0.53009  0.48950  0.43185  1.0000
  C   C1710     1.0  0.66906  0.32379  0.34980  1.0000
  H   H3017     1.0  0.55222  0.59540  0.38063  1.0000
  H   H3018     1.0  0.49237  0.53120  0.42799  1.0000
  C   C1711     1.0  0.49669  0.50817  0.38459  1.0000
  C   C1712     1.0  0.78006  0.60628  0.24523  1.0000
  H   H3019     1.0  0.49927  0.44705  0.33012  1.0000
  H   H3020     1.0  0.69739  0.34956  0.33568  1.0000
  H   H3021     1.0  0.51373  0.32994  0.35790  1.0000
  H   H3022     1.0  0.49675  0.47537  0.47067  1.0000
  H   H3023     1.0  0.65997  0.33743  0.30946  1.0000
  C   C1713     1.0  0.58970  0.46389  0.46923  1.0000
  H   H3024     1.0  0.58015  0.33564  0.27949  1.0000
  H   H3025     1.0  0.58842  0.47278  0.48138  1.0000
  C   C1714     1.0  0.60726  0.32809  0.47027  1.0000
  C   C1715     1.0  0.51555  0.33235  0.28041  1.0000
  H   H3026     1.0  0.80417  0.64533  0.24497  1.0000
  H   H3027     1.0  0.63542  0.32902  0.28703  1.0000
  C   C1716     1.0  0.57417  0.54462  0.47784  1.0000
  H   H3028     1.0  0.52962  0.47273  0.48204  1.0000
  H   H3029     1.0  0.50514  0.62093  0.38818  1.0000
  H   H3030     1.0  0.49739  0.51301  0.33682  1.0000
  H   H3031     1.0  0.73252  0.63958  0.37598  1.0000
  H   H3032     1.0  0.65899  0.36919  0.48287  1.0000
  Fe  Fe196     1.0  0.59429  0.50080  0.57744  1.0000
  S   S391      1.0  0.62751  0.50343  0.56068  1.0000
  S   S392      1.0  0.58477  0.47038  0.59649  1.0000
  Fe  Fe197     1.0  0.57650  0.54675  0.56214  1.0000
  S   S393      1.0  0.60804  0.55418  0.54379  1.0000
  S   S394      1.0  0.54522  0.56948  0.56190  1.0000
  Fe  Fe198     1.0  0.61292  0.52372  0.53373  1.0000
  Fe  Fe199     1.0  0.62046  0.53353  0.57213  1.0000
  S   S395      1.0  0.64766  0.54006  0.58185  1.0000
  S   S396      1.0  0.58035  0.51820  0.54933  1.0000
  S   S397      1.0  0.58830  0.52909  0.59160  1.0000
  H   H3033     1.0  0.83485  0.61259  0.69087  1.0000
  H   H3034     1.0  0.73953  0.64224  0.65325  1.0000
  H   H3035     1.0  0.53731  0.33121  0.54804  1.0000
  C   C1717     1.0  0.54512  0.50302  0.50125  1.0000
  H   H3036     1.0  0.77671  0.53805  0.69179  1.0000
  H   H3037     1.0  0.68730  0.57493  0.72151  1.0000
  H   H3038     1.0  0.61573  0.40163  0.49490  1.0000
  H   H3039     1.0  0.52529  0.40863  0.49302  1.0000
  H   H3040     1.0  0.59061  0.64445  0.61685  1.0000
  Fe  Fe200     1.0  0.75390  0.32923  0.65142  1.0000
  Fe  Fe201     1.0  0.65300  0.62194  0.63976  1.0000
  C   C1718     1.0  0.55897  0.49376  0.51765  1.0000
  S   S398      1.0  0.62658  0.61485  0.62927  1.0000
  Fe  Fe202     1.0  0.68858  0.60059  0.66368  1.0000
  S   S399      1.0  0.69554  0.63126  0.66432  1.0000
  Fe  Fe203     1.0  0.66021  0.64227  0.67183  1.0000
  H   H3041     1.0  0.66611  0.41979  0.54293  1.0000
  Fe  Fe204     1.0  0.69194  0.64096  0.63072  1.0000
  H   H3042     1.0  0.69460  0.60282  0.72590  1.0000
  S   S400      1.0  0.65362  0.61052  0.67405  1.0000
  S   S401      1.0  0.68757  0.60927  0.62945  1.0000
  H   H3043     1.0  0.68092  0.47710  0.61699  1.0000
  H   H3044     1.0  0.67971  0.50220  0.63871  1.0000
  C   C1719     1.0  0.72817  0.56839  0.68640  1.0000
  C   C1720     1.0  0.62929  0.48125  0.61749  1.0000
  H   H3045     1.0  0.73314  0.32446  0.70570  1.0000
  H   H3046     1.0  0.71165  0.35007  0.56792  1.0000
  H   H3047     1.0  0.50196  0.46120  0.50546  1.0000
  H   H3048     1.0  0.70702  0.47963  0.65247  1.0000
  C   C1721     1.0  0.64657  0.34630  0.59378  1.0000
  C   C1722     1.0  0.54070  0.40120  0.49778  1.0000
  N   N94       1.0  0.58471  0.62019  0.56723  1.0000
  C   C1723     1.0  0.76973  0.64435  0.65912  1.0000
  S   S402      1.0  0.56856  0.36253  0.53913  1.0000
  C   C1724     1.0  0.58546  0.45416  0.57971  1.0000
  C   C1725     1.0  0.59362  0.45985  0.55811  1.0000
  C   C1726     1.0  0.59474  0.44648  0.54489  1.0000
  C   C1727     1.0  0.58812  0.42719  0.55329  1.0000
  C   C1728     1.0  0.57993  0.42148  0.57489  1.0000
  C   C1729     1.0  0.57842  0.43508  0.58806  1.0000
  H   H3049     1.0  0.59947  0.47434  0.55156  1.0000
  H   H3050     1.0  0.54443  0.58325  0.62845  1.0000
  H   H3051     1.0  0.57455  0.40677  0.58143  1.0000
  H   H3052     1.0  0.57190  0.43078  0.60473  1.0000
  C   C1730     1.0  0.63297  0.59366  0.61655  1.0000
  C   C1731     1.0  0.65270  0.58904  0.60327  1.0000
  C   C1732     1.0  0.65713  0.57244  0.59274  1.0000
  C   C1733     1.0  0.64184  0.56050  0.59541  1.0000
  C   C1734     1.0  0.62218  0.56502  0.60879  1.0000
  C   C1735     1.0  0.61769  0.58169  0.61921  1.0000
  H   H3053     1.0  0.66442  0.59845  0.60089  1.0000
  H   H3054     1.0  0.67226  0.56914  0.58217  1.0000
  H   H3055     1.0  0.61045  0.55566  0.61106  1.0000
  H   H3056     1.0  0.60241  0.58525  0.62948  1.0000
  H   H3057     1.0  0.84623  0.33629  0.67124  1.0000
  H   H3058     1.0  0.52821  0.36119  0.62432  1.0000
  H   H3059     1.0  0.64235  0.48790  0.60582  1.0000
  C   C1736     1.0  0.80045  0.64704  0.62880  1.0000
  S   S403      1.0  0.81852  0.64519  0.73373  1.0000
  H   H3060     1.0  0.70374  0.49359  0.67285  1.0000
  C   C1737     1.0  0.51073  0.56552  0.54948  1.0000
  C   C1738     1.0  0.52675  0.55546  0.56078  1.0000
  C   C1739     1.0  0.52829  0.53404  0.57066  1.0000
  C   C1740     1.0  0.51411  0.52264  0.56896  1.0000
  C   C1741     1.0  0.51401  0.37091  0.63263  1.0000
  H   H3061     1.0  0.57969  0.40244  0.50130  1.0000
  H   H3062     1.0  0.54038  0.52621  0.57977  1.0000
  H   H3063     1.0  0.70833  0.65392  0.72001  1.0000
  C   C1742     1.0  0.71923  0.50938  0.64157  1.0000
  C   C1743     1.0  0.65067  0.41508  0.55071  1.0000
  C   C1744     1.0  0.49474  0.41010  0.54764  1.0000
  H   H3064     1.0  0.51537  0.50613  0.57675  1.0000
  H   H3065     1.0  0.62931  0.60756  0.56416  1.0000
  H   H3066     1.0  0.55067  0.49843  0.53282  1.0000
  H   H3067     1.0  0.63499  0.59141  0.52397  1.0000
  C   C1745     1.0  0.52021  0.33400  0.55257  1.0000
  Fe  Fe205     1.0  0.55808  0.34631  0.57259  1.0000
  H   H3068     1.0  0.57391  0.49981  0.51204  1.0000
  C   C1746     1.0  0.68853  0.51269  0.62544  1.0000
  S   S404      1.0  0.59006  0.41068  0.53639  1.0000
  H   H3069     1.0  0.50464  0.36000  0.64466  1.0000
  H   H3070     1.0  0.69862  0.47803  0.59159  1.0000
  H   H3071     1.0  0.65552  0.45389  0.59282  1.0000
  C   C1747     1.0  0.64019  0.59861  0.53431  1.0000
  H   H3072     1.0  0.81429  0.59794  0.69639  1.0000
  N   N95       1.0  0.64572  0.42382  0.60709  1.0000
  C   C1748     1.0  0.66104  0.41368  0.62162  1.0000
  C   C1749     1.0  0.62508  0.41651  0.61734  1.0000
  C   C1750     1.0  0.65517  0.41740  0.58627  1.0000
  C   C1751     1.0  0.64154  0.44764  0.60323  1.0000
  C   C1752     1.0  0.63508  0.45709  0.62318  1.0000
  C   C1753     1.0  0.68294  0.42019  0.61435  1.0000
  C   C1754     1.0  0.64054  0.42462  0.57008  1.0000
  C   C1755     1.0  0.62546  0.39288  0.61869  1.0000
  C   C1756     1.0  0.60397  0.38712  0.62963  1.0000
  C   C1757     1.0  0.69624  0.41035  0.63120  1.0000
  H   H3073     1.0  0.74765  0.59836  0.70765  1.0000
  H   H3074     1.0  0.66442  0.39622  0.62376  1.0000
  H   H3075     1.0  0.65382  0.41656  0.63773  1.0000
  H   H3076     1.0  0.61969  0.41897  0.63373  1.0000
  H   H3077     1.0  0.61219  0.42635  0.60921  1.0000
  H   H3078     1.0  0.66087  0.39998  0.58876  1.0000
  H   H3079     1.0  0.66957  0.42408  0.57828  1.0000
  H   H3080     1.0  0.62867  0.45470  0.59427  1.0000
  H   H3081     1.0  0.64830  0.45267  0.63163  1.0000
  H   H3082     1.0  0.62109  0.45146  0.63410  1.0000
  H   H3083     1.0  0.69197  0.41447  0.59990  1.0000
  H   H3084     1.0  0.68134  0.43758  0.61107  1.0000
  H   H3085     1.0  0.62511  0.41975  0.57678  1.0000
  H   H3086     1.0  0.62932  0.38936  0.60281  1.0000
  H   H3087     1.0  0.63726  0.38224  0.62772  1.0000
  H   H3088     1.0  0.59167  0.39651  0.62058  1.0000
  H   H3089     1.0  0.60497  0.37008  0.63053  1.0000
  H   H3090     1.0  0.59924  0.38994  0.64587  1.0000
  H   H3091     1.0  0.69880  0.39280  0.63464  1.0000
  H   H3092     1.0  0.71199  0.41486  0.62549  1.0000
  H   H3093     1.0  0.68833  0.41600  0.64594  1.0000
  H   H3094     1.0  0.87282  0.33545  0.69724  1.0000
  H   H3095     1.0  0.50328  0.38145  0.53516  1.0000
  C   C1758     1.0  0.88984  0.33016  0.69793  1.0000
  C   C1759     1.0  0.68853  0.48774  0.60294  1.0000
  H   H3096     1.0  0.64918  0.34730  0.50176  1.0000
  H   H3097     1.0  0.51493  0.50195  0.52299  1.0000
  H   H3098     1.0  0.59313  0.58983  0.58752  1.0000
  C   C1760     1.0  0.60181  0.61433  0.54881  1.0000
  C   C1761     1.0  0.73484  0.47520  0.66458  1.0000
  H   H3099     1.0  0.67612  0.49926  0.59523  1.0000
  S   S405      1.0  0.77799  0.34683  0.65231  1.0000
  H   H3100     1.0  0.85388  0.32652  0.72898  1.0000
  C   C1762     1.0  0.55438  0.62414  0.54788  1.0000
  H   H3101     1.0  0.81451  0.63754  0.61995  1.0000
  H   H3102     1.0  0.60178  0.62035  0.59061  1.0000
  H   H3103     1.0  0.74601  0.46985  0.65071  1.0000
  H   H3104     1.0  0.64002  0.42086  0.53926  1.0000
  H   H3105     1.0  0.54210  0.38375  0.50191  1.0000
  C   C1763     1.0  0.50988  0.34074  0.57127  1.0000
  H   H3106     1.0  0.60113  0.45094  0.52819  1.0000
  H   H3107     1.0  0.63752  0.44211  0.56468  1.0000
  H   H3108     1.0  0.70915  0.50971  0.59449  1.0000
  H   H3109     1.0  0.51965  0.47254  0.55534  1.0000
  C   C1764     1.0  0.89401  0.33454  0.71784  1.0000
  C   C1765     1.0  0.52375  0.49554  0.50882  1.0000
  H   H3110     1.0  0.65307  0.39755  0.55520  1.0000
  C   C1766     1.0  0.74521  0.55113  0.68596  1.0000
  H   H3111     1.0  0.50763  0.45098  0.58991  1.0000
  C   C1767     1.0  0.59352  0.63179  0.57845  1.0000
  H   H3112     1.0  0.54089  0.40660  0.51192  1.0000
  S   S406      1.0  0.52414  0.34517  0.58756  1.0000
  H   H3113     1.0  0.57832  0.43749  0.49106  1.0000
  C   C1768     1.0  0.67958  0.61406  0.72971  1.0000
  C   C1769     1.0  0.74692  0.58516  0.70171  1.0000
  C   C1770     1.0  0.56165  0.60259  0.60148  1.0000
  H   H3114     1.0  0.73650  0.34195  0.57634  1.0000
  C   C1771     1.0  0.71448  0.48926  0.65835  1.0000
  H   H3115     1.0  0.51295  0.59879  0.59360  1.0000
  C   C1772     1.0  0.83197  0.33016  0.67438  1.0000
  H   H3116     1.0  0.67307  0.61877  0.71514  1.0000
  C   C1773     1.0  0.51690  0.42863  0.56850  1.0000
  C   C1774     1.0  0.51297  0.40066  0.60016  1.0000
  H   H3117     1.0  0.91958  0.33691  0.67730  1.0000
  N   N96       1.0  0.50264  0.41368  0.58206  1.0000
  C   C1775     1.0  0.52201  0.44362  0.57971  1.0000
  H   H3118     1.0  0.56712  0.33855  0.51140  1.0000
  H   H3119     1.0  0.67717  0.54365  0.71830  1.0000
  H   H3120     1.0  0.81802  0.35513  0.65129  1.0000
  H   H3121     1.0  0.64376  0.61431  0.52553  1.0000
  H   H3122     1.0  0.50774  0.41700  0.53612  1.0000
  H   H3123     1.0  0.51768  0.38887  0.56483  1.0000
  C   C1776     1.0  0.53169  0.46140  0.56383  1.0000
  H   H3124     1.0  0.53743  0.47035  0.57217  1.0000
  H   H3125     1.0  0.73105  0.46100  0.67670  1.0000
  H   H3126     1.0  0.53236  0.41956  0.56118  1.0000
  H   H3127     1.0  0.52887  0.39152  0.59397  1.0000
  C   C1777     1.0  0.79757  0.33296  0.66690  1.0000
  H   H3128     1.0  0.56315  0.47625  0.52018  1.0000
  C   C1778     1.0  0.67177  0.34789  0.61329  1.0000
  H   H3129     1.0  0.66164  0.56356  0.67396  1.0000
  H   H3130     1.0  0.64007  0.35157  0.57973  1.0000
  H   H3131     1.0  0.53379  0.43472  0.58954  1.0000
  C   C1779     1.0  0.57777  0.64935  0.58902  1.0000
  C   C1780     1.0  0.58939  0.53981  0.49025  1.0000
  H   H3132     1.0  0.89760  0.35945  0.67699  1.0000
  H   H3133     1.0  0.52733  0.47808  0.51476  1.0000
  H   H3134     1.0  0.74264  0.48389  0.67128  1.0000
  H   H3135     1.0  0.71500  0.48729  0.61538  1.0000
  S   S407      1.0  0.62748  0.51916  0.50087  1.0000
  H   H3136     1.0  0.91144  0.33129  0.71668  1.0000
  C   C1781     1.0  0.50044  0.38514  0.61710  1.0000
  C   C1782     1.0  0.76420  0.56814  0.70062  1.0000
  C   C1783     1.0  0.70549  0.63916  0.71772  1.0000
  H   H3137     1.0  0.50967  0.43902  0.55523  1.0000
  S   S408      1.0  0.70616  0.56826  0.67683  1.0000
  H   H3138     1.0  0.71615  0.59896  0.69417  1.0000
  C   C1784     1.0  0.82557  0.60604  0.68357  1.0000
  H   H3139     1.0  0.57086  0.57011  0.61854  1.0000
  Fe  Fe206     1.0  0.78310  0.58774  0.73170  1.0000
  N   N97       1.0  0.70042  0.52412  0.63354  1.0000
  C   C1785     1.0  0.68562  0.53325  0.65151  1.0000
  C   C1786     1.0  0.70824  0.54122  0.61564  1.0000
  C   C1787     1.0  0.71941  0.55595  0.62128  1.0000
  C   C1788     1.0  0.66713  0.55157  0.64564  1.0000
  C   C1789     1.0  0.65255  0.55842  0.66529  1.0000
  C   C1790     1.0  0.72558  0.57315  0.60206  1.0000
  H   H3140     1.0  0.67606  0.52420  0.61767  1.0000
  H   H3141     1.0  0.67828  0.52074  0.66350  1.0000
  H   H3142     1.0  0.69451  0.53893  0.66001  1.0000
  H   H3143     1.0  0.69502  0.55124  0.60807  1.0000
  H   H3144     1.0  0.71986  0.53412  0.60300  1.0000
  H   H3145     1.0  0.73414  0.54698  0.62674  1.0000
  H   H3146     1.0  0.70900  0.56387  0.63382  1.0000
  H   H3147     1.0  0.67323  0.56561  0.63542  1.0000
  H   H3148     1.0  0.65737  0.54681  0.63741  1.0000
  H   H3149     1.0  0.64512  0.54525  0.67581  1.0000
  C   C1791     1.0  0.50177  0.39908  0.56883  1.0000
  H   H3150     1.0  0.63979  0.57195  0.66065  1.0000
  H   H3151     1.0  0.73712  0.56603  0.58941  1.0000
  H   H3152     1.0  0.71136  0.58275  0.59590  1.0000
  H   H3153     1.0  0.73298  0.58389  0.60656  1.0000
  C   C1792     1.0  0.56598  0.63439  0.55847  1.0000
  S   S409      1.0  0.61639  0.35104  0.54933  1.0000
  H   H3154     1.0  0.50958  0.58201  0.54163  1.0000
  C   C1793     1.0  0.90228  0.34212  0.67785  1.0000
  N   N98       1.0  0.78693  0.63245  0.64446  1.0000
  C   C1794     1.0  0.77832  0.62147  0.63263  1.0000
  C   C1795     1.0  0.81601  0.34082  0.66311  1.0000
  C   C1796     1.0  0.80129  0.61569  0.65737  1.0000
  H   H3155     1.0  0.52848  0.63257  0.53147  1.0000
  H   H3156     1.0  0.51580  0.41096  0.60914  1.0000
  C   C1797     1.0  0.76721  0.60319  0.64631  1.0000
  C   C1798     1.0  0.81363  0.62400  0.66898  1.0000
  H   H3157     1.0  0.50593  0.61642  0.61151  1.0000
  H   H3158     1.0  0.65494  0.58815  0.53874  1.0000
  H   H3159     1.0  0.66972  0.36613  0.58200  1.0000
  C   C1799     1.0  0.75395  0.59728  0.63423  1.0000
  H   H3160     1.0  0.58177  0.38046  0.49077  1.0000
  H   H3161     1.0  0.79132  0.61476  0.62057  1.0000
  H   H3162     1.0  0.76685  0.63278  0.62358  1.0000
  Fe  Fe207     1.0  0.60177  0.33589  0.58207  1.0000
  C   C1800     1.0  0.66378  0.33257  0.62999  1.0000
  H   H3163     1.0  0.81313  0.60550  0.64728  1.0000
  H   H3164     1.0  0.79199  0.60490  0.66977  1.0000
  H   H3165     1.0  0.76562  0.63374  0.67482  1.0000
  H   H3166     1.0  0.88879  0.35191  0.71661  1.0000
  H   H3167     1.0  0.54688  0.61175  0.55974  1.0000
  C   C1801     1.0  0.49763  0.53988  0.49761  1.0000
  H   H3168     1.0  0.77919  0.58886  0.65105  1.0000
  H   H3169     1.0  0.75669  0.60767  0.66077  1.0000
  H   H3170     1.0  0.80255  0.63474  0.67874  1.0000
  H   H3171     1.0  0.82565  0.63251  0.65768  1.0000
  H   H3172     1.0  0.51917  0.38051  0.64073  1.0000
  C   C1802     1.0  0.49822  0.53262  0.55748  1.0000
  H   H3173     1.0  0.54540  0.45483  0.55237  1.0000
  H   H3174     1.0  0.59654  0.60498  0.54052  1.0000
  Fe  Fe208     1.0  0.59634  0.33526  0.53892  1.0000
  S   S410      1.0  0.78749  0.56809  0.70804  1.0000
  S   S411      1.0  0.69239  0.35870  0.61491  1.0000
  H   H3175     1.0  0.62604  0.48769  0.63182  1.0000
  H   H3176     1.0  0.74722  0.58337  0.64386  1.0000
  H   H3177     1.0  0.74059  0.61062  0.63069  1.0000
  H   H3178     1.0  0.76385  0.59323  0.61927  1.0000
  H   H3179     1.0  0.51638  0.32498  0.52556  1.0000
  H   H3180     1.0  0.73451  0.33519  0.55290  1.0000
  H   H3181     1.0  0.83661  0.59438  0.67470  1.0000
  S   S412      1.0  0.71934  0.33865  0.66531  1.0000
  C   C1803     1.0  0.55649  0.58117  0.61390  1.0000
  H   H3182     1.0  0.56515  0.61703  0.53492  1.0000
  C   C1804     1.0  0.57911  0.60004  0.58162  1.0000
  S   S413      1.0  0.57456  0.36334  0.58585  1.0000
  H   H3183     1.0  0.55014  0.57405  0.60434  1.0000
  C   C1805     1.0  0.57542  0.33848  0.49537  1.0000
  H   H3184     1.0  0.60522  0.62894  0.53699  1.0000
  H   H3185     1.0  0.61481  0.48648  0.61079  1.0000
  H   H3186     1.0  0.72664  0.51777  0.64905  1.0000
  H   H3187     1.0  0.75458  0.32762  0.71543  1.0000
  H   H3188     1.0  0.54323  0.65315  0.52619  1.0000
  H   H3189     1.0  0.56724  0.60911  0.61207  1.0000
  C   C1806     1.0  0.68509  0.63402  0.73267  1.0000
  C   C1807     1.0  0.62317  0.60076  0.55422  1.0000
  H   H3190     1.0  0.74462  0.53791  0.67995  1.0000
  C   C1808     1.0  0.72909  0.58548  0.69413  1.0000
  Fe  Fe209     1.0  0.58758  0.37701  0.55208  1.0000
  C   C1809     1.0  0.70206  0.49939  0.60910  1.0000
  H   H3191     1.0  0.73189  0.50449  0.62831  1.0000
  C   C1810     1.0  0.76334  0.55120  0.69266  1.0000
  H   H3192     1.0  0.57476  0.59044  0.57283  1.0000
  H   H3193     1.0  0.62118  0.58453  0.56270  1.0000
  C   C1811     1.0  0.66324  0.35467  0.59515  1.0000
  H   H3194     1.0  0.64410  0.37254  0.50883  1.0000
  C   C1812     1.0  0.50303  0.60179  0.60898  1.0000
  H   H3195     1.0  0.54687  0.61310  0.59737  1.0000
  C   C1813     1.0  0.66460  0.55670  0.72370  1.0000
  H   H3196     1.0  0.71919  0.62622  0.72106  1.0000
  H   H3197     1.0  0.61253  0.36509  0.50069  1.0000
  H   H3198     1.0  0.49511  0.37474  0.61015  1.0000
  H   H3199     1.0  0.58716  0.54836  0.50245  1.0000
  H   H3200     1.0  0.89884  0.33884  0.66391  1.0000
  H   H3201     1.0  0.50780  0.58835  0.62178  1.0000
  Fe  Fe210     1.0  0.71395  0.33535  0.63497  1.0000
  H   H3202     1.0  0.65838  0.56704  0.70983  1.0000
  H   H3203     1.0  0.50707  0.53678  0.50978  1.0000
  H   H3204     1.0  0.57103  0.64849  0.54692  1.0000
  C   C1814     1.0  0.59696  0.32927  0.49103  1.0000
  H   H3205     1.0  0.55346  0.64072  0.57096  1.0000
  H   H3206     1.0  0.67004  0.32755  0.64418  1.0000
  C   C1815     1.0  0.53667  0.64046  0.53862  1.0000
  H   H3207     1.0  0.49068  0.57352  0.49683  1.0000
  H   H3208     1.0  0.52483  0.64758  0.55112  1.0000
  H   H3209     1.0  0.49116  0.46894  0.53009  1.0000
  H   H3210     1.0  0.54236  0.52050  0.49851  1.0000
  S   S414      1.0  0.77166  0.62291  0.72702  1.0000
  C   C1816     1.0  0.72592  0.33720  0.56897  1.0000
  H   H3211     1.0  0.70416  0.64157  0.70115  1.0000
  C   C1817     1.0  0.64734  0.32395  0.62848  1.0000
  C   C1818     1.0  0.67394  0.56933  0.73354  1.0000
  C   C1819     1.0  0.64562  0.36472  0.49576  1.0000
  H   H3212     1.0  0.56340  0.64388  0.59917  1.0000
  H   H3213     1.0  0.60599  0.63998  0.56731  1.0000
  N   N99       1.0  0.51031  0.50113  0.49254  1.0000
  H   H3214     1.0  0.49130  0.38780  0.57774  1.0000
  H   H3215     1.0  0.64818  0.59617  0.72813  1.0000
  C   C1820     1.0  0.50837  0.33045  0.53989  1.0000
  C   C1821     1.0  0.49666  0.55405  0.54766  1.0000
  S   S415      1.0  0.74843  0.32908  0.62006  1.0000
  H   H3216     1.0  0.67220  0.64791  0.72955  1.0000
  C   C1822     1.0  0.63865  0.33088  0.61043  1.0000
  S   S416      1.0  0.71807  0.65398  0.60599  1.0000
  H   H3217     1.0  0.85426  0.65525  0.70170  1.0000
  C   C1823     1.0  0.62505  0.37102  0.48765  1.0000
  H   H3218     1.0  0.80681  0.65561  0.63701  1.0000
  C   C1824     1.0  0.74839  0.65458  0.65200  1.0000
  S   S417      1.0  0.65693  0.65480  0.63812  1.0000
  S   S418      1.0  0.64372  0.65546  0.70060  1.0000
  H   H3219     1.0  0.65163  0.54982  0.73533  1.0000
  H   H3220     1.0  0.49209  0.38573  0.48678  1.0000
  H   H3221     1.0  0.63106  0.57163  0.48888  1.0000
  H   H3222     1.0  0.60627  0.43626  0.48716  1.0000
  H   H3223     1.0  0.65617  0.57823  0.48660  1.0000
  C   C1825     1.0  0.60763  0.52424  0.48658  1.0000
  Fe  Fe211     1.0  0.92763  0.35805  0.82845  1.0000
  S   S419      1.0  0.93797  0.34684  0.85934  1.0000
  S   S420      1.0  0.92364  0.39232  0.81228  1.0000
  H   H3224     1.0  0.70305  0.57301  0.75252  1.0000
  H   H3225     1.0  0.97275  0.39761  0.96178  1.0000
  Fe  Fe212     1.0  0.89206  0.51160  0.89822  1.0000
  S   S421      1.0  0.91351  0.52867  0.87128  1.0000
  Fe  Fe213     1.0  0.89527  0.47682  0.87578  1.0000
  S   S422      1.0  0.91723  0.49076  0.84707  1.0000
  S   S423      1.0  0.88438  0.44626  0.88201  1.0000
  Fe  Fe214     1.0  0.93332  0.49627  0.86973  1.0000
  S   S424      1.0  0.96837  0.48605  0.86808  1.0000
  Fe  Fe215     1.0  0.89531  0.52167  0.85114  1.0000
  S   S425      1.0  0.88709  0.54549  0.82225  1.0000
  S   S426      1.0  0.91318  0.47976  0.89817  1.0000
  S   S427      1.0  0.87203  0.50727  0.87835  1.0000
  H   H3226     1.0  0.96573  0.59503  0.94878  1.0000
  Fe  Fe216     1.0  0.78859  0.58234  0.77628  1.0000
  H   H3227     1.0  0.80215  0.49984  0.77967  1.0000
  S   S428      1.0  0.79556  0.55839  0.80553  1.0000
  Fe  Fe217     1.0  0.75278  0.61552  0.75999  1.0000
  C   C1826     1.0  0.89420  0.40093  0.93136  1.0000
  S   S429      1.0  0.71857  0.63077  0.76789  1.0000
  C   C1827     1.0  0.93330  0.45584  0.94302  1.0000
  H   H3228     1.0  0.82954  0.32397  0.87704  1.0000
  C   C1828     1.0  0.94050  0.61169  0.92285  1.0000
  H   H3229     1.0  0.85994  0.45197  0.92549  1.0000
  C   C1829     1.0  0.89736  0.46439  0.96650  1.0000
  S   S430      1.0  0.77761  0.61700  0.77596  1.0000
  H   H3230     1.0  0.68669  0.63197  0.74902  1.0000
  H   H3231     1.0  0.91590  0.56634  0.88689  1.0000
  H   H3232     1.0  0.91114  0.59067  0.94512  1.0000
  H   H3233     1.0  0.81695  0.32949  0.75044  1.0000
  H   H3234     1.0  0.80058  0.65277  0.81486  1.0000
  C   C1830     1.0  0.95891  0.37455  0.90159  1.0000
  H   H3235     1.0  0.92130  0.40699  0.89192  1.0000
  H   H3236     1.0  0.71947  0.33065  0.74133  1.0000
  H   H3237     1.0  0.87635  0.49746  0.77779  1.0000
  C   C1831     1.0  0.96471  0.58220  0.94167  1.0000
  C   C1832     1.0  0.96396  0.40636  0.91095  1.0000
  C   C1833     1.0  0.91003  0.52669  0.97018  1.0000
  H   H3238     1.0  0.84284  0.45840  0.87161  1.0000
  H   H3239     1.0  0.84943  0.33994  0.86598  1.0000
  H   H3240     1.0  0.96393  0.56798  0.95483  1.0000
  C   C1834     1.0  0.84964  0.46590  0.93150  1.0000
  H   H3241     1.0  0.86449  0.51542  0.79483  1.0000
  H   H3242     1.0  0.93433  0.43699  0.87207  1.0000
  C   C1835     1.0  0.89122  0.32672  0.75604  1.0000
  H   H3243     1.0  0.81419  0.51402  0.75443  1.0000
  C   C1836     1.0  0.93560  0.52049  0.93849  1.0000
  C   C1837     1.0  0.98616  0.57603  0.92660  1.0000
  C   C1838     1.0  0.86209  0.54753  0.81724  1.0000
  C   C1839     1.0  0.84611  0.53946  0.83297  1.0000
  C   C1840     1.0  0.82583  0.54246  0.82906  1.0000
  C   C1841     1.0  0.82142  0.55367  0.80943  1.0000
  C   C1842     1.0  0.83749  0.56136  0.79352  1.0000
  C   C1843     1.0  0.85783  0.55818  0.79740  1.0000
  H   H3244     1.0  0.84912  0.53142  0.84834  1.0000
  H   H3245     1.0  0.81340  0.53654  0.84143  1.0000
  H   H3246     1.0  0.83424  0.56991  0.77830  1.0000
  H   H3247     1.0  0.87021  0.56431  0.78511  1.0000
  H   H3248     1.0  0.84607  0.57409  0.88282  1.0000
  C   C1844     1.0  0.86028  0.47261  0.94545  1.0000
  S   S431      1.0  0.76178  0.58040  0.76319  1.0000
  H   H3249     1.0  0.97754  0.43657  0.84155  1.0000
  C   C1845     1.0  0.88495  0.34970  0.75947  1.0000
  H   H3250     1.0  0.87410  0.57154  0.87206  1.0000
  H   H3251     1.0  0.94069  0.57511  0.87697  1.0000
  H   H3252     1.0  0.94231  0.44729  0.93047  1.0000
  H   H3253     1.0  0.95793  0.53123  0.85185  1.0000
  C   C1846     1.0  0.91199  0.40759  0.83129  1.0000
  C   C1847     1.0  0.91390  0.42873  0.82682  1.0000
  C   C1848     1.0  0.90530  0.44075  0.84229  1.0000
  C   C1849     1.0  0.89450  0.43180  0.86212  1.0000
  C   C1850     1.0  0.89204  0.41085  0.86635  1.0000
  C   C1851     1.0  0.90095  0.39869  0.85103  1.0000
  H   H3254     1.0  0.92245  0.43563  0.81156  1.0000
  H   H3255     1.0  0.90711  0.45688  0.83887  1.0000
  H   H3256     1.0  0.88358  0.40384  0.88162  1.0000
  H   H3257     1.0  0.89919  0.38243  0.85451  1.0000
  H   H3258     1.0  0.81980  0.49509  0.84189  1.0000
  C   C1852     1.0  0.89419  0.35151  0.77727  1.0000
  H   H3259     1.0  0.92260  0.50445  0.79395  1.0000
  H   H3260     1.0  0.68081  0.32944  0.83149  1.0000
  H   H3261     1.0  0.95173  0.51873  0.92952  1.0000
  H   H3262     1.0  0.81660  0.47396  0.87766  1.0000
  C   C1853     1.0  0.70495  0.57168  0.78413  1.0000
  H   H3263     1.0  0.96350  0.37977  0.93895  1.0000
  H   H3264     1.0  0.84098  0.48535  0.76993  1.0000
  H   H3265     1.0  0.83921  0.48612  0.87172  1.0000
  H   H3266     1.0  0.72206  0.56436  0.78095  1.0000
  H   H3267     1.0  0.84612  0.51126  0.76717  1.0000
  H   H3268     1.0  0.87729  0.41940  0.80720  1.0000
  H   H3269     1.0  0.82563  0.46757  0.84141  1.0000
  C   C1854     1.0  0.96062  0.39730  0.93500  1.0000
  H   H3270     1.0  0.85591  0.49789  0.83288  1.0000
  C   C1855     1.0  0.93101  0.52403  0.95889  1.0000
  H   H3271     1.0  0.88037  0.45630  0.80559  1.0000
  H   H3272     1.0  0.85110  0.44194  0.82990  1.0000
  C   C1856     1.0  0.97574  0.40381  0.94448  1.0000
  C   C1857     1.0  0.92636  0.58393  0.95055  1.0000
  H   H3273     1.0  0.86752  0.46441  0.78422  1.0000
  H   H3274     1.0  0.90689  0.34429  0.96041  1.0000
  H   H3275     1.0  0.87512  0.47720  0.93552  1.0000
  H   H3276     1.0  0.86095  0.42852  0.78763  1.0000
  H   H3277     1.0  0.88986  0.49745  0.81809  1.0000
  C   C1858     1.0  0.97036  0.52793  0.86050  1.0000
  H   H3278     1.0  0.84965  0.48683  0.95061  1.0000
  H   H3279     1.0  0.85128  0.41346  0.81338  1.0000
  H   H3280     1.0  0.92701  0.56663  0.95576  1.0000
  H   H3281     1.0  0.88547  0.40618  0.91831  1.0000
  H   H3282     1.0  0.67864  0.34087  0.80450  1.0000
  H   H3283     1.0  0.95961  0.57788  0.90325  1.0000
  H   H3284     1.0  0.90100  0.47698  0.80345  1.0000
  C   C1859     1.0  0.69826  0.58387  0.76345  1.0000
  H   H3285     1.0  0.84689  0.47906  0.91778  1.0000
  H   H3286     1.0  0.81987  0.34916  0.76285  1.0000
  S   S432      1.0  0.87798  0.52210  0.92879  1.0000
  S   S433      1.0  0.81088  0.58697  0.74495  1.0000
  H   H3287     1.0  0.98740  0.58606  0.91057  1.0000
  S   S434      1.0  0.95108  0.33278  0.81373  1.0000
  H   H3288     1.0  0.59696  0.62594  0.78996  1.0000
  H   H3289     1.0  0.90083  0.52433  0.78550  1.0000
  H   H3290     1.0  0.95192  0.55786  0.92466  1.0000
  H   H3291     1.0  0.74017  0.65244  0.78506  1.0000
  N   N100      1.0  0.95271  0.39831  0.89894  1.0000
  H   H3292     1.0  0.98331  0.33424  0.91661  1.0000
  C   C1860     1.0  0.93503  0.32810  0.94244  1.0000
  C   C1861     1.0  0.97882  0.54456  0.86181  1.0000
  H   H3293     1.0  0.95798  0.44093  0.87712  1.0000
  H   H3294     1.0  0.87280  0.43980  0.95892  1.0000
  H   H3295     1.0  0.94254  0.45178  0.95555  1.0000
  H   H3296     1.0  0.75411  0.60771  0.84670  1.0000
  S   S435      1.0  0.95258  0.33023  0.95673  1.0000
  C   C1862     1.0  0.67412  0.59353  0.76726  1.0000
  H   H3297     1.0  0.92475  0.38438  0.93744  1.0000
  C   C1863     1.0  0.85851  0.57277  0.86835  1.0000
  H   H3298     1.0  0.97337  0.42129  0.94147  1.0000
  H   H3299     1.0  0.80766  0.52562  0.77706  1.0000
  S   S436      1.0  0.95156  0.52672  0.96913  1.0000
  H   H3300     1.0  0.86851  0.63118  0.76995  1.0000
  H   H3301     1.0  0.63258  0.60262  0.78526  1.0000
  H   H3302     1.0  0.93916  0.62111  0.93457  1.0000
  C   C1864     1.0  0.85433  0.59208  0.85058  1.0000
  H   H3303     1.0  0.95073  0.36929  0.89201  1.0000
  H   H3304     1.0  0.67183  0.60529  0.77705  1.0000
  H   H3305     1.0  0.66567  0.58094  0.77760  1.0000
  H   H3306     1.0  0.88773  0.34140  0.79238  1.0000
  C   C1865     1.0  0.92891  0.40520  0.90534  1.0000
  H   H3307     1.0  0.91313  0.50303  0.77175  1.0000
  H   H3308     1.0  0.93147  0.47308  0.93611  1.0000
  H   H3309     1.0  0.89106  0.36088  0.74506  1.0000
  H   H3310     1.0  0.85896  0.55804  0.86353  1.0000
  H   H3311     1.0  0.91865  0.59346  0.90443  1.0000
  C   C1866     1.0  0.85983  0.61963  0.76870  1.0000
  H   H3312     1.0  0.86613  0.47036  0.83647  1.0000
  H   H3313     1.0  0.89476  0.48066  0.95661  1.0000
  C   C1867     1.0  0.98296  0.36529  0.89578  1.0000
  H   H3314     1.0  0.78369  0.62312  0.84758  1.0000
  H   H3315     1.0  0.85464  0.60616  0.85605  1.0000
  C   C1868     1.0  0.93101  0.56627  0.89091  1.0000
  H   H3316     1.0  0.83476  0.45139  0.81026  1.0000
  N   N101      1.0  0.82688  0.61229  0.82702  1.0000
  C   C1869     1.0  0.80702  0.60955  0.82218  1.0000
  C   C1870     1.0  0.84507  0.61114  0.80810  1.0000
  C   C1871     1.0  0.83266  0.59414  0.84487  1.0000
  C   C1872     1.0  0.82353  0.63262  0.83414  1.0000
  C   C1873     1.0  0.86452  0.45448  0.96471  1.0000
  C   C1874     1.0  0.78737  0.60907  0.84058  1.0000
  H   H3317     1.0  0.63861  0.62912  0.73957  1.0000
  H   H3318     1.0  0.84431  0.32472  0.85022  1.0000
  H   H3319     1.0  0.77050  0.59502  0.82592  1.0000
  H   H3320     1.0  0.70231  0.58257  0.79485  1.0000
  C   C1875     1.0  0.76772  0.60886  0.83311  1.0000
  H   H3321     1.0  0.90447  0.45036  0.93878  1.0000
  H   H3322     1.0  0.81028  0.59451  0.81673  1.0000
  H   H3323     1.0  0.80210  0.62209  0.80883  1.0000
  H   H3324     1.0  0.85721  0.61950  0.80877  1.0000
  H   H3325     1.0  0.85359  0.59448  0.80843  1.0000
  H   H3326     1.0  0.83275  0.57889  0.84120  1.0000
  H   H3327     1.0  0.82054  0.59526  0.85963  1.0000
  C   C1876     1.0  0.95710  0.61988  0.90356  1.0000
  H   H3328     1.0  0.83864  0.63459  0.83669  1.0000
  H   H3329     1.0  0.61743  0.64077  0.78497  1.0000
  C   C1877     1.0  0.81544  0.65324  0.81897  1.0000
  H   H3330     1.0  0.79003  0.59454  0.85303  1.0000
  H   H3331     1.0  0.95438  0.45717  0.84060  1.0000
  H   H3332     1.0  0.98224  0.47606  0.98017  1.0000
  C   C1878     1.0  0.83967  0.61914  0.78585  1.0000
  H   H3333     1.0  0.83108  0.60830  0.78307  1.0000
  C   C1879     1.0  0.97849  0.50706  0.86980  1.0000
  H   H3334     1.0  0.60405  0.64243  0.76426  1.0000
  H   H3335     1.0  0.92371  0.60945  0.96688  1.0000
  H   H3336     1.0  0.87035  0.60371  0.76993  1.0000
  C   C1880     1.0  0.68999  0.33302  0.81508  1.0000
  C   C1881     1.0  0.84526  0.32480  0.86638  1.0000
  H   H3337     1.0  0.96155  0.64858  0.88006  1.0000
  H   H3338     1.0  0.76347  0.62363  0.82142  1.0000
  Fe  Fe218     1.0  0.91299  0.32741  0.86819  1.0000
  C   C1882     1.0  0.65689  0.58780  0.74108  1.0000
  C   C1883     1.0  0.89368  0.52624  0.96086  1.0000
  H   H3339     1.0  0.95419  0.43191  0.83605  1.0000
  C   C1884     1.0  0.91174  0.44952  0.95206  1.0000
  N   N102      1.0  0.85601  0.48465  0.80678  1.0000
  C   C1885     1.0  0.83519  0.49511  0.80006  1.0000
  C   C1886     1.0  0.85354  0.48313  0.83012  1.0000
  C   C1887     1.0  0.87181  0.49851  0.79465  1.0000
  C   C1888     1.0  0.86459  0.46313  0.80148  1.0000
  C   C1889     1.0  0.85123  0.44605  0.81277  1.0000
  C   C1890     1.0  0.83560  0.50003  0.77611  1.0000
  C   C1891     1.0  0.89287  0.49374  0.80239  1.0000
  C   C1892     1.0  0.83167  0.48008  0.84452  1.0000
  C   C1893     1.0  0.83272  0.47433  0.86779  1.0000
  C   C1894     1.0  0.86081  0.42567  0.80467  1.0000
  C   C1895     1.0  0.81353  0.51047  0.77164  1.0000
  C   C1896     1.0  0.90824  0.50724  0.78742  1.0000
  H   H3340     1.0  0.82895  0.51043  0.80523  1.0000
  H   H3341     1.0  0.82292  0.48551  0.80793  1.0000
  H   H3342     1.0  0.87744  0.52870  0.96943  1.0000
  C   C1897     1.0  0.94684  0.57485  0.91730  1.0000
  H   H3343     1.0  0.91648  0.37613  0.91818  1.0000
  H   H3344     1.0  0.93962  0.54963  0.89477  1.0000
  H   H3345     1.0  0.94425  0.40370  0.94277  1.0000
  N   N103      1.0  0.94493  0.58834  0.93268  1.0000
  H   H3346     1.0  0.83414  0.46192  0.94040  1.0000
  H   H3347     1.0  0.69597  0.55886  0.79198  1.0000
  H   H3348     1.0  0.98127  0.40387  0.90411  1.0000
  H   H3349     1.0  0.89391  0.41483  0.93747  1.0000
  C   C1898     1.0  0.92635  0.57675  0.90955  1.0000
  H   H3350     1.0  0.97683  0.40473  0.87065  1.0000
  H   H3351     1.0  0.94560  0.65315  0.90512  1.0000
  H   H3352     1.0  0.92318  0.51655  0.91374  1.0000
  H   H3353     1.0  0.70025  0.34403  0.81423  1.0000
  C   C1899     1.0  0.90845  0.32582  0.91736  1.0000
  C   C1900     1.0  0.89993  0.33512  0.93489  1.0000
  H   H3354     1.0  0.92479  0.61653  0.91836  1.0000
  H   H3355     1.0  0.91490  0.56872  0.92237  1.0000
  H   H3356     1.0  0.96779  0.48493  0.94903  1.0000
  C   C1901     1.0  0.91937  0.51949  0.92942  1.0000
  H   H3357     1.0  0.91454  0.43280  0.96063  1.0000
  H   H3358     1.0  0.81259  0.63205  0.84980  1.0000
  C   C1902     1.0  0.91702  0.39013  0.92374  1.0000
  H   H3359     1.0  0.86771  0.59017  0.83696  1.0000
  H   H3360     1.0  0.98460  0.48535  0.92339  1.0000
  C   C1903     1.0  0.89836  0.52271  0.94044  1.0000
  C   C1904     1.0  0.95928  0.40791  0.87577  1.0000
  C   C1905     1.0  0.95999  0.43984  0.84531  1.0000
  H   H3361     1.0  0.95331  0.40042  0.86613  1.0000
  H   H3362     1.0  0.97289  0.56063  0.85420  1.0000
  C   C1906     1.0  0.92432  0.59219  0.97060  1.0000
  H   H3363     1.0  0.98379  0.35111  0.83595  1.0000
  H   H3364     1.0  0.96081  0.61072  0.89115  1.0000
  H   H3365     1.0  0.98946  0.37128  0.87900  1.0000
  H   H3366     1.0  0.97183  0.61925  0.90859  1.0000
  C   C1907     1.0  0.95185  0.43227  0.86889  1.0000
  H   H3367     1.0  0.72391  0.33024  0.78361  1.0000
  H   H3368     1.0  0.88605  0.38962  0.94422  1.0000
  H   H3369     1.0  0.91175  0.34661  0.77381  1.0000
  H   H3370     1.0  0.92477  0.42121  0.90904  1.0000
  H   H3371     1.0  0.90691  0.46508  0.97740  1.0000
  H   H3372     1.0  0.95347  0.36629  0.91802  1.0000
  C   C1908     1.0  0.82251  0.33193  0.76361  1.0000
  C   C1909     1.0  0.61034  0.63171  0.77797  1.0000
  H   H3373     1.0  0.97786  0.33616  0.89102  1.0000
  S   S437      1.0  0.89245  0.32534  0.90067  1.0000
  H   H3374     1.0  0.95881  0.42375  0.90904  1.0000
  C   C1910     1.0  0.62683  0.61292  0.77114  1.0000
  H   H3375     1.0  0.88999  0.36815  0.77916  1.0000
  S   S438      1.0  0.90072  0.34089  0.83825  1.0000
  H   H3376     1.0  0.68001  0.55821  0.74713  1.0000
  C   C1911     1.0  0.98220  0.47632  0.93990  1.0000
  H   H3377     1.0  0.98821  0.55948  0.92499  1.0000
  H   H3378     1.0  0.86750  0.35483  0.76380  1.0000
  N   N104      1.0  0.66447  0.60367  0.74806  1.0000
  H   H3379     1.0  0.97964  0.46048  0.94027  1.0000
  H   H3380     1.0  0.88318  0.34189  0.93840  1.0000
  H   H3381     1.0  0.82957  0.63517  0.78376  1.0000
  Fe  Fe219     1.0  0.93954  0.34386  0.98558  1.0000
  H   H3382     1.0  0.85567  0.62447  0.75294  1.0000
  C   C1912     1.0  0.91330  0.33651  0.94730  1.0000
  H   H3383     1.0  0.64541  0.58008  0.75411  1.0000
  C   C1913     1.0  0.98720  0.34123  0.89953  1.0000
  H   H3384     1.0  0.70753  0.59655  0.75654  1.0000
  H   H3385     1.0  0.61856  0.60406  0.76519  1.0000
  H   H3386     1.0  0.93466  0.64465  0.88755  1.0000
  C   C1914     1.0  0.64532  0.62055  0.75371  1.0000
  H   H3387     1.0  0.64989  0.63272  0.75913  1.0000
  C   C1915     1.0  0.94914  0.64299  0.89354  1.0000
  H   H3388     1.0  0.88988  0.59687  0.98022  1.0000
  Fe  Fe220     1.0  0.79743  0.62160  0.74328  1.0000
  H   H3389     1.0  0.87097  0.33708  0.98157  1.0000
  C   C1916     1.0  0.85963  0.33069  0.74111  1.0000
  H   H3390     1.0  0.93784  0.58405  0.97845  1.0000
  H   H3391     1.0  0.86166  0.49156  0.97654  1.0000
  N   N105      1.0  0.87658  0.45851  0.97879  1.0000
  H   H3392     1.0  0.84872  0.45145  0.97379  1.0000
  H   H3393     1.0  0.70387  0.32312  0.77599  1.0000
  H   H3394     1.0  0.90632  0.52955  0.98586  1.0000
  H   H3395     1.0  0.85061  0.32463  0.77595  1.0000
  H   H3396     1.0  0.81303  0.32453  0.77870  1.0000
  H   H3397     1.0  0.85554  0.34828  0.73805  1.0000
  N   N106      1.0  0.88326  0.32284  0.73870  1.0000
  H   H3398     1.0  0.84976  0.32312  0.98585  1.0000
  C   C1917     1.0  0.84961  0.67483  0.21659  1.0000
  S   S439      1.0  0.68595  0.75691  0.20731  1.0000
  Fe  Fe221     1.0  0.74054  0.78842  0.14878  1.0000
  S   S440      1.0  0.73991  0.75420  0.16374  1.0000
  S   S441      1.0  0.76543  0.80653  0.14596  1.0000
  Fe  Fe222     1.0  0.69954  0.79691  0.13344  1.0000
  S   S442      1.0  0.69546  0.76349  0.14646  1.0000
  S   S443      1.0  0.67650  0.82427  0.11868  1.0000
  Fe  Fe223     1.0  0.70507  0.76630  0.17478  1.0000
  H   H3399     1.0  0.64508  0.97418  0.98828  1.0000
  Fe  Fe224     1.0  0.73032  0.75425  0.13417  1.0000
  S   S444      1.0  0.74034  0.72811  0.11651  1.0000
  S   S445      1.0  0.70673  0.80048  0.16277  1.0000
  S   S446      1.0  0.73363  0.78759  0.11823  1.0000
  H   H3400     1.0  0.50862  0.91083  0.11106  1.0000
  C   C1918     1.0  0.66408  0.95227  0.01962  1.0000
  H   H3401     1.0  0.78415  0.78606  0.11001  1.0000
  S   S447      1.0  0.61155  0.94960  0.09974  1.0000
  S   S448      1.0  0.57404  0.82541  0.04331  1.0000
  Fe  Fe225     1.0  0.59790  0.87448  0.03850  1.0000
  S   S449      1.0  0.57258  0.86434  0.06616  1.0000
  S   S450      1.0  0.61142  0.90410  0.02894  1.0000
  Fe  Fe226     1.0  0.59137  0.83140  0.06500  1.0000
  S   S451      1.0  0.59878  0.80682  0.09372  1.0000
  Fe  Fe227     1.0  0.55724  0.85924  0.04242  1.0000
  S   S452      1.0  0.52364  0.87486  0.03921  1.0000
  H   H3402     1.0  0.72884  0.69477  0.21930  1.0000
  H   H3403     1.0  0.65725  0.82600  0.16929  1.0000
  C   C1919     1.0  0.61191  0.93652  0.08027  1.0000
  C   C1920     1.0  0.61426  0.94725  0.05924  1.0000
  C   C1921     1.0  0.61359  0.93725  0.04375  1.0000
  C   C1922     1.0  0.61144  0.91612  0.04906  1.0000
  C   C1923     1.0  0.60949  0.90511  0.07007  1.0000
  C   C1924     1.0  0.60958  0.91538  0.08572  1.0000
  H   H3404     1.0  0.61633  0.96340  0.05490  1.0000
  H   H3405     1.0  0.61438  0.94609  0.02768  1.0000
  H   H3406     1.0  0.60793  0.88873  0.07424  1.0000
  H   H3407     1.0  0.60787  0.90696  0.10200  1.0000
  H   H3408     1.0  0.54963  0.86478  0.98858  1.0000
  H   H3409     1.0  0.55268  0.87608  0.12324  1.0000
  C   C1925     1.0  0.74660  0.68581  0.18980  1.0000
  H   H3410     1.0  0.64769  0.93445  0.00961  1.0000
  C   C1926     1.0  0.50746  0.83855  0.05833  1.0000
  S   S453      1.0  0.83440  0.66289  0.16311  1.0000
  C   C1927     1.0  0.71347  0.68119  0.14215  1.0000
  C   C1928     1.0  0.83660  0.75000  0.15901  1.0000
  H   H3411     1.0  0.52310  0.83077  0.06119  1.0000
  H   H3412     1.0  0.50994  0.95454  0.08110  1.0000
  C   C1929     1.0  0.65499  0.81894  0.11199  1.0000
  C   C1930     1.0  0.65265  0.79819  0.11455  1.0000
  C   C1931     1.0  0.63515  0.79445  0.10926  1.0000
  C   C1932     1.0  0.62031  0.81145  0.10088  1.0000
  C   C1933     1.0  0.62275  0.83217  0.09815  1.0000
  C   C1934     1.0  0.63987  0.83589  0.10399  1.0000
  H   H3413     1.0  0.66448  0.78506  0.12027  1.0000
  H   H3414     1.0  0.63346  0.77841  0.11097  1.0000
  H   H3415     1.0  0.61131  0.84533  0.09171  1.0000
  H   H3416     1.0  0.64136  0.85197  0.10216  1.0000
  C   C1935     1.0  0.76704  0.71525  0.11286  1.0000
  C   C1936     1.0  0.77701  0.70992  0.09346  1.0000
  C   C1937     1.0  0.79804  0.69885  0.09024  1.0000
  C   C1938     1.0  0.80905  0.69235  0.10664  1.0000
  C   C1939     1.0  0.79894  0.69727  0.12627  1.0000
  C   C1940     1.0  0.77804  0.70905  0.12928  1.0000
  H   H3417     1.0  0.76847  0.71452  0.08080  1.0000
  H   H3418     1.0  0.80568  0.69500  0.07509  1.0000
  H   H3419     1.0  0.80716  0.69211  0.13908  1.0000
  H   H3420     1.0  0.77024  0.71293  0.14437  1.0000
  H   H3421     1.0  0.80151  0.77117  0.14291  1.0000
  C   C1941     1.0  0.68810  0.69707  0.20380  1.0000
  C   C1942     1.0  0.68851  0.71871  0.19825  1.0000
  C   C1943     1.0  0.57437  0.76858  0.15785  1.0000
  H   H3422     1.0  0.80770  0.77635  0.09191  1.0000
  H   H3423     1.0  0.56195  0.77836  0.16783  1.0000
  H   H3424     1.0  0.69072  0.68841  0.19168  1.0000
  H   H3425     1.0  0.69166  0.72659  0.18186  1.0000
  C   C1944     1.0  0.68504  0.72999  0.21395  1.0000
  H   H3426     1.0  0.80893  0.74012  0.11400  1.0000
  Fe  Fe228     1.0  0.59926  0.83882  0.01770  1.0000
  H   H3427     1.0  0.56486  0.92020  0.00799  1.0000
  C   C1945     1.0  0.86040  0.69014  0.20280  1.0000
  H   H3428     1.0  0.88046  0.72404  0.09236  1.0000
  H   H3429     1.0  0.71563  0.69296  0.12699  1.0000
  H   H3430     1.0  0.68036  0.84660  0.07116  1.0000
  H   H3431     1.0  0.71336  0.80243  0.21542  1.0000
  H   H3432     1.0  0.85045  0.66025  0.21209  1.0000
  C   C1946     1.0  0.78977  0.82303  0.18645  1.0000
  C   C1947     1.0  0.78280  0.82279  0.16868  1.0000
  C   C1948     1.0  0.77295  0.80665  0.16895  1.0000
  C   C1949     1.0  0.77032  0.79050  0.18699  1.0000
  C   C1950     1.0  0.77777  0.79052  0.20469  1.0000
  H   H3433     1.0  0.79734  0.83562  0.18610  1.0000
  H   H3434     1.0  0.78504  0.83519  0.15468  1.0000
  H   H3435     1.0  0.76319  0.77774  0.18700  1.0000
  C   C1951     1.0  0.68515  0.68650  0.22498  1.0000
  H   H3436     1.0  0.62264  0.79801  0.15624  1.0000
  N   N107      1.0  0.62312  0.76879  0.17989  1.0000
  C   C1952     1.0  0.60154  0.76632  0.17910  1.0000
  C   C1953     1.0  0.62675  0.75971  0.20201  1.0000
  C   C1954     1.0  0.62389  0.79201  0.17304  1.0000
  C   C1955     1.0  0.64429  0.79802  0.17455  1.0000
  C   C1956     1.0  0.61308  0.77210  0.21897  1.0000
  H   H3437     1.0  0.70800  0.66791  0.13968  1.0000
  C   C1957     1.0  0.64188  0.82204  0.17002  1.0000
  H   H3438     1.0  0.84809  0.75862  0.14694  1.0000
  H   H3439     1.0  0.59931  0.74985  0.18653  1.0000
  H   H3440     1.0  0.62376  0.74332  0.20757  1.0000
  H   H3441     1.0  0.64369  0.75792  0.20242  1.0000
  H   H3442     1.0  0.60991  0.80154  0.18188  1.0000
  H   H3443     1.0  0.64828  0.79147  0.19030  1.0000
  H   H3444     1.0  0.61555  0.78857  0.21503  1.0000
  H   H3445     1.0  0.52308  0.84076  0.99158  1.0000
  C   C1958     1.0  0.49079  0.82738  0.06526  1.0000
  H   H3446     1.0  0.74645  0.66694  0.13679  1.0000
  H   H3447     1.0  0.56702  0.98296  0.06968  1.0000
  C   C1959     1.0  0.64051  0.73324  0.16821  1.0000
  H   H3448     1.0  0.62976  0.82871  0.18262  1.0000
  H   H3449     1.0  0.63723  0.82951  0.15461  1.0000
  C   C1960     1.0  0.87049  0.71715  0.10735  1.0000
  H   H3450     1.0  0.88095  0.70833  0.11860  1.0000
  H   H3451     1.0  0.69188  0.83264  0.23239  1.0000
  C   C1961     1.0  0.51824  0.93995  0.09057  1.0000
  H   H3452     1.0  0.57105  0.77317  0.14173  1.0000
  H   H3453     1.0  0.81113  0.75872  0.18565  1.0000
  C   C1962     1.0  0.74405  0.69643  0.20794  1.0000
  H   H3454     1.0  0.82020  0.72158  0.19358  1.0000
  H   H3455     1.0  0.67605  0.85295  0.20204  1.0000
  C   C1963     1.0  0.81298  0.75980  0.13394  1.0000
  H   H3456     1.0  0.82865  0.78271  0.19420  1.0000
  C   C1964     1.0  0.78736  0.80689  0.20448  1.0000
  H   H3457     1.0  0.69023  0.79369  0.21680  1.0000
  H   H3458     1.0  0.50466  0.80719  0.99216  1.0000
  C   C1965     1.0  0.68482  0.82412  0.22481  1.0000
  H   H3459     1.0  0.67790  0.96015  0.01372  1.0000
  Fe  Fe229     1.0  0.84934  0.65989  0.12999  1.0000
  H   H3460     1.0  0.56633  0.88682  0.13648  1.0000
  H   H3461     1.0  0.84651  0.73670  0.16837  1.0000
  H   H3462     1.0  0.77643  0.77775  0.21831  1.0000
  Fe  Fe230     1.0  0.61559  0.98342  0.08624  1.0000
  H   H3463     1.0  0.82928  0.70239  0.17733  1.0000
  H   H3464     1.0  0.68497  0.85890  0.04355  1.0000
  C   C1966     1.0  0.83802  0.77105  0.18457  1.0000
  H   H3465     1.0  0.68373  0.95870  0.05321  1.0000
  H   H3466     1.0  0.65895  0.86471  0.05978  1.0000
  H   H3467     1.0  0.80469  0.69006  0.20988  1.0000
  C   C1967     1.0  0.82368  0.76553  0.17337  1.0000
  H   H3468     1.0  0.67883  0.89390  0.05131  1.0000
  C   C1968     1.0  0.67622  0.86140  0.05943  1.0000
  C   C1969     1.0  0.55359  0.90955  0.11085  1.0000
  H   H3469     1.0  0.54070  0.89811  0.09050  1.0000
  Fe  Fe231     1.0  0.86757  0.66137  0.16590  1.0000
  H   H3470     1.0  0.71022  0.94477  0.05617  1.0000
  C   C1970     1.0  0.69464  0.95255  0.06437  1.0000
  C   C1971     1.0  0.79998  0.75364  0.12130  1.0000
  S   S454      1.0  0.68803  0.65887  0.23170  1.0000
  H   H3471     1.0  0.84612  0.72732  0.23272  1.0000
  H   H3472     1.0  0.74088  0.77497  0.22406  1.0000
  N   N108      1.0  0.53937  0.93163  0.07759  1.0000
  H   H3473     1.0  0.57887  0.88136  0.11083  1.0000
  C   C1972     1.0  0.55354  0.94711  0.07359  1.0000
  C   C1973     1.0  0.53586  0.92904  0.05727  1.0000
  C   C1974     1.0  0.54984  0.91042  0.08885  1.0000
  H   H3474     1.0  0.76133  0.68899  0.17844  1.0000
  C   C1975     1.0  0.55602  0.92461  0.04004  1.0000
  C   C1976     1.0  0.54664  0.96903  0.05954  1.0000
  C   C1977     1.0  0.56341  0.98228  0.05475  1.0000
  C   C1978     1.0  0.55024  0.92501  0.01945  1.0000
  S   S455      1.0  0.83516  0.67772  0.10197  1.0000
  H   H3475     1.0  0.82448  0.76919  0.12287  1.0000
  H   H3476     1.0  0.55441  0.95031  0.08868  1.0000
  H   H3477     1.0  0.57013  0.94024  0.06676  1.0000
  H   H3478     1.0  0.52470  0.94306  0.05036  1.0000
  H   H3479     1.0  0.56565  0.90508  0.07924  1.0000
  H   H3480     1.0  0.52806  0.91540  0.06042  1.0000
  H   H3481     1.0  0.56559  0.90877  0.04519  1.0000
  H   H3482     1.0  0.56616  0.93639  0.03639  1.0000
  H   H3483     1.0  0.54419  0.96790  0.04429  1.0000
  H   H3484     1.0  0.53170  0.97757  0.06790  1.0000
  H   H3485     1.0  0.79994  0.72290  0.15695  1.0000
  C   C1979     1.0  0.59628  0.77228  0.15682  1.0000
  H   H3486     1.0  0.57810  0.97526  0.04467  1.0000
  C   C1980     1.0  0.56346  0.88705  0.12091  1.0000
  H   H3487     1.0  0.83065  0.71563  0.13268  1.0000
  H   H3488     1.0  0.53962  0.91385  0.02201  1.0000
  H   H3489     1.0  0.65602  0.75762  0.16765  1.0000
  H   H3490     1.0  0.64313  0.72431  0.18408  1.0000
  C   C1981     1.0  0.64039  0.75704  0.16533  1.0000
  H   H3491     1.0  0.71190  0.89240  0.08694  1.0000
  H   H3492     1.0  0.81621  0.78054  0.16390  1.0000
  C   C1982     1.0  0.79845  0.70188  0.19671  1.0000
  H   H3493     1.0  0.64978  0.96406  0.02466  1.0000
  H   H3494     1.0  0.66787  0.88188  0.14041  1.0000
  H   H3495     1.0  0.57345  0.82120  0.00016  1.0000
  H   H3496     1.0  0.78352  0.76732  0.09551  1.0000
  C   C1983     1.0  0.69859  0.88925  0.10057  1.0000
  H   H3497     1.0  0.62127  0.90277  0.13938  1.0000
  H   H3498     1.0  0.86777  0.72073  0.19813  1.0000
  S   S456      1.0  0.61805  0.84202  0.03936  1.0000
  H   H3499     1.0  0.86259  0.70601  0.10411  1.0000
  C   C1984     1.0  0.68087  0.71971  0.23516  1.0000
  H   H3500     1.0  0.58896  0.77638  0.18873  1.0000
  C   C1985     1.0  0.81549  0.71406  0.18320  1.0000
  H   H3501     1.0  0.51051  0.98295  0.00833  1.0000
  H   H3502     1.0  0.77175  0.66708  0.15721  1.0000
  H   H3503     1.0  0.73747  0.86182  0.10491  1.0000
  H   H3504     1.0  0.72453  0.76747  0.21126  1.0000
  H   H3505     1.0  0.84959  0.71418  0.14710  1.0000
  H   H3506     1.0  0.78439  0.71284  0.20346  1.0000
  H   H3507     1.0  0.72685  0.84017  0.12326  1.0000
  C   C1986     1.0  0.50371  0.85983  0.04784  1.0000
  H   H3508     1.0  0.78526  0.74923  0.13190  1.0000
  H   H3509     1.0  0.73931  0.68711  0.15145  1.0000
  H   H3510     1.0  0.59601  0.77254  0.22062  1.0000
  H   H3511     1.0  0.73276  0.69350  0.18240  1.0000
  H   H3512     1.0  0.67553  0.93127  0.99827  1.0000
  N   N109      1.0  0.82400  0.74163  0.14862  1.0000
  H   H3513     1.0  0.70117  0.68904  0.15382  1.0000
  H   H3514     1.0  0.73419  0.72981  0.23064  1.0000
  C   C1987     1.0  0.79349  0.77203  0.10362  1.0000
  H   H3515     1.0  0.51436  0.93595  0.98929  1.0000
  H   H3516     1.0  0.86275  0.74543  0.11911  1.0000
  C   C1988     1.0  0.66949  0.88464  0.08569  1.0000
  N   N110      1.0  0.67744  0.89910  0.09425  1.0000
  H   H3517     1.0  0.84487  0.74380  0.10404  1.0000
  H   H3518     1.0  0.66692  0.93945  0.03354  1.0000
  C   C1989     1.0  0.70330  0.86495  0.10924  1.0000
  S   S457      1.0  0.58102  0.87204  0.01498  1.0000
  C   C1990     1.0  0.69745  0.80110  0.22538  1.0000
  H   H3519     1.0  0.65786  0.79204  0.16267  1.0000
  C   C1991     1.0  0.85928  0.70897  0.20874  1.0000
  H   H3520     1.0  0.53857  0.91467  0.12166  1.0000
  H   H3521     1.0  0.67753  0.82897  0.19396  1.0000
  H   H3522     1.0  0.69046  0.85983  0.12224  1.0000
  H   H3523     1.0  0.84504  0.75674  0.19526  1.0000
  H   H3524     1.0  0.54237  0.94121  0.01269  1.0000
  H   H3525     1.0  0.65619  0.73147  0.13577  1.0000
  C   C1992     1.0  0.72380  0.85765  0.11756  1.0000
  C   C1993     1.0  0.85406  0.73477  0.11631  1.0000
  H   H3526     1.0  0.64019  0.76492  0.14861  1.0000
  H   H3527     1.0  0.65282  0.89146  0.08385  1.0000
  H   H3528     1.0  0.66487  0.92555  0.07115  1.0000
  H   H3529     1.0  0.85088  0.77815  0.17297  1.0000
  H   H3530     1.0  0.64595  0.91466  0.10689  1.0000
  C   C1994     1.0  0.67981  0.91883  0.07722  1.0000
  C   C1995     1.0  0.68230  0.87989  0.06411  1.0000
  H   H3531     1.0  0.69241  0.91489  0.06353  1.0000
  H   H3532     1.0  0.65825  0.70642  0.15443  1.0000
  H   H3533     1.0  0.67089  0.94592  0.09238  1.0000
  H   H3534     1.0  0.63798  0.90974  0.15262  1.0000
  H   H3535     1.0  0.69959  0.87608  0.06360  1.0000
  H   H3536     1.0  0.79377  0.69330  0.18722  1.0000
  H   H3537     1.0  0.52033  0.94516  0.10414  1.0000
  C   C1996     1.0  0.68543  0.93698  0.08366  1.0000
  H   H3538     1.0  0.66883  0.86928  0.09695  1.0000
  C   C1997     1.0  0.65833  0.72346  0.15202  1.0000
  C   C1998     1.0  0.80742  0.73092  0.16469  1.0000
  C   C1999     1.0  0.66073  0.90582  0.11250  1.0000
  H   H3539     1.0  0.63134  0.88387  0.16095  1.0000
  H   H3540     1.0  0.62803  0.93492  0.98849  1.0000
  H   H3541     1.0  0.62542  0.73086  0.16614  1.0000
  H   H3542     1.0  0.60785  0.76270  0.14612  1.0000
  C   C2000     1.0  0.50260  0.92458  0.09919  1.0000
  H   H3543     1.0  0.69721  0.93091  0.09389  1.0000
  H   H3544     1.0  0.65108  0.87491  0.12725  1.0000
  C   C2001     1.0  0.63514  0.89671  0.14709  1.0000
  H   H3545     1.0  0.66567  0.91708  0.11884  1.0000
  H   H3546     1.0  0.67399  0.72482  0.15375  1.0000
  C   C2002     1.0  0.65475  0.88810  0.13175  1.0000
  C   C2003     1.0  0.49561  0.81480  0.00540  1.0000
  C   C2004     1.0  0.83921  0.72562  0.13683  1.0000
  H   H3547     1.0  0.70520  0.85642  0.09664  1.0000
  H   H3548     1.0  0.79416  0.74277  0.17143  1.0000
  S   S458      1.0  0.87514  0.68633  0.17792  1.0000
  H   H3549     1.0  0.70045  0.89683  0.11262  1.0000
  S   S459      1.0  0.88203  0.66090  0.13189  1.0000
  H   H3550     1.0  0.69697  0.96615  0.06939  1.0000
  H   H3551     1.0  0.56467  0.91985  0.10960  1.0000
  H   H3552     1.0  0.72253  0.86493  0.13094  1.0000
  H   H3553     1.0  0.50695  0.81582  0.01439  1.0000
  H   H3554     1.0  0.74394  0.71352  0.20149  1.0000
  H   H3555     1.0  0.59624  0.78924  0.14951  1.0000
  H   H3556     1.0  0.70156  0.83710  0.19333  1.0000
  C   C2005     1.0  0.73442  0.67328  0.14962  1.0000
  H   H3557     1.0  0.50606  0.86213  0.00144  1.0000
  S   S460      1.0  0.79719  0.80749  0.22604  1.0000
  H   H3558     1.0  0.75727  0.68936  0.21640  1.0000
  C   C2006     1.0  0.73064  0.76383  0.22593  1.0000
  C   C2007     1.0  0.68504  0.83649  0.20212  1.0000
  C   C2008     1.0  0.66086  0.94294  0.00261  1.0000
  H   H3559     1.0  0.75659  0.74053  0.21364  1.0000
  H   H3560     1.0  0.57367  0.75161  0.16425  1.0000
  S   S461      1.0  0.61658  0.82819  0.98767  1.0000
  H   H3561     1.0  0.53709  0.98554  0.10771  1.0000
  H   H3562     1.0  0.93025  0.65985  0.04021  1.0000
  H   H3563     1.0  0.50011  0.91857  0.08643  1.0000
  H   H3564     1.0  0.52554  0.96863  0.98835  1.0000
  H   H3565     1.0  0.50218  0.95011  0.01908  1.0000
  H   H3566     1.0  0.78888  0.65722  0.12252  1.0000
  H   H3567     1.0  0.91290  0.67363  0.22994  1.0000
  C   C2009     1.0  0.74419  0.74153  0.22816  1.0000
  H   H3568     1.0  0.49924  0.91671  0.04887  1.0000
  H   H3569     1.0  0.52921  0.88831  0.99095  1.0000
  C   C2010     1.0  0.51199  0.85577  0.98684  1.0000
  C   C2011     1.0  0.51307  0.98263  0.99143  1.0000
  H   H3570     1.0  0.58558  0.98842  0.00453  1.0000
  C   C2012     1.0  0.84703  0.71271  0.22826  1.0000
  C   C2013     1.0  0.74720  0.66186  0.19793  1.0000
  H   H3571     1.0  0.71739  0.66106  0.18112  1.0000
  H   H3572     1.0  0.73178  0.66080  0.20910  1.0000
  H   H3573     1.0  0.49368  0.81093  0.07332  1.0000
  H   H3574     1.0  0.49098  0.78439  0.02558  1.0000
  C   C2014     1.0  0.83807  0.67820  0.23647  1.0000
  H   H3575     1.0  0.66800  0.82447  0.23281  1.0000
  H   H3576     1.0  0.73096  0.81157  0.23339  1.0000
  H   H3577     1.0  0.65971  0.91109  0.98711  1.0000
  H   H3578     1.0  0.84319  0.95341  0.40385  1.0000
  S   S462      1.0  0.77988  0.75321  0.25841  1.0000
  Fe  Fe232     1.0  0.80901  0.76483  0.29630  1.0000
  S   S463      1.0  0.79356  0.73691  0.30436  1.0000
  S   S464      1.0  0.82510  0.76603  0.32148  1.0000
  Fe  Fe233     1.0  0.80828  0.73365  0.27125  1.0000
  S   S465      1.0  0.82323  0.70045  0.26765  1.0000
  Fe  Fe234     1.0  0.76669  0.75900  0.29093  1.0000
  S   S466      1.0  0.73248  0.76153  0.30737  1.0000
  S   S467      1.0  0.82557  0.76012  0.26387  1.0000
  S   S468      1.0  0.78071  0.78744  0.28577  1.0000
  H   H3579     1.0  0.83018  0.66609  0.24734  1.0000
  H   H3580     1.0  0.75201  0.73764  0.24173  1.0000
  C   C2015     1.0  0.65231  0.76524  0.28907  1.0000
  H   H3581     1.0  0.98794  0.96758  0.29119  1.0000
  H   H3582     1.0  0.98093  0.86005  0.38707  1.0000
  C   C2016     1.0  0.76373  0.69678  0.34701  1.0000
  H   H3583     1.0  0.86548  0.77766  0.24956  1.0000
  H   H3584     1.0  0.74599  0.91455  0.32923  1.0000
  C   C2017     1.0  0.97225  0.85491  0.33599  1.0000
  C   C2018     1.0  0.71207  0.76544  0.24514  1.0000
  C   C2019     1.0  0.67674  0.78447  0.25842  1.0000
  Fe  Fe235     1.0  0.88825  0.84574  0.33195  1.0000
  S   S469      1.0  0.89506  0.82698  0.36353  1.0000
  S   S470      1.0  0.87692  0.83762  0.30678  1.0000
  Fe  Fe236     1.0  0.90337  0.88393  0.33437  1.0000
  S   S471      1.0  0.91182  0.86868  0.36577  1.0000
  S   S472      1.0  0.90773  0.91700  0.31797  1.0000
  Fe  Fe237     1.0  0.92522  0.83949  0.35284  1.0000
  S   S473      1.0  0.95633  0.82055  0.36072  1.0000
  Fe  Fe238     1.0  0.88121  0.85768  0.37419  1.0000
  S   S474      1.0  0.86080  0.86200  0.40575  1.0000
  S   S475      1.0  0.91970  0.85569  0.32042  1.0000
  S   S476      1.0  0.87148  0.87542  0.34372  1.0000
  C   C2020     1.0  0.90254  0.93170  0.33732  1.0000
  C   C2021     1.0  0.89053  0.92486  0.35725  1.0000
  C   C2022     1.0  0.88765  0.93561  0.37325  1.0000
  C   C2023     1.0  0.89666  0.95332  0.36935  1.0000
  H   H3585     1.0  0.93183  0.94865  0.24453  1.0000
  C   C2024     1.0  0.91121  0.94969  0.33326  1.0000
  H   H3586     1.0  0.88356  0.91115  0.36043  1.0000
  H   H3587     1.0  0.87861  0.93003  0.38873  1.0000
  H   H3588     1.0  0.92103  0.95470  0.31809  1.0000
  H   H3589     1.0  0.95779  0.85983  0.33010  1.0000
  H   H3590     1.0  0.86944  0.68524  0.31829  1.0000
  C   C2025     1.0  0.90947  0.84114  0.43616  1.0000
  C   C2026     1.0  0.89665  0.84442  0.42166  1.0000
  C   C2027     1.0  0.87723  0.85870  0.42341  1.0000
  H   H3591     1.0  0.64117  0.78039  0.29104  1.0000
  H   H3592     1.0  0.84044  0.96026  0.47572  1.0000
  H   H3593     1.0  0.92416  0.82961  0.43501  1.0000
  H   H3594     1.0  0.90163  0.83555  0.40934  1.0000
  H   H3595     1.0  0.76587  0.67222  0.25854  1.0000
  C   C2028     1.0  0.78441  0.88618  0.32170  1.0000
  H   H3596     1.0  0.69618  0.81157  0.26363  1.0000
  C   C2029     1.0  0.83939  0.78605  0.31727  1.0000
  C   C2030     1.0  0.84294  0.80001  0.29775  1.0000
  C   C2031     1.0  0.85457  0.81568  0.29479  1.0000
  C   C2032     1.0  0.86269  0.81751  0.31130  1.0000
  C   C2033     1.0  0.85911  0.80358  0.33085  1.0000
  C   C2034     1.0  0.84750  0.78786  0.33380  1.0000
  H   H3597     1.0  0.83680  0.79869  0.28491  1.0000
  H   H3598     1.0  0.85733  0.82642  0.27962  1.0000
  H   H3599     1.0  0.86537  0.80487  0.34362  1.0000
  H   H3600     1.0  0.84483  0.77704  0.34892  1.0000
  C   C2035     1.0  0.71909  0.74146  0.30942  1.0000
  C   C2036     1.0  0.72520  0.72828  0.29498  1.0000
  C   C2037     1.0  0.71363  0.71267  0.29716  1.0000
  C   C2038     1.0  0.69684  0.70948  0.31438  1.0000
  C   C2039     1.0  0.69060  0.72294  0.32849  1.0000
  C   C2040     1.0  0.70150  0.73903  0.32587  1.0000
  H   H3601     1.0  0.73868  0.73019  0.28213  1.0000
  H   H3602     1.0  0.71776  0.70288  0.28577  1.0000
  H   H3603     1.0  0.67742  0.72076  0.34167  1.0000
  H   H3604     1.0  0.69658  0.74930  0.33695  1.0000
  H   H3605     1.0  0.88352  0.95296  0.28727  1.0000
  H   H3606     1.0  0.74194  0.78777  0.25051  1.0000
  C   C2041     1.0  0.70753  0.79711  0.25970  1.0000
  C   C2042     1.0  0.76010  0.92094  0.32822  1.0000
  C   C2043     1.0  0.87487  0.96844  0.44790  1.0000
  H   H3607     1.0  0.75908  0.68390  0.36038  1.0000
  C   C2044     1.0  0.85126  0.96607  0.31904  1.0000
  H   H3608     1.0  0.63590  0.76126  0.23955  1.0000
  H   H3609     1.0  0.78075  0.69660  0.34543  1.0000
  C   C2045     1.0  0.90819  0.96056  0.34927  1.0000
  H   H3610     1.0  0.64738  0.75812  0.27846  1.0000
  H   H3611     1.0  0.75430  0.71913  0.36751  1.0000
  H   H3612     1.0  0.96278  0.78959  0.48515  1.0000
  H   H3613     1.0  0.74521  0.68036  0.30135  1.0000
  C   C2046     1.0  0.83664  0.69719  0.24225  1.0000
  C   C2047     1.0  0.90392  0.96792  0.26026  1.0000
  C   C2048     1.0  0.88935  0.97464  0.45892  1.0000
  H   H3614     1.0  0.83261  0.93196  0.42264  1.0000
  H   H3615     1.0  0.78520  0.86554  0.29350  1.0000
  H   H3616     1.0  0.98837  0.81274  0.45394  1.0000
  C   C2049     1.0  0.83866  0.70003  0.33324  1.0000
  H   H3617     1.0  0.98115  0.84492  0.42480  1.0000
  H   H3618     1.0  0.84647  0.72327  0.28966  1.0000
  H   H3619     1.0  0.88710  0.70652  0.32629  1.0000
  H   H3620     1.0  0.91490  0.69314  0.25586  1.0000
  H   H3621     1.0  0.70207  0.75481  0.24431  1.0000
  H   H3622     1.0  0.75118  0.81889  0.25534  1.0000
  H   H3623     1.0  0.66656  0.79979  0.26138  1.0000
  H   H3624     1.0  0.83442  0.95280  0.35009  1.0000
  H   H3625     1.0  0.65154  0.75412  0.30470  1.0000
  H   H3626     1.0  0.73423  0.80745  0.27900  1.0000
  H   H3627     1.0  0.85590  0.88120  0.44080  1.0000
  H   H3628     1.0  0.77603  0.69600  0.24660  1.0000
  H   H3629     1.0  0.85807  0.94211  0.43616  1.0000
  H   H3630     1.0  0.91511  0.97426  0.34617  1.0000
  H   H3631     1.0  0.81675  0.95844  0.41983  1.0000
  C   C2050     1.0  0.87084  0.86998  0.43954  1.0000
  C   C2051     1.0  0.72969  0.80255  0.24990  1.0000
  H   H3632     1.0  0.85343  0.98038  0.41633  1.0000
  Fe  Fe239     1.0  0.69730  0.66250  0.30130  1.0000
  C   C2052     1.0  0.77799  0.90313  0.33530  1.0000
  H   H3633     1.0  0.77221  0.89579  0.35205  1.0000
  H   H3634     1.0  0.76535  0.92942  0.31177  1.0000
  C   C2053     1.0  0.83771  0.82667  0.46523  1.0000
  H   H3635     1.0  0.90436  0.69004  0.29674  1.0000
  C   C2054     1.0  0.73426  0.66123  0.34523  1.0000
  H   H3636     1.0  0.88117  0.68187  0.28185  1.0000
  C   C2055     1.0  0.90323  0.85245  0.45221  1.0000
  H   H3637     1.0  0.77032  0.87875  0.32554  1.0000
  H   H3638     1.0  0.86293  0.95094  0.31878  1.0000
  S   S477      1.0  0.89394  0.96540  0.39018  1.0000
  H   H3639     1.0  0.90582  0.94210  0.46868  1.0000
  H   H3640     1.0  0.91959  0.96187  0.46843  1.0000
  H   H3641     1.0  0.91126  0.98204  0.25426  1.0000
  C   C2056     1.0  0.88087  0.69761  0.27086  1.0000
  C   C2057     1.0  0.76590  0.68801  0.26080  1.0000
  C   C2058     1.0  0.75102  0.71771  0.35269  1.0000
  H   H3642     1.0  0.79140  0.67720  0.27686  1.0000
  H   H3643     1.0  0.76678  0.70670  0.31349  1.0000
  H   H3644     1.0  0.67838  0.68997  0.25708  1.0000
  C   C2059     1.0  0.84226  0.95267  0.43663  1.0000
  H   H3645     1.0  0.77477  0.70201  0.28144  1.0000
  C   C2060     1.0  0.85610  0.98639  0.27237  1.0000
  C   C2061     1.0  0.73491  0.81589  0.26228  1.0000
  H   H3646     1.0  0.91880  0.95644  0.44386  1.0000
  H   H3647     1.0  0.73375  0.71850  0.35500  1.0000
  H   H3648     1.0  0.83187  0.94785  0.45212  1.0000
  H   H3649     1.0  0.97280  0.90981  0.33726  1.0000
  S   S478      1.0  0.68363  0.68855  0.31928  1.0000
  H   H3650     1.0  0.80807  0.81803  0.46603  1.0000
  H   H3651     1.0  0.75547  0.73130  0.34007  1.0000
  H   H3652     1.0  0.86885  0.73822  0.25702  1.0000
  C   C2062     1.0  0.98771  0.86732  0.32825  1.0000
  H   H3653     1.0  0.84525  0.84054  0.45738  1.0000
  H   H3654     1.0  0.75547  0.93249  0.33857  1.0000
  Fe  Fe240     1.0  0.79581  0.78024  0.25393  1.0000
  H   H3655     1.0  0.89457  0.96769  0.24897  1.0000
  H   H3656     1.0  0.74961  0.69762  0.26227  1.0000
  H   H3657     1.0  0.78565  0.89467  0.30488  1.0000
  H   H3658     1.0  0.82375  0.71020  0.32908  1.0000
  C   C2063     1.0  0.77479  0.68588  0.28014  1.0000
  H   H3659     1.0  0.81839  0.85899  0.43541  1.0000
  H   H3660     1.0  0.91661  0.71663  0.33379  1.0000
  N   N111      1.0  0.95911  0.88496  0.40146  1.0000
  C   C2064     1.0  0.93607  0.88884  0.41239  1.0000
  C   C2065     1.0  0.97210  0.88869  0.41485  1.0000
  C   C2066     1.0  0.96272  0.89977  0.38023  1.0000
  C   C2067     1.0  0.94918  0.89960  0.36487  1.0000
  C   C2068     1.0  0.92556  0.91204  0.41403  1.0000
  C   C2069     1.0  0.95555  0.91415  0.34362  1.0000
  C   C2070     1.0  0.90301  0.91339  0.42711  1.0000
  H   H3661     1.0  0.84484  0.70803  0.34214  1.0000
  H   H3662     1.0  0.93404  0.87927  0.42877  1.0000
  H   H3663     1.0  0.92631  0.88332  0.40461  1.0000
  H   H3664     1.0  0.82761  0.98561  0.43172  1.0000
  H   H3665     1.0  0.96751  0.90540  0.41656  1.0000
  H   H3666     1.0  0.96031  0.91635  0.38195  1.0000
  C   C2071     1.0  0.92186  0.94837  0.26059  1.0000
  H   H3667     1.0  0.93204  0.90498  0.37097  1.0000
  H   H3668     1.0  0.95170  0.88354  0.36203  1.0000
  H   H3669     1.0  0.93427  0.91866  0.42178  1.0000
  H   H3670     1.0  0.92473  0.92237  0.39824  1.0000
  H   H3671     1.0  0.95298  0.84738  0.43121  1.0000
  C   C2072     1.0  0.87974  0.77446  0.25635  1.0000
  C   C2073     1.0  0.84170  0.96681  0.34213  1.0000
  H   H3672     1.0  0.94709  0.91249  0.33221  1.0000
  H   H3673     1.0  0.95146  0.93087  0.34521  1.0000
  H   H3674     1.0  0.89577  0.93013  0.42767  1.0000
  H   H3675     1.0  0.89322  0.90730  0.41998  1.0000
  H   H3676     1.0  0.90310  0.90423  0.44350  1.0000
  H   H3677     1.0  0.74253  0.69937  0.32645  1.0000
  N   N112      1.0  0.80425  0.86940  0.32444  1.0000
  C   C2074     1.0  0.80726  0.86456  0.34685  1.0000
  C   C2075     1.0  0.80133  0.84934  0.32034  1.0000
  C   C2076     1.0  0.82326  0.87606  0.30862  1.0000
  C   C2077     1.0  0.82972  0.89591  0.31058  1.0000
  C   C2078     1.0  0.82618  0.84662  0.35254  1.0000
  C   C2079     1.0  0.79694  0.85112  0.29832  1.0000
  C   C2080     1.0  0.85045  0.89953  0.29516  1.0000
  H   H3678     1.0  0.67798  0.72840  0.24737  1.0000
  C   C2081     1.0  0.78847  0.83215  0.29795  1.0000
  H   H3679     1.0  0.79269  0.86011  0.35794  1.0000
  H   H3680     1.0  0.80928  0.87874  0.35101  1.0000
  H   H3681     1.0  0.78826  0.84313  0.33266  1.0000
  H   H3682     1.0  0.81573  0.83663  0.32152  1.0000
  H   H3683     1.0  0.83716  0.86280  0.30892  1.0000
  H   H3684     1.0  0.82055  0.87953  0.29233  1.0000
  H   H3685     1.0  0.83206  0.89449  0.32659  1.0000
  H   H3686     1.0  0.81744  0.91017  0.30660  1.0000
  H   H3687     1.0  0.82360  0.83104  0.35215  1.0000
  H   H3688     1.0  0.84122  0.84946  0.34160  1.0000
  H   H3689     1.0  0.81190  0.85146  0.28626  1.0000
  H   H3690     1.0  0.85486  0.91374  0.29698  1.0000
  H   H3691     1.0  0.86352  0.88575  0.29832  1.0000
  H   H3692     1.0  0.84876  0.90201  0.27866  1.0000
  C   C2082     1.0  0.82883  0.84502  0.37481  1.0000
  C   C2083     1.0  0.84020  0.97751  0.47011  1.0000
  C   C2084     1.0  0.81325  0.84361  0.43957  1.0000
  H   H3693     1.0  0.83667  0.78842  0.48491  1.0000
  H   H3694     1.0  0.77255  0.83213  0.30839  1.0000
  H   H3695     1.0  0.78712  0.83297  0.28165  1.0000
  H   H3696     1.0  0.84603  0.81464  0.45563  1.0000
  S   S479      1.0  0.91993  0.84777  0.46998  1.0000
  C   C2085     1.0  0.81454  0.83259  0.46236  1.0000
  H   H3697     1.0  0.84252  0.83215  0.37841  1.0000
  H   H3698     1.0  0.82930  0.98138  0.34338  1.0000
  H   H3699     1.0  0.79139  0.91034  0.33458  1.0000
  H   H3700     1.0  0.91535  0.93368  0.26590  1.0000
  C   C2086     1.0  0.85497  0.69578  0.31342  1.0000
  C   C2087     1.0  0.88392  0.86698  0.45385  1.0000
  H   H3701     1.0  0.87415  0.98432  0.31670  1.0000
  C   C2088     1.0  0.90965  0.95771  0.45996  1.0000
  C   C2089     1.0  0.91884  0.71156  0.31882  1.0000
  H   H3702     1.0  0.85418  0.96656  0.35040  1.0000
  H   H3703     1.0  0.85869  0.72835  0.30737  1.0000
  C   C2090     1.0  0.88977  0.96780  0.28255  1.0000
  H   H3704     1.0  0.86600  0.70123  0.26495  1.0000
  H   H3705     1.0  0.79666  0.84672  0.43758  1.0000
  C   C2091     1.0  0.90137  0.79231  0.47929  1.0000
  H   H3706     1.0  0.92647  0.69451  0.32105  1.0000
  H   H3707     1.0  0.67941  0.77499  0.29181  1.0000
  H   H3708     1.0  0.84841  0.68707  0.30551  1.0000
  H   H3709     1.0  0.82347  0.83358  0.42854  1.0000
  H   H3710     1.0  0.89017  0.73232  0.31158  1.0000
  H   H3711     1.0  0.94808  0.98030  0.44309  1.0000
  H   H3712     1.0  0.96875  0.87910  0.43120  1.0000
  N   N113      1.0  0.69890  0.78721  0.24694  1.0000
  H   H3713     1.0  0.91375  0.71272  0.28093  1.0000
  H   H3714     1.0  0.98575  0.94673  0.32780  1.0000
  H   H3715     1.0  0.98550  0.81865  0.40430  1.0000
  H   H3716     1.0  0.71862  0.75784  0.25953  1.0000
  H   H3717     1.0  0.68524  0.75300  0.27933  1.0000
  H   H3718     1.0  0.87382  0.95171  0.45563  1.0000
  C   C2092     1.0  0.67495  0.76876  0.28024  1.0000
  H   H3719     1.0  0.70896  0.78634  0.27522  1.0000
  H   H3720     1.0  0.72365  0.83137  0.26156  1.0000
  C   C2093     1.0  0.89738  0.71532  0.31291  1.0000
  C   C2094     1.0  0.96552  0.86248  0.39842  1.0000
  H   H3721     1.0  0.91160  0.78054  0.47013  1.0000
  H   H3722     1.0  0.79930  0.81708  0.30322  1.0000
  H   H3723     1.0  0.72896  0.67505  0.35277  1.0000
  C   C2095     1.0  0.97565  0.83612  0.35102  1.0000
  H   H3724     1.0  0.95395  0.85919  0.39104  1.0000
  H   H3725     1.0  0.88020  0.80349  0.45782  1.0000
  C   C2096     1.0  0.88011  0.75475  0.27423  1.0000
  H   H3726     1.0  0.98533  0.88411  0.46681  1.0000
  H   H3727     1.0  0.66921  0.77901  0.24840  1.0000
  C   C2097     1.0  0.75979  0.69447  0.32613  1.0000
  C   C2098     1.0  0.88157  0.73481  0.26606  1.0000
  H   H3728     1.0  0.95721  0.82264  0.40670  1.0000
  C   C2099     1.0  0.89945  0.69464  0.25178  1.0000
  H   H3729     1.0  0.96868  0.81108  0.42953  1.0000
  H   H3730     1.0  0.83508  0.68485  0.34355  1.0000
  C   C2100     1.0  0.96983  0.82304  0.41448  1.0000
  H   H3731     1.0  0.97812  0.94264  0.27574  1.0000
  C   C2101     1.0  0.89970  0.70762  0.29245  1.0000
  C   C2102     1.0  0.85987  0.71663  0.29800  1.0000
  S   S480      1.0  0.71859  0.66542  0.26938  1.0000
  H   H3732     1.0  0.86559  0.75775  0.28642  1.0000
  C   C2103     1.0  0.83309  0.94898  0.41968  1.0000
  H   H3733     1.0  0.85206  0.97046  0.27637  1.0000
  H   H3734     1.0  0.83198  0.86003  0.37622  1.0000
  H   H3735     1.0  0.72645  0.66480  0.33171  1.0000
  H   H3736     1.0  0.89427  0.75308  0.28065  1.0000
  H   H3737     1.0  0.87909  0.87594  0.46606  1.0000
  H   H3738     1.0  0.92946  0.72093  0.30638  1.0000
  H   H3739     1.0  0.60906  0.77063  0.25236  1.0000
  N   N114      1.0  0.88065  0.71430  0.28226  1.0000
  H   H3740     1.0  0.81442  0.84138  0.38659  1.0000
  H   H3741     1.0  0.83833  0.96599  0.31160  1.0000
  H   H3742     1.0  0.89736  0.70829  0.23830  1.0000
  C   C2104     1.0  0.96725  0.84496  0.41869  1.0000
  H   H3743     1.0  0.83181  0.86432  0.47758  1.0000
  H   H3744     1.0  0.96528  0.94120  0.30294  1.0000
  C   C2105     1.0  0.90014  0.67486  0.24421  1.0000
  H   H3745     1.0  0.87300  0.78276  0.47996  1.0000
  H   H3746     1.0  0.97946  0.89566  0.37185  1.0000
  C   C2106     1.0  0.98084  0.93796  0.29208  1.0000
  H   H3747     1.0  0.98741  0.84621  0.46065  1.0000
  H   H3748     1.0  0.90336  0.66038  0.25658  1.0000
  H   H3749     1.0  0.89674  0.73342  0.25427  1.0000
  C   C2107     1.0  0.61897  0.76159  0.24038  1.0000
  H   H3750     1.0  0.87930  0.78840  0.26252  1.0000
  H   H3751     1.0  0.90835  0.80666  0.47441  1.0000
  H   H3752     1.0  0.93202  0.94805  0.27141  1.0000
  C   C2108     1.0  0.84378  0.97621  0.43253  1.0000
  H   H3753     1.0  0.90013  0.96575  0.29367  1.0000
  C   C2109     1.0  0.76225  0.67360  0.30058  1.0000
  N   N115      1.0  0.85295  0.98206  0.44793  1.0000
  H   H3754     1.0  0.79924  0.68054  0.30751  1.0000
  H   H3755     1.0  0.87064  0.82959  0.47884  1.0000
  H   H3756     1.0  0.61627  0.74511  0.24551  1.0000
  H   H3757     1.0  0.84762  0.98141  0.48116  1.0000
  H   H3758     1.0  0.95300  0.98130  0.46790  1.0000
  C   C2110     1.0  0.68118  0.69793  0.24066  1.0000
  H   H3759     1.0  0.88374  0.96840  0.43149  1.0000
  H   H3760     1.0  0.89416  0.77255  0.24372  1.0000
  H   H3761     1.0  0.80436  0.84348  0.47245  1.0000
  C   C2111     1.0  0.79193  0.66759  0.31880  1.0000
  N   N116      1.0  0.76823  0.67294  0.32089  1.0000
  H   H3762     1.0  0.98326  0.98590  0.42989  1.0000
  H   H3763     1.0  0.95985  0.82741  0.48104  1.0000
  H   H3764     1.0  0.79611  0.66662  0.33399  1.0000
  H   H3765     1.0  0.98771  0.92072  0.29548  1.0000
  H   H3766     1.0  0.80816  0.98764  0.46301  1.0000
  H   H3767     1.0  0.88151  0.97626  0.47518  1.0000
  C   C2112     1.0  0.86199  0.98523  0.30774  1.0000
  N   N117      1.0  0.87188  0.98665  0.28469  1.0000
  C   C2113     1.0  0.87897  0.79769  0.47509  1.0000
  H   H3768     1.0  0.98522  0.88153  0.31616  1.0000
  H   H3769     1.0  0.88486  0.67570  0.24003  1.0000
  H   H3770     1.0  0.86326  0.98919  0.25524  1.0000
  H   H3771     1.0  0.81703  0.98523  0.26576  1.0000
  C   C2114     1.0  0.75874  0.65614  0.33794  1.0000
  H   H3772     1.0  0.83230  0.65638  0.29371  1.0000
  H   H3773     1.0  0.76396  0.65742  0.29848  1.0000
  Fe  Fe241     1.0  0.78224  0.76254  0.64140  1.0000
  S   S481      1.0  0.82749  0.69060  0.63771  1.0000
  S   S482      1.0  0.77992  0.78164  0.66495  1.0000
  H   H3774     1.0  0.85775  0.67283  0.66392  1.0000
  H   H3775     1.0  0.94941  0.96032  0.50875  1.0000
  H   H3776     1.0  0.87595  0.76111  0.65466  1.0000
  C   C2115     1.0  0.64367  0.68174  0.70032  1.0000
  H   H3777     1.0  0.75690  0.71085  0.59138  1.0000
  H   H3778     1.0  0.85718  0.79227  0.53783  1.0000
  H   H3779     1.0  0.84556  0.76707  0.64123  1.0000
  S   S483      1.0  0.64062  0.75034  0.70121  1.0000
  S   S484      1.0  0.77213  0.73149  0.64883  1.0000
  C   C2116     1.0  0.96917  0.87415  0.59130  1.0000
  Fe  Fe242     1.0  0.80212  0.76104  0.59544  1.0000
  S   S485      1.0  0.76993  0.77579  0.61159  1.0000
  C   C2117     1.0  0.95828  0.94378  0.51261  1.0000
  C   C2118     1.0  0.86798  0.73156  0.59016  1.0000
  C   C2119     1.0  0.98667  0.85418  0.48980  1.0000
  C   C2120     1.0  0.85796  0.97548  0.54620  1.0000
  H   H3780     1.0  0.98640  0.86756  0.59013  1.0000
  H   H3781     1.0  0.57279  0.66323  0.57668  1.0000
  C   C2121     1.0  0.70361  0.79013  0.64155  1.0000
  H   H3782     1.0  0.67517  0.77428  0.58614  1.0000
  C   C2122     1.0  0.72306  0.82019  0.63442  1.0000
  H   H3783     1.0  0.65017  0.78983  0.65906  1.0000
  H   H3784     1.0  0.82209  0.82065  0.65242  1.0000
  Fe  Fe243     1.0  0.88694  0.86101  0.54279  1.0000
  S   S486      1.0  0.87487  0.87496  0.51291  1.0000
  S   S487      1.0  0.86813  0.84341  0.57207  1.0000
  Fe  Fe244     1.0  0.92663  0.87959  0.52575  1.0000
  H   H3785     1.0  0.90688  0.74399  0.67318  1.0000
  Fe  Fe245     1.0  0.88552  0.90409  0.51316  1.0000
  S   S488      1.0  0.86589  0.93685  0.50670  1.0000
  C   C2123     1.0  0.82974  0.83442  0.50116  1.0000
  H   H3786     1.0  0.96698  0.94910  0.53880  1.0000
  S   S489      1.0  0.89468  0.89113  0.54441  1.0000
  S   S490      1.0  0.92005  0.84812  0.52695  1.0000
  H   H3787     1.0  0.73271  0.66177  0.68260  1.0000
  H   H3788     1.0  0.80585  0.77089  0.50131  1.0000
  C   C2124     1.0  0.75466  0.70479  0.72867  1.0000
  C   C2125     1.0  0.85434  0.96226  0.53510  1.0000
  C   C2126     1.0  0.87087  0.95334  0.52048  1.0000
  C   C2127     1.0  0.89091  0.95832  0.51646  1.0000
  C   C2128     1.0  0.89420  0.97257  0.52673  1.0000
  H   H3789     1.0  0.83882  0.97811  0.60519  1.0000
  H   H3790     1.0  0.83882  0.95857  0.53818  1.0000
  H   H3791     1.0  0.90374  0.95150  0.50518  1.0000
  C   C2129     1.0  0.80525  0.77635  0.51566  1.0000
  H   H3792     1.0  0.76759  0.73881  0.69895  1.0000
  C   C2130     1.0  0.88549  0.78606  0.60309  1.0000
  C   C2131     1.0  0.73952  0.68604  0.59733  1.0000
  H   H3793     1.0  0.84430  0.78337  0.61595  1.0000
  H   H3794     1.0  0.96052  0.96834  0.60024  1.0000
  S   S491      1.0  0.79346  0.72990  0.59872  1.0000
  C   C2132     1.0  0.73441  0.66976  0.66573  1.0000
  C   C2133     1.0  0.80538  0.98111  0.49642  1.0000
  C   C2134     1.0  0.68409  0.76079  0.65328  1.0000
  C   C2135     1.0  0.91788  0.74533  0.65755  1.0000
  C   C2136     1.0  0.90644  0.74603  0.64041  1.0000
  H   H3795     1.0  0.82084  0.79306  0.66152  1.0000
  H   H3796     1.0  0.75024  0.77079  0.72839  1.0000
  H   H3797     1.0  0.72534  0.83575  0.62408  1.0000
  C   C2137     1.0  0.64166  0.72391  0.70114  1.0000
  H   H3798     1.0  0.80498  0.96415  0.49875  1.0000
  C   C2138     1.0  0.64459  0.69717  0.68161  1.0000
  C   C2139     1.0  0.64308  0.71833  0.68211  1.0000
  H   H3799     1.0  0.99036  0.97513  0.50848  1.0000
  H   H3800     1.0  0.64586  0.69289  0.66689  1.0000
  H   H3801     1.0  0.64337  0.73032  0.66768  1.0000
  C   C2140     1.0  0.83347  0.79564  0.56592  1.0000
  C   C2141     1.0  0.85103  0.80080  0.55036  1.0000
  C   C2142     1.0  0.86110  0.81639  0.55142  1.0000
  C   C2143     1.0  0.85387  0.82648  0.56839  1.0000
  C   C2144     1.0  0.83620  0.82142  0.58385  1.0000
  C   C2145     1.0  0.82594  0.80611  0.58257  1.0000
  C   C2146     1.0  0.69730  0.72773  0.67913  1.0000
  H   H3802     1.0  0.87493  0.82000  0.53962  1.0000
  H   H3803     1.0  0.83052  0.82926  0.59695  1.0000
  H   H3804     1.0  0.87584  0.79126  0.59079  1.0000
  C   C2147     1.0  0.75446  0.79017  0.67915  1.0000
  C   C2148     1.0  0.73812  0.77954  0.68200  1.0000
  C   C2149     1.0  0.71805  0.78639  0.69400  1.0000
  H   H3805     1.0  0.85769  0.72285  0.60368  1.0000
  C   C2150     1.0  0.73049  0.81481  0.69965  1.0000
  C   C2151     1.0  0.75067  0.80769  0.68813  1.0000
  H   H3806     1.0  0.74102  0.76598  0.67509  1.0000
  H   H3807     1.0  0.70544  0.77835  0.69599  1.0000
  C   C2152     1.0  0.86839  0.75286  0.59411  1.0000
  H   H3808     1.0  0.76329  0.81595  0.68596  1.0000
  H   H3809     1.0  0.97011  0.92169  0.53838  1.0000
  S   S492      1.0  0.68226  0.75453  0.72984  1.0000
  H   H3810     1.0  0.81231  0.83709  0.50324  1.0000
  H   H3811     1.0  0.81238  0.80220  0.59463  1.0000
  H   H3812     1.0  0.95883  0.95011  0.62541  1.0000
  H   H3813     1.0  0.79044  0.68275  0.67027  1.0000
  C   C2153     1.0  0.82053  0.65803  0.70715  1.0000
  C   C2154     1.0  0.70585  0.68983  0.62200  1.0000
  C   C2155     1.0  0.70599  0.81266  0.62863  1.0000
  C   C2156     1.0  0.74275  0.70496  0.60004  1.0000
  H   H3814     1.0  0.71082  0.75497  0.66933  1.0000
  C   C2157     1.0  0.88725  0.76493  0.63938  1.0000
  C   C2158     1.0  0.64625  0.81944  0.68146  1.0000
  C   C2159     1.0  0.84033  0.66111  0.69486  1.0000
  Fe  Fe246     1.0  0.80401  0.72055  0.62948  1.0000
  H   H3815     1.0  0.88458  0.80069  0.60836  1.0000
  C   C2160     1.0  0.69468  0.75179  0.67257  1.0000
  C   C2161     1.0  0.64176  0.68743  0.71940  1.0000
  H   H3816     1.0  0.86845  0.73907  0.62731  1.0000
  H   H3817     1.0  0.73838  0.80872  0.63246  1.0000
  C   C2162     1.0  0.85322  0.77912  0.62870  1.0000
  H   H3818     1.0  0.80537  0.87330  0.50931  1.0000
  C   C2163     1.0  0.82525  0.80544  0.64742  1.0000
  C   C2164     1.0  0.84867  0.79950  0.63735  1.0000
  C   C2165     1.0  0.83537  0.85667  0.49339  1.0000
  H   H3819     1.0  0.65819  0.79994  0.58796  1.0000
  S   S493      1.0  0.95507  0.88778  0.53090  1.0000
  C   C2166     1.0  0.66173  0.77862  0.61821  1.0000
  C   C2167     1.0  0.71416  0.80409  0.70277  1.0000
  H   H3820     1.0  0.71828  0.82199  0.65103  1.0000
  H   H3821     1.0  0.68473  0.75848  0.68599  1.0000
  H   H3822     1.0  0.91816  0.74674  0.62533  1.0000
  H   H3823     1.0  0.69168  0.68397  0.63067  1.0000
  H   H3824     1.0  0.91924  0.77807  0.60355  1.0000
  C   C2168     1.0  0.70871  0.70912  0.62411  1.0000
  H   H3825     1.0  0.69544  0.77802  0.61132  1.0000
  H   H3826     1.0  0.77841  0.74826  0.71493  1.0000
  H   H3827     1.0  0.89250  0.77921  0.64002  1.0000
  H   H3828     1.0  0.95951  0.84217  0.54660  1.0000
  C   C2169     1.0  0.95961  0.93739  0.53589  1.0000
  H   H3829     1.0  0.97048  0.90483  0.59352  1.0000
  H   H3830     1.0  0.97751  0.94247  0.60268  1.0000
  C   C2170     1.0  0.96271  0.79525  0.49923  1.0000
  S   S494      1.0  0.82173  0.77551  0.56463  1.0000
  C   C2171     1.0  0.64124  0.70839  0.71975  1.0000
  H   H3831     1.0  0.87847  0.76104  0.58000  1.0000
  H   H3832     1.0  0.76872  0.69259  0.72425  1.0000
  C   C2172     1.0  0.82432  0.67902  0.66465  1.0000
  C   C2173     1.0  0.82262  0.87114  0.50839  1.0000
  N   N118      1.0  0.84099  0.81858  0.48754  1.0000
  H   H3833     1.0  0.83290  0.82796  0.51735  1.0000
  C   C2174     1.0  0.77541  0.73354  0.71267  1.0000
  C   C2175     1.0  0.80435  0.67660  0.67709  1.0000
  C   C2176     1.0  0.73707  0.68850  0.70984  1.0000
  H   H3834     1.0  0.96318  0.86631  0.58212  1.0000
  H   H3835     1.0  0.82607  0.86442  0.52441  1.0000
  H   H3836     1.0  0.80880  0.80334  0.52469  1.0000
  C   C2177     1.0  0.91540  0.79587  0.57283  1.0000
  H   H3837     1.0  0.88421  0.72172  0.58762  1.0000
  C   C2178     1.0  0.83402  0.79761  0.49722  1.0000
  H   H3838     1.0  0.97445  0.94261  0.50262  1.0000
  H   H3839     1.0  0.60327  0.66141  0.59380  1.0000
  S   S495      1.0  0.98855  0.97432  0.55478  1.0000
  H   H3840     1.0  0.64072  0.67561  0.73395  1.0000
  C   C2179     1.0  0.80256  0.66556  0.69822  1.0000
  Fe  Fe247     1.0  0.90856  0.86451  0.49694  1.0000
  H   H3841     1.0  0.91260  0.81162  0.57671  1.0000
  H   H3842     1.0  0.90935  0.97714  0.52288  1.0000
  H   H3843     1.0  0.99031  0.89220  0.65176  1.0000
  H   H3844     1.0  0.81960  0.97628  0.62969  1.0000
  H   H3845     1.0  0.97813  0.90460  0.62921  1.0000
  H   H3846     1.0  0.81671  0.66348  0.58619  1.0000
  H   H3847     1.0  0.71839  0.67502  0.66195  1.0000
  Fe  Fe248     1.0  0.76240  0.74358  0.61754  1.0000
  H   H3848     1.0  0.85253  0.81309  0.62440  1.0000
  H   H3849     1.0  0.70594  0.78890  0.65750  1.0000
  C   C2180     1.0  0.78962  0.66476  0.61261  1.0000
  H   H3850     1.0  0.69657  0.71803  0.63431  1.0000
  N   N119      1.0  0.87629  0.76984  0.62105  1.0000
  H   H3851     1.0  0.85792  0.79758  0.64943  1.0000
  H   H3852     1.0  0.71730  0.77874  0.63461  1.0000
  C   C2181     1.0  0.66643  0.80458  0.67310  1.0000
  C   C2182     1.0  0.72726  0.71661  0.61332  1.0000
  H   H3853     1.0  0.69095  0.82436  0.63129  1.0000
  C   C2183     1.0  0.72121  0.67831  0.60854  1.0000
  N   N120      1.0  0.93553  0.93111  0.57373  1.0000
  C   C2184     1.0  0.94820  0.94347  0.57956  1.0000
  C   C2185     1.0  0.93732  0.93691  0.55013  1.0000
  C   C2186     1.0  0.91244  0.93808  0.58349  1.0000
  C   C2187     1.0  0.94187  0.90743  0.58163  1.0000
  H   H3854     1.0  0.80698  0.71707  0.71847  1.0000
  C   C2188     1.0  0.94453  0.94282  0.60341  1.0000
  C   C2189     1.0  0.89650  0.92882  0.57723  1.0000
  H   H3855     1.0  0.67904  0.80343  0.61205  1.0000
  H   H3856     1.0  0.69964  0.72238  0.69555  1.0000
  C   C2190     1.0  0.96143  0.95142  0.60819  1.0000
  C   C2191     1.0  0.87402  0.93501  0.58966  1.0000
  H   H3857     1.0  0.94460  0.96036  0.57142  1.0000
  H   H3858     1.0  0.96543  0.93827  0.57355  1.0000
  H   H3859     1.0  0.93033  0.92621  0.54504  1.0000
  H   H3860     1.0  0.92788  0.95310  0.54570  1.0000
  H   H3861     1.0  0.90763  0.95570  0.57941  1.0000
  H   H3862     1.0  0.90976  0.93360  0.60096  1.0000
  H   H3863     1.0  0.93272  0.90244  0.59787  1.0000
  H   H3864     1.0  0.85208  0.76223  0.59535  1.0000
  H   H3865     1.0  0.66942  0.79077  0.68604  1.0000
  H   H3866     1.0  0.89354  0.74082  0.61061  1.0000
  H   H3867     1.0  0.92895  0.95289  0.60865  1.0000
  H   H3868     1.0  0.94460  0.92648  0.61291  1.0000
  H   H3869     1.0  0.90083  0.91129  0.58024  1.0000
  H   H3870     1.0  0.89607  0.93493  0.56030  1.0000
  H   H3871     1.0  0.64684  0.77679  0.59394  1.0000
  H   H3872     1.0  0.97600  0.90120  0.56716  1.0000
  S   S496      1.0  0.81510  0.75053  0.62479  1.0000
  H   H3873     1.0  0.68310  0.72253  0.67852  1.0000
  C   C2192     1.0  0.96547  0.89809  0.58275  1.0000
  C   C2193     1.0  0.81082  0.79823  0.50977  1.0000
  C   C2194     1.0  0.86445  0.81496  0.48685  1.0000
  H   H3874     1.0  0.75126  0.67728  0.58667  1.0000
  H   H3875     1.0  0.86286  0.92912  0.58405  1.0000
  H   H3876     1.0  0.87304  0.92797  0.60671  1.0000
  H   H3877     1.0  0.86912  0.95249  0.58727  1.0000
  H   H3878     1.0  0.91202  0.76402  0.58785  1.0000
  N   N121      1.0  0.68310  0.78395  0.64276  1.0000
  C   C2195     1.0  0.66402  0.79774  0.65374  1.0000
  H   H3879     1.0  0.65886  0.81262  0.64249  1.0000
  C   C2196     1.0  0.79758  0.71994  0.70627  1.0000
  H   H3880     1.0  0.81513  0.80732  0.63604  1.0000
  C   C2197     1.0  0.90895  0.77933  0.59257  1.0000
  C   C2198     1.0  0.81015  0.73095  0.68569  1.0000
  C   C2199     1.0  0.97421  0.84665  0.54570  1.0000
  H   H3881     1.0  0.71114  0.72008  0.66852  1.0000
  H   H3882     1.0  0.90083  0.73090  0.64431  1.0000
  C   C2200     1.0  0.87711  0.74987  0.61417  1.0000
  H   H3883     1.0  0.69279  0.75080  0.64182  1.0000
  H   H3884     1.0  0.92451  0.75980  0.65403  1.0000
  S   S497      1.0  0.68911  0.81310  0.71767  1.0000
  H   H3885     1.0  0.78897  0.77708  0.52548  1.0000
  H   H3886     1.0  0.96461  0.82397  0.50660  1.0000
  H   H3887     1.0  0.74853  0.71746  0.69648  1.0000
  C   C2201     1.0  0.68078  0.78652  0.62044  1.0000
  H   H3888     1.0  0.75209  0.67878  0.70287  1.0000
  H   H3889     1.0  0.67944  0.81335  0.66910  1.0000
  H   H3890     1.0  0.81344  0.98283  0.50819  1.0000
  H   H3891     1.0  0.82592  0.72069  0.68158  1.0000
  H   H3892     1.0  0.80178  0.73384  0.67270  1.0000
  H   H3893     1.0  0.81244  0.74628  0.68720  1.0000
  H   H3894     1.0  0.93116  0.73136  0.65829  1.0000
  H   H3895     1.0  0.72761  0.82850  0.70637  1.0000
  S   S498      1.0  0.73012  0.74119  0.61562  1.0000
  H   H3896     1.0  0.86141  0.73425  0.57591  1.0000
  H   H3897     1.0  0.71066  0.81256  0.61156  1.0000
  C   C2202     1.0  0.66046  0.78273  0.59511  1.0000
  H   H3898     1.0  0.64850  0.82444  0.69503  1.0000
  H   H3899     1.0  0.63263  0.81130  0.68678  1.0000
  H   H3900     1.0  0.95023  0.93315  0.50875  1.0000
  H   H3901     1.0  0.64267  0.83386  0.66914  1.0000
  H   H3902     1.0  0.66330  0.76131  0.62459  1.0000
  H   H3903     1.0  0.64658  0.78679  0.62673  1.0000
  H   H3904     1.0  0.66796  0.75707  0.65830  1.0000
  H   H3905     1.0  0.93745  0.89878  0.57196  1.0000
  C   C2203     1.0  0.98878  0.89034  0.63636  1.0000
  H   H3906     1.0  0.93252  0.79118  0.56607  1.0000
  S   S499      1.0  0.91810  0.89493  0.49436  1.0000
  H   H3907     1.0  0.90619  0.79723  0.56082  1.0000
  N   N122      1.0  0.76106  0.72348  0.73203  1.0000
  H   H3908     1.0  0.57718  0.67108  0.60807  1.0000
  H   H3909     1.0  0.72578  0.69186  0.69936  1.0000
  C   C2204     1.0  0.74087  0.70925  0.71214  1.0000
  C   C2205     1.0  0.80598  0.67516  0.59522  1.0000
  C   C2206     1.0  0.82448  0.98689  0.61430  1.0000
  H   H3910     1.0  0.75064  0.66351  0.63555  1.0000
  H   H3911     1.0  0.78728  0.66317  0.70772  1.0000
  H   H3912     1.0  0.72507  0.71896  0.71725  1.0000
  H   H3913     1.0  0.84526  0.98172  0.55801  1.0000
  H   H3914     1.0  0.97341  0.78321  0.50867  1.0000
  C   C2207     1.0  0.84229  0.67110  0.67353  1.0000
  H   H3915     1.0  0.79629  0.70469  0.70400  1.0000
  C   C2208     1.0  0.87791  0.98057  0.54216  1.0000
  C   C2209     1.0  0.97603  0.86786  0.53864  1.0000
  H   H3916     1.0  0.96099  0.87039  0.60807  1.0000
  C   C2210     1.0  0.94017  0.79691  0.51244  1.0000
  H   H3917     1.0  0.81555  0.68190  0.60197  1.0000
  H   H3918     1.0  0.93545  0.78135  0.51651  1.0000
  H   H3919     1.0  0.77896  0.67731  0.62056  1.0000
  H   H3920     1.0  0.90115  0.78550  0.49628  1.0000
  H   H3921     1.0  0.85230  0.85575  0.49272  1.0000
  H   H3922     1.0  0.93928  0.80163  0.52726  1.0000
  Fe  Fe249     1.0  0.64837  0.75612  0.72953  1.0000
  H   H3923     1.0  0.86736  0.81100  0.50313  1.0000
  H   H3924     1.0  0.78054  0.65879  0.60470  1.0000
  H   H3925     1.0  0.81636  0.76469  0.52496  1.0000
  H   H3926     1.0  0.79919  0.80930  0.50085  1.0000
  H   H3927     1.0  0.79775  0.68816  0.58417  1.0000
  H   H3928     1.0  0.84388  0.78757  0.50872  1.0000
  H   H3929     1.0  0.73017  0.67927  0.72536  1.0000
  H   H3930     1.0  0.73357  0.74620  0.72284  1.0000
  H   H3931     1.0  0.74137  0.68393  0.66277  1.0000
  H   H3932     1.0  0.98773  0.88551  0.49223  1.0000
  H   H3933     1.0  0.82706  0.88691  0.50259  1.0000
  S   S500      1.0  0.63714  0.78992  0.73264  1.0000
  H   H3934     1.0  0.77565  0.65700  0.66233  1.0000
  C   C2211     1.0  0.58792  0.65701  0.60269  1.0000
  H   H3935     1.0  0.96908  0.85724  0.49388  1.0000
  H   H3936     1.0  0.92882  0.80873  0.50355  1.0000
  C   C2212     1.0  0.96962  0.81695  0.49242  1.0000
  H   H3937     1.0  0.98151  0.87641  0.63916  1.0000
  Fe  Fe250     1.0  0.67061  0.78760  0.73468  1.0000
  H   H3938     1.0  0.64005  0.71263  0.73447  1.0000
  H   H3939     1.0  0.99026  0.81480  0.55724  1.0000
  H   H3940     1.0  0.50159  0.79671  0.85263  1.0000
  H   H3941     1.0  0.58329  0.89745  0.95739  1.0000
  Fe  Fe251     1.0  0.53380  0.87888  0.87763  1.0000
  S   S501      1.0  0.56143  0.89487  0.86374  1.0000
  S   S502      1.0  0.50399  0.89542  0.86604  1.0000
  Fe  Fe252     1.0  0.55743  0.84456  0.90779  1.0000
  S   S503      1.0  0.58689  0.85782  0.89616  1.0000
  S   S504      1.0  0.55581  0.81717  0.93548  1.0000
  Fe  Fe253     1.0  0.56480  0.88910  0.89708  1.0000
  S   S505      1.0  0.56820  0.91144  0.91487  1.0000
  Fe  Fe254     1.0  0.58052  0.86187  0.86411  1.0000
  S   S506      1.0  0.60741  0.85523  0.83686  1.0000
  S   S507      1.0  0.53568  0.87563  0.91094  1.0000
  S   S508      1.0  0.55245  0.84615  0.87572  1.0000
  Fe  Fe255     1.0  0.67277  0.74487  0.76484  1.0000
  C   C2213     1.0  0.67715  0.84634  0.93529  1.0000
  C   C2214     1.0  0.51610  0.78947  0.84241  1.0000
  H   H3942     1.0  0.75917  0.71789  0.76572  1.0000
  C   C2215     1.0  0.52955  0.80592  0.83015  1.0000
  C   C2216     1.0  0.78426  0.69347  0.75537  1.0000
  C   C2217     1.0  0.49932  0.98449  0.85477  1.0000
  H   H3943     1.0  0.68599  0.84406  0.94785  1.0000
  C   C2218     1.0  0.70278  0.69787  0.77856  1.0000
  H   H3944     1.0  0.54378  0.79784  0.82035  1.0000
  H   H3945     1.0  0.67643  0.70249  0.76387  1.0000
  C   C2219     1.0  0.57507  0.93529  0.89992  1.0000
  C   C2220     1.0  0.58000  0.93919  0.87795  1.0000
  H   H3946     1.0  0.57885  0.92769  0.86999  1.0000
  C   C2221     1.0  0.60557  0.83658  0.82371  1.0000
  C   C2222     1.0  0.59027  0.82405  0.83209  1.0000
  C   C2223     1.0  0.58945  0.80871  0.82192  1.0000
  C   C2224     1.0  0.62010  0.83362  0.80500  1.0000
  H   H3947     1.0  0.57939  0.82571  0.84668  1.0000
  H   H3948     1.0  0.57778  0.79885  0.82873  1.0000
  H   H3949     1.0  0.63205  0.84321  0.79844  1.0000
  H   H3950     1.0  0.75488  0.75567  0.75373  1.0000
  H   H3951     1.0  0.49689  0.87700  0.81195  1.0000
  H   H3952     1.0  0.67674  0.87967  0.92616  1.0000
  C   C2225     1.0  0.57326  0.81796  0.95061  1.0000
  H   H3953     1.0  0.64907  0.90968  0.96601  1.0000
  C   C2226     1.0  0.81084  0.67236  0.82895  1.0000
  C   C2227     1.0  0.68796  0.71890  0.86675  1.0000
  H   H3954     1.0  0.71677  0.76153  0.76892  1.0000
  H   H3955     1.0  0.69802  0.80453  0.80486  1.0000
  C   C2228     1.0  0.77141  0.71662  0.75097  1.0000
  H   H3956     1.0  0.52161  0.86924  0.77756  1.0000
  C   C2229     1.0  0.49583  0.85615  0.87044  1.0000
  C   C2230     1.0  0.55225  0.88045  0.81882  1.0000
  H   H3957     1.0  0.50863  0.84983  0.87876  1.0000
  H   H3958     1.0  0.64292  0.96953  0.93537  1.0000
  H   H3959     1.0  0.69602  0.89893  0.96873  1.0000
  H   H3960     1.0  0.50020  0.96708  0.83057  1.0000
  H   H3961     1.0  0.66591  0.83533  0.94094  1.0000
  H   H3962     1.0  0.64728  0.78590  0.81449  1.0000
  H   H3963     1.0  0.80559  0.68703  0.81759  1.0000
  C   C2231     1.0  0.51168  0.95310  0.95799  1.0000
  H   H3964     1.0  0.61775  0.71908  0.83930  1.0000
  H   H3965     1.0  0.55150  0.97139  0.84317  1.0000
  H   H3966     1.0  0.53743  0.93971  0.86648  1.0000
  H   H3967     1.0  0.58890  0.93464  0.95914  1.0000
  C   C2232     1.0  0.52487  0.93510  0.94746  1.0000
  H   H3968     1.0  0.63020  0.81639  0.78004  1.0000
  C   C2233     1.0  0.51369  0.85693  0.78904  1.0000
  C   C2234     1.0  0.65795  0.77511  0.82484  1.0000
  H   H3969     1.0  0.78200  0.72746  0.74981  1.0000
  H   H3970     1.0  0.80847  0.70043  0.76730  1.0000
  H   H3971     1.0  0.51609  0.88419  0.96125  1.0000
  C   C2235     1.0  0.53934  0.87827  0.97991  1.0000
  C   C2236     1.0  0.64733  0.97347  0.94847  1.0000
  C   C2237     1.0  0.50638  0.98655  0.89760  1.0000
  H   H3972     1.0  0.58700  0.86941  0.96866  1.0000
  H   H3973     1.0  0.52260  0.96334  0.95731  1.0000
  H   H3974     1.0  0.59997  0.81950  0.92460  1.0000
  H   H3975     1.0  0.66591  0.80181  0.83248  1.0000
  H   H3976     1.0  0.57577  0.81504  0.75462  1.0000
  C   C2238     1.0  0.60747  0.82258  0.95265  1.0000
  H   H3977     1.0  0.56108  0.82392  0.79578  1.0000
  C   C2239     1.0  0.61934  0.73130  0.82444  1.0000
  C   C2240     1.0  0.69036  0.69165  0.76847  1.0000
  C   C2241     1.0  0.61444  0.77985  0.87518  1.0000
  H   H3978     1.0  0.67573  0.80637  0.79366  1.0000
  H   H3979     1.0  0.77336  0.68213  0.76107  1.0000
  H   H3980     1.0  0.68172  0.93777  0.95794  1.0000
  H   H3981     1.0  0.50873  0.84866  0.77938  1.0000
  H   H3982     1.0  0.51082  0.81447  0.93360  1.0000
  C   C2242     1.0  0.57692  0.95000  0.91028  1.0000
  H   H3983     1.0  0.61460  0.76820  0.83809  1.0000
  C   C2243     1.0  0.61916  0.81837  0.79465  1.0000
  C   C2244     1.0  0.66508  0.86923  0.93072  1.0000
  H   H3984     1.0  0.66845  0.75896  0.86453  1.0000
  H   H3985     1.0  0.68863  0.84238  0.92098  1.0000
  H   H3986     1.0  0.66527  0.93745  0.94139  1.0000
  C   C2245     1.0  0.59527  0.88276  0.96093  1.0000
  C   C2246     1.0  0.55895  0.94703  0.82572  1.0000
  H   H3987     1.0  0.62207  0.86335  0.94555  1.0000
  C   C2247     1.0  0.67254  0.73100  0.85229  1.0000
  H   H3988     1.0  0.60415  0.88456  0.97193  1.0000
  C   C2248     1.0  0.65828  0.75070  0.86019  1.0000
  H   H3989     1.0  0.65421  0.87220  0.94563  1.0000
  H   H3990     1.0  0.61006  0.96222  0.95004  1.0000
  H   H3991     1.0  0.59216  0.79541  0.89905  1.0000
  C   C2249     1.0  0.52126  0.97387  0.88132  1.0000
  C   C2250     1.0  0.66540  0.93635  0.95815  1.0000
  C   C2251     1.0  0.50259  0.93421  0.89952  1.0000
  C   C2252     1.0  0.58903  0.97240  0.87670  1.0000
  H   H3992     1.0  0.50912  0.81830  0.80741  1.0000
  H   H3993     1.0  0.58592  0.97951  0.90681  1.0000
  H   H3994     1.0  0.53875  0.88211  0.79287  1.0000
  H   H3995     1.0  0.55709  0.85879  0.76555  1.0000
  C   C2253     1.0  0.63559  0.74408  0.82358  1.0000
  H   H3996     1.0  0.58109  0.84005  0.73832  1.0000
  H   H3997     1.0  0.53042  0.98196  0.91597  1.0000
  S   S509      1.0  0.69555  0.72304  0.78435  1.0000
  H   H3998     1.0  0.62262  0.74490  0.85670  1.0000
  C   C2254     1.0  0.74394  0.75963  0.74278  1.0000
  C   C2255     1.0  0.60598  0.79854  0.88611  1.0000
  H   H3999     1.0  0.59120  0.96063  0.84930  1.0000
  C   C2256     1.0  0.58395  0.96851  0.89869  1.0000
  H   H4000     1.0  0.62457  0.72322  0.81103  1.0000
  H   H4001     1.0  0.60103  0.77736  0.86990  1.0000
  H   H4002     1.0  0.67921  0.71381  0.88309  1.0000
  H   H4003     1.0  0.68162  0.97117  0.93516  1.0000
  H   H4004     1.0  0.51470  0.92229  0.89182  1.0000
  H   H4005     1.0  0.55092  0.93766  0.82009  1.0000
  H   H4006     1.0  0.69759  0.70458  0.86101  1.0000
  C   C2257     1.0  0.49319  0.86884  0.80148  1.0000
  H   H4007     1.0  0.65664  0.95126  0.90305  1.0000
  H   H4008     1.0  0.80571  0.67321  0.77498  1.0000
  C   C2258     1.0  0.62867  0.75591  0.84198  1.0000
  H   H4009     1.0  0.56181  0.86880  0.82966  1.0000
  C   C2259     1.0  0.49432  0.95334  0.88285  1.0000
  C   C2260     1.0  0.59409  0.82006  0.94099  1.0000
  C   C2261     1.0  0.54735  0.83011  0.78789  1.0000
  C   C2262     1.0  0.72088  0.68380  0.78436  1.0000
  C   C2263     1.0  0.55522  0.84289  0.76545  1.0000
  H   H4010     1.0  0.67941  0.88096  0.97036  1.0000
  H   H4011     1.0  0.68215  0.73519  0.83623  1.0000
  C   C2264     1.0  0.57925  0.82086  0.98369  1.0000
  H   H4012     1.0  0.74542  0.69698  0.74378  1.0000
  C   C2265     1.0  0.51661  0.82484  0.81658  1.0000
  C   C2266     1.0  0.67408  0.78767  0.82581  1.0000
  H   H4013     1.0  0.61836  0.80093  0.89299  1.0000
  N   N123      1.0  0.64943  0.95432  0.96643  1.0000
  H   H4014     1.0  0.69887  0.72891  0.86677  1.0000
  S   S510      1.0  0.63988  0.74262  0.76435  1.0000
  C   C2267     1.0  0.50107  0.94447  0.98109  1.0000
  S   S511      1.0  0.60206  0.78669  0.79078  1.0000
  N   N124      1.0  0.51056  0.96578  0.86878  1.0000
  C   C2268     1.0  0.58710  0.95771  0.86631  1.0000
  H   H4015     1.0  0.56948  0.93615  0.83604  1.0000
  C   C2269     1.0  0.52737  0.95154  0.85613  1.0000
  H   H4016     1.0  0.69556  0.78212  0.79639  1.0000
  H   H4017     1.0  0.54365  0.84495  0.75547  1.0000
  H   H4018     1.0  0.66261  0.71996  0.85249  1.0000
  H   H4019     1.0  0.53209  0.94182  0.93100  1.0000
  H   H4020     1.0  0.64817  0.74443  0.87539  1.0000
  H   H4021     1.0  0.53467  0.81133  0.84186  1.0000
  H   H4022     1.0  0.68541  0.66612  0.75783  1.0000
  H   H4023     1.0  0.56359  0.86325  0.79431  1.0000
  C   C2270     1.0  0.54795  0.86972  0.80348  1.0000
  H   H4024     1.0  0.50338  0.83206  0.82802  1.0000
  C   C2271     1.0  0.61606  0.94651  0.95961  1.0000
  H   H4025     1.0  0.63678  0.75572  0.80831  1.0000
  H   H4026     1.0  0.53714  0.88779  0.82814  1.0000
  H   H4027     1.0  0.61942  0.76567  0.88711  1.0000
  H   H4028     1.0  0.65117  0.73322  0.82335  1.0000
  Fe  Fe256     1.0  0.63146  0.77656  0.76734  1.0000
  C   C2272     1.0  0.53606  0.85157  0.81537  1.0000
  H   H4029     1.0  0.66702  0.76260  0.81612  1.0000
  S   S512      1.0  0.66379  0.77794  0.76985  1.0000
  H   H4030     1.0  0.52262  0.85738  0.82757  1.0000
  C   C2273     1.0  0.68658  0.79561  0.80380  1.0000
  H   H4031     1.0  0.82531  0.67385  0.83318  1.0000
  N   N125      1.0  0.63772  0.89404  0.90926  1.0000
  C   C2274     1.0  0.62158  0.89686  0.92919  1.0000
  C   C2275     1.0  0.64965  0.91186  0.90256  1.0000
  C   C2276     1.0  0.62618  0.89423  0.89273  1.0000
  C   C2277     1.0  0.65323  0.87324  0.91261  1.0000
  C   C2278     1.0  0.59994  0.82345  0.97390  1.0000
  C   C2279     1.0  0.61054  0.87799  0.94083  1.0000
  C   C2280     1.0  0.63980  0.89384  0.87027  1.0000
  C   C2281     1.0  0.63627  0.93437  0.89608  1.0000
  C   C2282     1.0  0.64972  0.95126  0.88977  1.0000
  H   H4032     1.0  0.55027  0.81525  0.97975  1.0000
  H   H4033     1.0  0.62678  0.93670  0.94869  1.0000
  C   C2283     1.0  0.62596  0.89574  0.85478  1.0000
  H   H4034     1.0  0.60866  0.91077  0.92581  1.0000
  H   H4035     1.0  0.62867  0.90068  0.94057  1.0000
  H   H4036     1.0  0.65674  0.91232  0.91560  1.0000
  H   H4037     1.0  0.66337  0.90907  0.88938  1.0000
  H   H4038     1.0  0.61295  0.90813  0.89155  1.0000
  H   H4039     1.0  0.61844  0.88037  0.89748  1.0000
  H   H4040     1.0  0.64522  0.85979  0.91519  1.0000
  H   H4041     1.0  0.66574  0.87197  0.89815  1.0000
  H   H4042     1.0  0.53789  0.92608  0.95573  1.0000
  H   H4043     1.0  0.54365  0.81585  0.78521  1.0000
  H   H4044     1.0  0.60138  0.87477  0.93090  1.0000
  H   H4045     1.0  0.50973  0.93923  0.90994  1.0000
  H   H4046     1.0  0.65154  0.87873  0.87017  1.0000
  H   H4047     1.0  0.64832  0.90714  0.86420  1.0000
  H   H4048     1.0  0.62928  0.93563  0.88246  1.0000
  H   H4049     1.0  0.62324  0.93840  0.90933  1.0000
  H   H4050     1.0  0.63958  0.96711  0.88539  1.0000
  H   H4051     1.0  0.51671  0.82878  0.96347  1.0000
  H   H4052     1.0  0.66262  0.94854  0.87593  1.0000
  H   H4053     1.0  0.60367  0.74191  0.82324  1.0000
  C   C2284     1.0  0.54271  0.96283  0.83749  1.0000
  H   H4054     1.0  0.56895  0.95567  0.81189  1.0000
  H   H4055     1.0  0.50047  0.84102  0.92027  1.0000
  H   H4056     1.0  0.49269  0.98850  0.96926  1.0000
  H   H4057     1.0  0.53658  0.86116  0.95837  1.0000
  H   H4058     1.0  0.61494  0.91136  0.85301  1.0000
  H   H4059     1.0  0.63607  0.89420  0.83909  1.0000
  H   H4060     1.0  0.61664  0.88303  0.86024  1.0000
  H   H4061     1.0  0.56129  0.89302  0.80998  1.0000
  C   C2285     1.0  0.60382  0.80588  0.80317  1.0000
  C   C2286     1.0  0.79687  0.68986  0.77235  1.0000
  N   N126      1.0  0.52865  0.84127  0.80200  1.0000
  H   H4062     1.0  0.53203  0.96066  0.88978  1.0000
  H   H4063     1.0  0.68562  0.77756  0.83543  1.0000
  H   H4064     1.0  0.62356  0.82422  0.94513  1.0000
  H   H4065     1.0  0.60078  0.81331  0.87485  1.0000
  H   H4066     1.0  0.51493  0.92422  0.94726  1.0000
  H   H4067     1.0  0.57321  0.94696  0.92729  1.0000
  H   H4068     1.0  0.54720  0.83973  0.82450  1.0000
  H   H4069     1.0  0.50937  0.85349  0.94720  1.0000
  H   H4070     1.0  0.64404  0.79029  0.86191  1.0000
  H   H4071     1.0  0.62625  0.79794  0.84453  1.0000
  H   H4072     1.0  0.58547  0.94648  0.98118  1.0000
  H   H4073     1.0  0.73052  0.68864  0.79213  1.0000
  C   C2287     1.0  0.63299  0.78433  0.85616  1.0000
  C   C2288     1.0  0.72277  0.77137  0.75342  1.0000
  C   C2289     1.0  0.52576  0.87025  0.96996  1.0000
  N   N127      1.0  0.64477  0.76609  0.84565  1.0000
  H   H4074     1.0  0.52012  0.94180  0.85002  1.0000
  H   H4075     1.0  0.58910  0.83049  0.76325  1.0000
  H   H4076     1.0  0.54949  0.88790  0.96733  1.0000
  H   H4077     1.0  0.53406  0.97440  0.82586  1.0000
  H   H4078     1.0  0.51139  0.78264  0.83144  1.0000
  H   H4079     1.0  0.49997  0.96257  0.94841  1.0000
  H   H4080     1.0  0.72934  0.73226  0.74956  1.0000
  C   C2290     1.0  0.56608  0.81764  0.97213  1.0000
  H   H4081     1.0  0.72470  0.78645  0.75586  1.0000
  C   C2291     1.0  0.50285  0.84182  0.96094  1.0000
  H   H4082     1.0  0.79804  0.67085  0.84330  1.0000
  C   C2292     1.0  0.57657  0.83135  0.75481  1.0000
  C   C2293     1.0  0.62765  0.94926  0.97560  1.0000
  H   H4083     1.0  0.79555  0.68923  0.74117  1.0000
  H   H4084     1.0  0.78603  0.69276  0.78736  1.0000
  C   C2294     1.0  0.66725  0.98344  0.93867  1.0000
  C   C2295     1.0  0.69547  0.67105  0.76504  1.0000
  C   C2296     1.0  0.49636  0.82710  0.93264  1.0000
  N   N128      1.0  0.49402  0.85168  0.97989  1.0000
  H   H4085     1.0  0.71089  0.77510  0.74348  1.0000
  C   C2297     1.0  0.59695  0.93635  0.97088  1.0000
  H   H4086     1.0  0.68660  0.89922  0.94581  1.0000
  H   H4087     1.0  0.52538  0.77646  0.85256  1.0000
  C   C2298     1.0  0.72641  0.66339  0.78027  1.0000
  C   C2299     1.0  0.68242  0.89719  0.96318  1.0000
  C   C2300     1.0  0.66269  0.91346  0.96980  1.0000
  H   H4088     1.0  0.63412  0.98618  0.95363  1.0000
  H   H4089     1.0  0.49290  0.93193  0.98107  1.0000
  H   H4090     1.0  0.49656  0.97647  0.91011  1.0000
  H   H4091     1.0  0.49099  0.90960  0.92499  1.0000
  H   H4092     1.0  0.53180  0.98447  0.87056  1.0000
  H   H4093     1.0  0.60196  0.92042  0.98062  1.0000
  H   H4094     1.0  0.67197  0.96580  0.97647  1.0000
  C   C2301     1.0  0.71344  0.65687  0.77100  1.0000
  C   C2302     1.0  0.65670  0.96043  0.98299  1.0000
  H   H4095     1.0  0.61708  0.96205  0.98332  1.0000
  H   H4096     1.0  0.82775  0.65601  0.80444  1.0000
  C   C2303     1.0  0.49198  0.98183  0.98631  1.0000
  C   C2304     1.0  0.74116  0.73983  0.73673  1.0000
