data_image0
_chemical_formula_structural       NH5FeHCH2CSFeSHCH3SCH2C5HCHCHC6HC2HC4H3CH4CSC7H7CH3SH4SCH2CH2C3HCFeNS2H5CH3C2H2CH2CH5SC2HCH3CH4CFeHCH3C2H3CH2CHCH2SH3CH2NH5CH9CH5CHSH3FeSHFeS2FeSFeS3FeS2FeS2FeSFeS3H3CH3SHSFeS2FeS2FeSFeS3FeS2FeS2FeS2FeSFeS3FeHFeS4FeHSH3CFeSHSHC2H2C6H4C6H4C8H4C6H4C6H4C6H4C6H4C4HCH3C4H2C6H6CH6CH2CNC3H2C3H3CH11CH12CHCH2CH4C2H2CHCHCHCH7C2SH4SCHFeHCHC4H4C2SHC3SH2NH4CHCH3NC9H9CH9C2HNC12H28C3H9NC8HC3H26CH3NH2FeCH2CH3CH2CSC2HSHC3H3CHCHC2H3CHCHSH2CH3CHNHCH2CH2SC3HCH4SH2CH2C4H3NC3HCH14CH6CH3SCH3CHCH2C2H2CH2CH6CH2C2FeHNHCHCHCFeH4CHCHCHCH2FeHCSH3C2H7C2HCHSH2CHC3NH4CHC2HCFeC2HCNH7CHCHCH8FeC3H5CH4CH3CSCHC2HC2H4SHSCHCSCFeSFe2HFeSCH2SH2C2H2C2HSC2S2CHCHC2H2C4H4CH5C4H3CH2CH2CH13FeH2C2HCH3CHFeSHC4H6CH12C2HC6H2CH19CHS2H2NC7HSC3H16C2H4CHCHC3HCSH2C2H2C4HC2NH4CH2C3H6CH2CHCH2CH2CHCHCHNHC4H3S2HCHC4HCNH5C2H3SCHC2H2SCH2C2H2FeC3H2FeH5CH2CH4C2H3NCHCHCH2CH4CH7NH6CH2NCH5FeC3H3SCFeH2C2H4CHC2HC3H5CH5SCHCH3CHCHCHCHCHSC2H2CHSH3FeS2FeS2FeSFeS3HFe2S2FeSFeSFeS2H2FeS2FeS2FeSFeS3H2SHFeS2FeS2FeSFeS4C6H4C6H4C6H6C6H4C6H8C3H4Fe2HC6H4C6H4C3H5CH2C5H5C4H2CH4C2H2FeH9CHCH5C3H2CHCNC12H19C2H6NC2HC2H2CH2C2H3CH4CSHSH3NC2HCHC2H4NC11H17CH11FeCH4CH3C2H3NC5H11NC9HC2H11CH7SH4C2H4C3H2C2H3CH8CNCHC2H4C2H4CH4CH2CHCH2CHCH2CH3C2H2CSH4C3SH4C3SH2CH7CSH3C2HNCH3C3H2CH2CH2CH2CHCH6CH2CH5C2H4C2HCH2C2H4CH3CH2CSH2CH3CH5CHC3HCHSHSCH4NHCH5CH3C2HCHC2HCH8CH4CH2CH3C2H2NHCNH2CH2CH3C2H2CH7CH2SH2CH3CNH4CHC5H3C3H3CHNH2C2SH3SCH3CH2CH3C2HSH6CHCHC2H2CH2NH3CH2SH5SH3CH3CHCNH2C3H4SHC3HCH2C2HCFeSH2C2H6CH3CFeH4SH3FeCSFeHS2CHS2C2HSHFeSFeSCHFeS2FeS2FeSFeS3FeS2FeSFeS2HFeS2FeS2FeSFeHS2H4C2HC2HSH4CH5C3H3CHCHCH4CHCH2C6H4CH4C6H2C6H6SHC2H3C3H4C3HCH3NC6HCH2C6H5SC2HCHC4H4C2FeHCH6CHSH2CSH3NHCH2NHFeHCHC2HCH7C2H3C2H4C2H6CHC4H5CH3CH2C2H2C2SHCH5FeH3NC9HC2H20CH8NCH2CH4C2HC2SHC3HC3HSH2CH5FeC2NH4CH5CH2CH6C3H3SCH3FeSH3CH4C2HCHCSHCNC8HC2H7FeCHC2NH5CH5CHC2H5CHC2HFeH6C2H3CHCHCH8FeH4CH2SCH3CH2CH2CH2CHC4HCHCH4CH2FeS2FeS2FeSFeS3FeS2FeSCFeSFeS3H2FeS2FeS2FeSFeS3NFeS2FeS2FeSFeS3FeS2FeHCHFeHS2HSC2FeC2H3C6H6C3HCHFeHC6H4C6H4C6H4C2H4C7H4C6H4C6H5C4H3NHFeHCHCH4CH2C2H9CH2C2H13CH2CHCHCH6C3H2C2SC3HCH9SC2H5C2HCH2CH2NC8H2CH3CH4CH5C2H6NH4CH3CHCH4C3HNC11H21CH2NC12H28C3HFeCHCHC2H6NHSH2CHCHCH6NC5HC6H19C2H6CH2CH3CNHCH6C3H5CH3CH3CH3C2NH2CH4CHC2HCHCH7CNH3CH4FeH3CH2CH3CH2C2HCH2CHCH4C2H2CHCHC2H3CNH5CH2C2HCHCH5C2H6SCHSCHCH3SCH4CH2CHC2H3C4H15CH2CSH2C2HCH2CFeS2CSFeHFeC2SCH2SHCH2C3H2CH2CHC2H3SCH2NCH2NH3CH10CHCH3CHCH2C2SCH3C4HC2HCH3CH5CH6CHCSCHC4HCH2C2HCHNH11FeHCHCH3CH9C3HCNHCH4CHCH9SHCH2CHC3H2C3HC2H2SH2SC2HCFeSFeSHCHFeS2FeS2FeSFeS3CHFeC2SHCFeS2FeSFeHSHFeHSH2SH2FeSCSC3H2C6H2CHC6H4C10H4C6H3FeC6H6C7H3C6H4C6H5C2HCH5CSH2SH4SH5NCHCHCH2C2H7NCSH4NC8HC2H9CH5SNCH3NH9CNH2C2H2C2HCH2CH2FeH10C2H4C2HCHS2H2NC12H26CHCHCFeCH6CHSH4C3H3CH3FeH2SH2C2HSH2CH3CH5SH4C2FeHNH3SCHCHCH12C2HCH2CH6C2H2SCHCHSH3CHCHSHNC5HCH2CH3CHCH5C2HFe2C3SH9Fe2CHSHSH2CS2HCHSCH2CH2CHCH2CH4CH3CHSCH4SFeHNH3CH2FeCH3FeCHFeSHFeSCFeSH4C3H6C2S2H3CH2CH4CHC7H4SH2CH2SHC2NCHC2HC2H3C2HCH4CHSCH4NHCHCH3CH4C2H2FeCH4CHCHC2H2C2H6NHCHSCHCHSH4SC2H3SH4CHCHCH5CHCH3CH4CH3CHSH2FeH2SHSFeS2FeHSFeSFeHS2FeS2FeS2FeSFeS3C2FeSHS2FeSCFeSFeS2FeS2FeS2FeSFeS3CSFeSHCSC2SHFeHFeSCSFeS2FeS2FeSFeS3C6H4C6H6CHCFeHC6H4C2FeC3H2C6H4C6H4C7H4C6H5CH3C2H2C7H4CHCSC2HSHC3H4CHCH5CH5SC2H2NC12H25SHNC12H28CFeC6H5N2H5CH5CH4CH5C3H9NC8HC3H16CH2FeC2H3C2H4CSH2NCH3CHCHC3H3CH2CH3CH2CHCHSCH3CH2C2HCH2CHCH5CHNC2H2CH2C2H3S2H2CSCH3CH3CHCH2CH2C3HCH5SH3CH7CNCH5CH3CHCH3NCHCHFeHCH6C2H2CH5CH2CH4CHCHCH2CHCH3CSH4CH2CH4CHCHCNH7CHSH7CH9CSH2CH5CH4C2HSCHC5NHCHCH2CH12CH2C2H3CH3CSHCH5CH4SCH6FeH2CSHCH3CHCH5CHFeC2SH3FeH2CH3CHC2HCHCHNH4C2H2CHNH5CH4C2FeH2C2H5CHCHCH6C2HNCSFeH3CH2C3SCHFeSHSFeSCFeS2FeSFeS3H2SCH2SH6SCNH2S2HC2FeSCH2NCH3C7H3CH8C2HCH7C2H3CNCHC4HNH4CHNH2C8H4CHCH3C2HCH5CHCHCH4CHFeHCHCH5C3HC2SFeC3FeHCHNCH3FeHSHCH2CHSH8C2SCH3C2HS2HCSH2C2H2FeCHCH3SCH2SHSH3CH4CSCFeCHCHCH2NHC2H3C6H6SHCH8C3H14CHCFeHCS2H6C2H2C2HCHC5HCSH2CH2CH5SH3CHCH8CH2C4H2CH4C3HC2H2CH2CHCSHCH2CHCH2NH2CH5CH7C5H3C3H4CHCH9NC2H2CH2CH2CHC3H3C3HC2H3CH8CH2CH2C2H5CHC2HC2H2C2H2CH2CHCH6SFeS2FeS2FeSFeS3FeSHFeSHFeSFeHS2H3S2FeSFeS2FeS2FeSFeS3HSFeS2FeS2FeSFeS3FeS2FeSCFeSFeS3H2C9H4C6H4C5H2CH2C6H4C6H4C6H8C2H3C6H4C6H4C6H4C6H4C4HCH4CH3CH4C2HCH7C3HCHNC10H23C4NC12H28NC9SC2H19CHCH6NH3CH4SC2H4FeH2C2H7NHNCH2C2SCH2CH5CH6C2HCSH2CHC3H2CH7CSHC3H2CHSC2HNC12H28CNCFeC5HCH2CH4CH3CH3CHN2C3H3CH4CH2CH3C2HCH5FeCH2CH6CNH3C3H8CH4CHCH2FeH2CH3SFeH2C2HCH3CH5FeHC3H5CHCH3SH4FeHSH2FeSCHSHCH3CSC2SCHCHNC9HC2H17FeCHCH2CH7C4H4SH2CH10CH2CH2CH3C2H2NC12H18CH4SH5CH2CH3CHSH4CH4CHSH2SHC2H2FeHCHCHCSH4CFeHCHCFeHSH3SH4SCFeSH2CH3CHSHS2CHCFeS2FeS2FeSFeS3C6H4C6HSH2C6H4C6H4CHSC3H4C2HCHCH5SCHC2H4SC2HCH3CH2CH3CH5FeHSHNHCH3CH4SH2NHCH2C2HCH2SCH6CH2CH4SH6C2H5CH4CNHCHCHSCHCHCHCHSH5C2HSH2CHCHCH2C3HC2HCSC2H4CHFeHCHSH5CHC3HCH3CH3C4H2CH3CH5CH4CHCH2CH2NC12H28CHNC5HCH2CNH5C2SHCH2FeCSCHFeH5CHSFeH2CH2NH4CHCH5CHCH6C2H3C4HC3H4CH2FeH3CHCHSHCHFeS2FeS2FeSFeS3HFeS2FeS2FeSHFeSFeS3H8FeSNFeSCSCHSFeS2FeS2FeSFeS3C6H4C6H6CHC10H5CSH2CH3C5H3CH4C6H4C6H4C6H4C6H7CH5C2H3SHCH5CH6CH2CHC2H2CNC12H29NSHC4H13CSHFeH8CH3CH2CHC3HSHCH2C3HCHCHCHC2HC2HNC12H32CH2CHCS2CH2FeHCN2C3HC7H7NH6C2H8CH3C2H8CHS2CSFeH5CFeSHCH4CH2NC4H2SHC2HFeH2SC2H8CH8CHC2H3C2H3C3H2C2H5CH2C3H4CH3NHCH2CH3CHNH3CH7CH4CH2CH4C3H2CHCHCHSHCH5C2HC2H4CHCHCHCH4CHCSH2CHCHC3H2SCH2CH9CH2CHCNH2CFeH2C3H2CHCHCSH3C2H3C2H2FeHNC2HCH4C2FeHCH2NHC2HC2HCH6CH2C3H3SH4C2H4C2H2CH2CH4CH4SC4H3CHCH2C2HCH2CHCH3SCHCH5CH4FeHSFeHSH3S2FeS2FeS2FeSFeS3CH3C4H2C2FeS2FeS2FeSC2S2HS2CH3FeS2H2C2FeSCSC2S2HSHC2HC6H4C6H4C6H3CH3C2H6C5HSCH4C2H2C2H4C6H4C6H4C4H6C6H4NHNC12H29SH4CH2CH4CH3CH4C2HCH4CHFeH2CSH4SHCH2CHCHCHNH13NC2HSHCH4NC4H2C6H18CH3NH5C2HCHC2HSC4H10CHCH2CH5CHCNC10HCH10CH10CH2FeSHCHCHC2HCNSHFeHFeCH2CH6NCH7CHCFeH6SH2CH3CHFeH2FeH3C3H2C3H3SNH2C4HFeHC2H2C2H3C2HNH2CH2CH3CH4C3H6CFeCH2CH2FeHCHSH4CHCHFeS2Fe2S3FeS2FeS2FeSFeS3FeS2FeS2FeSFeS3HSH2CHFeHFeSH2FeS2FeS2FeSFeS3H2FeS2FeSFeSHS2C4H5CH4C6H4C3H3CH4C6H4C6H4C6H4C6H4C6H4C3H3C7H4C6H5C2NC4H2C3H2CH20CH3NH3NC12H28NC9H8CHCHCH3NC9H23CH4CNC12H22C2HSHCNC8HSCH15C2HFeH6NC10H26NC12H26CH2CHNHCSH4CHCH2FeHCH5C2H5CHFeNCHC3HCH5CH7C3HCH4CH6CSCH2C2HSHCHCH2CHSCHCHSCH3C2HSCH5SC2HCSCHCH9NC2H2CH5CH5CSCHFeH2CHC2H10C2FeC2H11CSCHCHCH3CH3CSHC2H4CH2CH3NH2C2H2C2H2CHSHCH5C2H6CFeC5HCHSH3NCH6C2HSHCH3CSCH2CH5C2HSH3FeH5CHC3HSH3C3H2CH6CHCH2NH5FeSFeSCHSHFeS2FeSHFeSFeS3FeS2FeS2FeSFeS3H4SH2SH2SHFeSFeSHFeHSHFeS2FeSFeSFeSFeSFeHS2CH2CHC6H4C6H4C6H13C6H4C6H7C2H6CH8C6H4CH3SCHCNC12H28NC10H25C2HCHCSH3SH2CH2C2H10NH2NCH4NC12H29CHCNC7HC2H8CH4NH2CH2SNC12H17CHCHFeH2CHCHCSHC3H4CHCHCH4FeSC2HCHCHSCH3CNCH2CHSHNHC2H3CH2CH2CHCHFeHFeHC2H4SCHC3SC2H3CH2FeC2HSC3SHFe3HC3HCH2CH3CH2CHCH5SC4SHCHCH2SC2H3CHCH4C2SC4H4CH2SHFeSHCS2CNFeSCH2CSCH4C2HFeHCH2CH2C2HCH2C6H5C2H4CH3NFeSH5CSH4CH5CH3C2NH2CNC4HC2FeC4HC2H4C2H2SH7CHCHFeH6C2SCSH5CH9CH2CSHCNC11H7CH5CH7CH4C2HCHCHCHSFeHCH6C2HCH2CH3SHCHSCNC2H3C2H4CH2C5H2CH3CH6C2H7FeH2CHCHCH5CHCSHCHSHFeS2FeS2FeSFeS3H2SC3HCFeSCH2SH2CHSFeS2FeS2FeSFeS3FeS2FeS2FeSFeS3HSHSFeSH2SC6H6C4H3C6H4C7H4CHNC6H5SH3CH3C6H4C6H4C6H4C2H3C6H3FeCH2C3HSNC10HCH26CN2C5HC6H10CH12FeH4NC10HCH19CH3C2H3NC12H28NC12H24FeH4CH13CSCH6CFeSH6CH2CH2C2NC2HCH2C3H2CH2CH12C2H5CHFeNCHCSC3H2CH2CH2CSCH5CHSFeCH3CH6C2HNH6CH2NC12H20FeHCHSH2C2H5C3FeCHC2H6C2H4C2H5SCHC2HFeCH2C2NH4CHCHSCH4CHC2H3C3H2CH6CSCH4CH2CH11CH9CFeH2SCFeC2H2CHCHSHFeH2S2C2HC2H2SH2SH2SFeC2H2SH2CHFeSC4FeS2FeS2FeHFeS3H4CNH2CS2H2SFeSHFeSFeS3H10CH2C10H3CH2CFeC2H4CHCH3CHC3H2C2HC2H6CH2CSCHC6SC4HSH2C2S2NC6H9FeH2SHSNC7H2C3H16CHCHCH4CH2FeHCHNC4HSC2H3CHNH6SCH6SH5SH3NC2HC8H5CH23NC7HC2H4CFeH12CHCHCH3CH5CHC2HFeCH2CHCHCHC2H2FeHC3H7CH2CSH2CNC5HC4HCH11CH11C3H2NC4H2CH2SHCH6CHFeHCHSH3CH4SCH3CFeHC3H7CH6C4H4CHC
_chemical_formula_sum              "N192 H6144 Fe384 C3456 S768"
_cell_length_a       133.743
_cell_length_b       66.5532
_cell_length_c       67.5228
_cell_angle_alpha    73.9669
_cell_angle_beta     73.9455
_cell_angle_gamma    73.9921

_space_group_name_H-M_alt    "P 1"
_space_group_IT_number       1

loop_
  _space_group_symop_operation_xyz
  'x, y, z'

loop_
  _atom_site_type_symbol
  _atom_site_label
  _atom_site_symmetry_multiplicity
  _atom_site_fract_x
  _atom_site_fract_y
  _atom_site_fract_z
  _atom_site_occupancy
  N   N1        1.0  0.18694  0.99616  0.21195  1.0000
  H   H1        1.0  0.04486  0.32147  0.25133  1.0000
  H   H2        1.0  0.00768  0.31091  0.11155  1.0000
  H   H3        1.0  0.06502  0.36187  0.21446  1.0000
  H   H4        1.0  0.99077  0.33879  0.13793  1.0000
  H   H5        1.0  0.00339  0.49096  0.18146  1.0000
  Fe  Fe1       1.0  0.17428  0.00453  0.30923  1.0000
  H   H6        1.0  0.99512  0.41928  0.21535  1.0000
  C   C1        1.0  0.22229  0.01215  0.25715  1.0000
  H   H7        1.0  0.00432  0.37643  0.28989  1.0000
  H   H8        1.0  0.04870  0.37260  0.25423  1.0000
  C   C2        1.0  0.23240  0.05677  0.26731  1.0000
  S   S1        1.0  0.99500  0.34190  0.24297  1.0000
  Fe  Fe2       1.0  0.19407  0.01670  0.31141  1.0000
  S   S2        1.0  0.16615  0.03897  0.29922  1.0000
  H   H9        1.0  0.21176  0.06203  0.30820  1.0000
  C   C3        1.0  0.03246  0.34741  0.26372  1.0000
  H   H10       1.0  0.03563  0.39997  0.25191  1.0000
  H   H11       1.0  0.04358  0.46951  0.30035  1.0000
  H   H12       1.0  0.00579  0.45157  0.27615  1.0000
  S   S3        1.0  0.04726  0.40050  0.28307  1.0000
  C   C4        1.0  0.04313  0.36499  0.22950  1.0000
  H   H13       1.0  0.02762  0.34306  0.19234  1.0000
  H   H14       1.0  0.15707  0.02828  0.25906  1.0000
  C   C5        1.0  0.00601  0.34240  0.30160  1.0000
  C   C6        1.0  0.00337  0.36181  0.28731  1.0000
  C   C7        1.0  0.99949  0.36217  0.26965  1.0000
  C   C8        1.0  0.99857  0.34302  0.26597  1.0000
  C   C9        1.0  0.00137  0.32378  0.28015  1.0000
  H   H15       1.0  0.17285  0.03306  0.23165  1.0000
  C   C10       1.0  0.06144  0.37117  0.22702  1.0000
  H   H16       1.0  0.21788  0.09204  0.24589  1.0000
  C   C11       1.0  0.05171  0.36327  0.24177  1.0000
  H   H17       1.0  0.00680  0.30850  0.30897  1.0000
  C   C12       1.0  0.04372  0.42845  0.27920  1.0000
  C   C13       1.0  0.04469  0.43887  0.29377  1.0000
  C   C14       1.0  0.04233  0.46137  0.28973  1.0000
  C   C15       1.0  0.02421  0.36824  0.20974  1.0000
  C   C16       1.0  0.03704  0.46278  0.25785  1.0000
  C   C17       1.0  0.04006  0.44050  0.26110  1.0000
  H   H18       1.0  0.04763  0.42959  0.30771  1.0000
  C   C18       1.0  0.00665  0.47381  0.29338  1.0000
  C   C19       1.0  0.00151  0.47547  0.18911  1.0000
  H   H19       1.0  0.03940  0.43267  0.24962  1.0000
  C   C20       1.0  0.00806  0.46049  0.20181  1.0000
  C   C21       1.0  0.00570  0.44020  0.21115  1.0000
  C   C22       1.0  0.99681  0.43497  0.20811  1.0000
  C   C23       1.0  0.99487  0.30445  0.13901  1.0000
  H   H20       1.0  0.99426  0.29813  0.15621  1.0000
  H   H21       1.0  0.23668  0.43106  0.29201  1.0000
  H   H22       1.0  0.01081  0.42840  0.22066  1.0000
  C   C24       1.0  0.23328  0.04985  0.23218  1.0000
  H   H23       1.0  0.16036  0.99969  0.26124  1.0000
  H   H24       1.0  0.99000  0.46913  0.24449  1.0000
  H   H25       1.0  0.01736  0.38164  0.21323  1.0000
  H   H26       1.0  0.08403  0.49295  0.26603  1.0000
  C   C25       1.0  0.21237  0.08248  0.25737  1.0000
  S   S4        1.0  0.01976  0.46571  0.20485  1.0000
  C   C26       1.0  0.00333  0.45391  0.29259  1.0000
  C   C27       1.0  0.02512  0.38388  0.24553  1.0000
  C   C28       1.0  0.20763  0.06478  0.19331  1.0000
  C   C29       1.0  0.19814  0.06956  0.20811  1.0000
  C   C30       1.0  0.19534  0.05414  0.22621  1.0000
  C   C31       1.0  0.20194  0.03365  0.22914  1.0000
  C   C32       1.0  0.21136  0.02873  0.21405  1.0000
  H   H27       1.0  0.20978  0.07688  0.17943  1.0000
  H   H28       1.0  0.19301  0.08534  0.20561  1.0000
  H   H29       1.0  0.19969  0.02148  0.24276  1.0000
  H   H30       1.0  0.01671  0.38227  0.25207  1.0000
  H   H31       1.0  0.02851  0.38467  0.27553  1.0000
  H   H32       1.0  0.22804  0.05439  0.28412  1.0000
  H   H33       1.0  0.03161  0.31640  0.25965  1.0000
  C   C33       1.0  0.00483  0.32354  0.29801  1.0000
  H   H34       1.0  0.02171  0.42237  0.27424  1.0000
  H   H35       1.0  0.23654  0.49200  0.21803  1.0000
  H   H36       1.0  0.20458  0.01660  0.18379  1.0000
  S   S5        1.0  0.01982  0.39423  0.32023  1.0000
  H   H37       1.0  0.03221  0.33824  0.22646  1.0000
  H   H38       1.0  0.04554  0.31643  0.28909  1.0000
  H   H39       1.0  0.19433  0.05416  0.17238  1.0000
  H   H40       1.0  0.19833  0.00732  0.16897  1.0000
  S   S6        1.0  0.18791  0.05185  0.30093  1.0000
  C   C34       1.0  0.18102  0.99921  0.23387  1.0000
  H   H41       1.0  0.01945  0.34896  0.24077  1.0000
  H   H42       1.0  0.03203  0.31236  0.29736  1.0000
  C   C35       1.0  0.03731  0.32347  0.26338  1.0000
  H   H43       1.0  0.03674  0.35235  0.27287  1.0000
  H   H44       1.0  0.98843  0.39693  0.30710  1.0000
  C   C36       1.0  0.21430  0.04443  0.19632  1.0000
  C   C37       1.0  0.02698  0.35338  0.23057  1.0000
  C   C38       1.0  0.02799  0.39504  0.25975  1.0000
  H   H45       1.0  0.21624  0.01271  0.21584  1.0000
  C   C39       1.0  0.00059  0.48170  0.31388  1.0000
  Fe  Fe3       1.0  0.18212  0.04182  0.27773  1.0000
  N   N2        1.0  0.03216  0.36243  0.24245  1.0000
  S   S7        1.0  0.22598  0.03901  0.17714  1.0000
  S   S8        1.0  0.18339  0.06086  0.24436  1.0000
  H   H46       1.0  0.99492  0.48949  0.24957  1.0000
  H   H47       1.0  0.20390  0.48914  0.31985  1.0000
  H   H48       1.0  0.04254  0.29349  0.28455  1.0000
  H   H49       1.0  0.22942  0.04343  0.22337  1.0000
  H   H50       1.0  0.22505  0.01369  0.23997  1.0000
  C   C40       1.0  0.01961  0.41533  0.26323  1.0000
  H   H51       1.0  0.06751  0.36918  0.23621  1.0000
  H   H52       1.0  0.05918  0.38845  0.21970  1.0000
  H   H53       1.0  0.22591  0.08163  0.21631  1.0000
  C   C41       1.0  0.99276  0.47004  0.18563  1.0000
  C   C42       1.0  0.02093  0.35617  0.19718  1.0000
  H   H54       1.0  0.98901  0.32673  0.17359  1.0000
  H   H55       1.0  0.22540  0.02181  0.28250  1.0000
  C   C43       1.0  0.21575  0.05832  0.25673  1.0000
  H   H56       1.0  0.01541  0.47007  0.29184  1.0000
  H   H57       1.0  0.23461  0.44462  0.31292  1.0000
  C   C44       1.0  0.20127  0.09243  0.25283  1.0000
  H   H58       1.0  0.02428  0.34822  0.27358  1.0000
  H   H59       1.0  0.07282  0.48280  0.23400  1.0000
  H   H60       1.0  0.17999  0.02531  0.19195  1.0000
  H   H61       1.0  0.01159  0.41168  0.27030  1.0000
  H   H62       1.0  0.04255  0.38061  0.21785  1.0000
  S   S9        1.0  0.21053  0.00523  0.31748  1.0000
  C   C45       1.0  0.19711  0.01934  0.17837  1.0000
  C   C46       1.0  0.00654  0.30521  0.12895  1.0000
  H   H63       1.0  0.21358  0.01851  0.26116  1.0000
  C   C47       1.0  0.19565  0.04145  0.16362  1.0000
  H   H64       1.0  0.05446  0.34636  0.24958  1.0000
  H   H65       1.0  0.01865  0.36737  0.18276  1.0000
  H   H66       1.0  0.07654  0.49027  0.20545  1.0000
  C   C48       1.0  0.22829  0.02419  0.26507  1.0000
  H   H67       1.0  0.21290  0.05611  0.24360  1.0000
  H   H68       1.0  0.02515  0.39559  0.23014  1.0000
  H   H69       1.0  0.19532  0.08349  0.26385  1.0000
  H   H70       1.0  0.20295  0.04248  0.15092  1.0000
  C   C49       1.0  0.98787  0.48244  0.25289  1.0000
  Fe  Fe4       1.0  0.03773  0.38521  0.31356  1.0000
  H   H71       1.0  0.00917  0.31600  0.13549  1.0000
  C   C50       1.0  0.03846  0.47332  0.27176  1.0000
  H   H72       1.0  0.99456  0.45563  0.29779  1.0000
  H   H73       1.0  0.03111  0.37500  0.19961  1.0000
  H   H74       1.0  0.16848  0.01210  0.26950  1.0000
  C   C51       1.0  0.17073  0.01722  0.23538  1.0000
  C   C52       1.0  0.99034  0.44983  0.19521  1.0000
  H   H75       1.0  0.01943  0.42737  0.24813  1.0000
  H   H76       1.0  0.18877  0.04428  0.15628  1.0000
  H   H77       1.0  0.04662  0.35269  0.21972  1.0000
  C   C53       1.0  0.16375  0.01411  0.25766  1.0000
  H   H78       1.0  0.00723  0.43960  0.30300  1.0000
  H   H79       1.0  0.99751  0.37711  0.25860  1.0000
  C   C54       1.0  0.18752  0.01800  0.19766  1.0000
  H   H80       1.0  0.18817  0.02913  0.20667  1.0000
  C   C55       1.0  0.06977  0.48943  0.21928  1.0000
  H   H81       1.0  0.03372  0.47168  0.24438  1.0000
  H   H82       1.0  0.00079  0.30891  0.27740  1.0000
  S   S10       1.0  0.18976  0.00700  0.28612  1.0000
  H   H83       1.0  0.19881  0.10928  0.25469  1.0000
  H   H84       1.0  0.01162  0.28891  0.13240  1.0000
  H   H85       1.0  0.98872  0.43345  0.27871  1.0000
  C   C56       1.0  0.23389  0.07283  0.21932  1.0000
  H   H86       1.0  0.18314  0.99793  0.17078  1.0000
  H   H87       1.0  0.06108  0.47858  0.20269  1.0000
  N   N3        1.0  0.22745  0.04777  0.25503  1.0000
  H   H88       1.0  0.99226  0.48930  0.31200  1.0000
  H   H89       1.0  0.18628  0.00269  0.24217  1.0000
  H   H90       1.0  0.16585  0.01788  0.22429  1.0000
  H   H91       1.0  0.20128  0.09234  0.23640  1.0000
  H   H92       1.0  0.01395  0.34933  0.20677  1.0000
  C   C57       1.0  0.03948  0.31071  0.28493  1.0000
  H   H93       1.0  0.23157  0.07430  0.26173  1.0000
  H   H94       1.0  0.21220  0.08436  0.27331  1.0000
  H   H95       1.0  0.21085  0.05030  0.27149  1.0000
  H   H96       1.0  0.06932  0.45743  0.21806  1.0000
  H   H97       1.0  0.23484  0.47001  0.27873  1.0000
  H   H98       1.0  0.99277  0.29290  0.13255  1.0000
  H   H99       1.0  0.00468  0.48652  0.27957  1.0000
  H   H100      1.0  0.98847  0.33137  0.11667  1.0000
  H   H101      1.0  0.05695  0.47192  0.23121  1.0000
  C   C58       1.0  0.06388  0.47344  0.21770  1.0000
  H   H102      1.0  0.17390  0.16988  0.31385  1.0000
  H   H103      1.0  0.98793  0.48143  0.17528  1.0000
  H   H104      1.0  0.02258  0.48788  0.31167  1.0000
  H   H105      1.0  0.23677  0.08171  0.22749  1.0000
  H   H106      1.0  0.23670  0.01552  0.26249  1.0000
  C   C59       1.0  0.98752  0.32693  0.13412  1.0000
  H   H107      1.0  0.19429  0.49493  0.30355  1.0000
  S   S11       1.0  0.03897  0.34966  0.32148  1.0000
  H   H108      1.0  0.13454  0.23103  0.49514  1.0000
  H   H109      1.0  0.05714  0.40606  0.35518  1.0000
  H   H110      1.0  0.08772  0.25362  0.59330  1.0000
  Fe  Fe5       1.0  0.19825  0.35115  0.62725  1.0000
  S   S12       1.0  0.21039  0.32458  0.61368  1.0000
  H   H111      1.0  0.15965  0.40196  0.61363  1.0000
  Fe  Fe6       1.0  0.18154  0.34982  0.60473  1.0000
  S   S13       1.0  0.19222  0.32301  0.59016  1.0000
  S   S14       1.0  0.16595  0.36507  0.59456  1.0000
  Fe  Fe7       1.0  0.19658  0.30872  0.62148  1.0000
  S   S15       1.0  0.19730  0.27344  0.63410  1.0000
  Fe  Fe8       1.0  0.20488  0.34131  0.58338  1.0000
  S   S16       1.0  0.21425  0.34368  0.54981  1.0000
  S   S17       1.0  0.18472  0.33398  0.63690  1.0000
  S   S18       1.0  0.19399  0.36938  0.59611  1.0000
  Fe  Fe9       1.0  0.20540  0.32986  0.42576  1.0000
  S   S19       1.0  0.20390  0.30953  0.45869  1.0000
  S   S20       1.0  0.22072  0.33869  0.40531  1.0000
  Fe  Fe10      1.0  0.18232  0.33406  0.42497  1.0000
  S   S21       1.0  0.17877  0.31453  0.45786  1.0000
  S   S22       1.0  0.17037  0.34552  0.40413  1.0000
  Fe  Fe11      1.0  0.18840  0.33298  0.46563  1.0000
  S   S23       1.0  0.18196  0.34499  0.49591  1.0000
  Fe  Fe12      1.0  0.19446  0.29271  0.44831  1.0000
  S   S24       1.0  0.19516  0.25725  0.45947  1.0000
  S   S25       1.0  0.19055  0.35476  0.43342  1.0000
  S   S26       1.0  0.19737  0.31077  0.41473  1.0000
  H   H112      1.0  0.08062  0.25750  0.53042  1.0000
  H   H113      1.0  0.08894  0.29540  0.59681  1.0000
  H   H114      1.0  0.99491  0.42828  0.40687  1.0000
  C   C60       1.0  0.99503  0.42943  0.35613  1.0000
  H   H115      1.0  0.12639  0.21871  0.54360  1.0000
  H   H116      1.0  0.13542  0.33992  0.52102  1.0000
  H   H117      1.0  0.12415  0.18311  0.36229  1.0000
  S   S27       1.0  0.16286  0.06663  0.34705  1.0000
  H   H118      1.0  0.13916  0.19676  0.49413  1.0000
  S   S28       1.0  0.16224  0.25912  0.59709  1.0000
  Fe  Fe13      1.0  0.15736  0.18145  0.40752  1.0000
  S   S29       1.0  0.17232  0.18028  0.38233  1.0000
  S   S30       1.0  0.14207  0.20064  0.39772  1.0000
  Fe  Fe14      1.0  0.16927  0.15625  0.44214  1.0000
  S   S31       1.0  0.18517  0.15285  0.41947  1.0000
  S   S32       1.0  0.16831  0.14180  0.47704  1.0000
  Fe  Fe15      1.0  0.17939  0.18743  0.40533  1.0000
  S   S33       1.0  0.18981  0.21153  0.39363  1.0000
  Fe  Fe16      1.0  0.17664  0.14578  0.39854  1.0000
  S   S34       1.0  0.18516  0.12122  0.37853  1.0000
  S   S35       1.0  0.16407  0.19143  0.42926  1.0000
  S   S36       1.0  0.16113  0.14628  0.42238  1.0000
  Fe  Fe17      1.0  0.16232  0.19970  0.56706  1.0000
  S   S37       1.0  0.16450  0.20774  0.53180  1.0000
  S   S38       1.0  0.14954  0.22425  0.58171  1.0000
  Fe  Fe18      1.0  0.11197  0.33212  0.45145  1.0000
  S   S39       1.0  0.10747  0.30668  0.47961  1.0000
  S   S40       1.0  0.12333  0.34816  0.45760  1.0000
  Fe  Fe19      1.0  0.09498  0.32825  0.43076  1.0000
  S   S41       1.0  0.08907  0.30298  0.45822  1.0000
  S   S42       1.0  0.08813  0.34409  0.40133  1.0000
  Fe  Fe20      1.0  0.09065  0.32339  0.47838  1.0000
  S   S43       1.0  0.07957  0.33144  0.50849  1.0000
  Fe  Fe21      1.0  0.10657  0.28868  0.45697  1.0000
  S   S44       1.0  0.11412  0.25355  0.46651  1.0000
  S   S45       1.0  0.09509  0.34977  0.45125  1.0000
  S   S46       1.0  0.11255  0.31275  0.42846  1.0000
  Fe  Fe22      1.0  0.10991  0.34058  0.63301  1.0000
  H   H119      1.0  0.15997  0.13455  0.34511  1.0000
  Fe  Fe23      1.0  0.10098  0.34985  0.59385  1.0000
  S   S47       1.0  0.08608  0.33858  0.61208  1.0000
  S   S48       1.0  0.10541  0.35952  0.55829  1.0000
  S   S49       1.0  0.10033  0.37041  0.61591  1.0000
  S   S50       1.0  0.11180  0.32120  0.60931  1.0000
  Fe  Fe24      1.0  0.03902  0.35190  0.35419  1.0000
  H   H120      1.0  0.19754  0.06482  0.36282  1.0000
  S   S51       1.0  0.04835  0.32801  0.37765  1.0000
  H   H121      1.0  0.09857  0.20065  0.51738  1.0000
  H   H122      1.0  0.19463  0.02581  0.41461  1.0000
  H   H123      1.0  0.14651  0.18424  0.51334  1.0000
  C   C61       1.0  0.13430  0.11271  0.34384  1.0000
  Fe  Fe25      1.0  0.02137  0.39230  0.35299  1.0000
  S   S52       1.0  0.01234  0.41421  0.37513  1.0000
  H   H124      1.0  0.11000  0.22188  0.53710  1.0000
  S   S53       1.0  0.02115  0.35749  0.36391  1.0000
  H   H125      1.0  0.21281  0.29641  0.49719  1.0000
  C   C62       1.0  0.99889  0.42554  0.37446  1.0000
  C   C63       1.0  0.20540  0.42104  0.55172  1.0000
  H   H126      1.0  0.13917  0.15287  0.32884  1.0000
  H   H127      1.0  0.15762  0.36158  0.52431  1.0000
  C   C64       1.0  0.08609  0.34184  0.52155  1.0000
  C   C65       1.0  0.09637  0.34520  0.51224  1.0000
  C   C66       1.0  0.10210  0.35091  0.52354  1.0000
  C   C67       1.0  0.09759  0.35377  0.54416  1.0000
  C   C68       1.0  0.08707  0.35158  0.55315  1.0000
  C   C69       1.0  0.08132  0.34559  0.54186  1.0000
  H   H128      1.0  0.10000  0.34328  0.49630  1.0000
  H   H129      1.0  0.11018  0.35240  0.51635  1.0000
  H   H130      1.0  0.08337  0.35437  0.56881  1.0000
  H   H131      1.0  0.07329  0.34342  0.54904  1.0000
  C   C70       1.0  0.07729  0.33872  0.39476  1.0000
  C   C71       1.0  0.07198  0.32263  0.40737  1.0000
  C   C72       1.0  0.06320  0.31941  0.40181  1.0000
  C   C73       1.0  0.05959  0.33232  0.38374  1.0000
  C   C74       1.0  0.06493  0.34832  0.37108  1.0000
  C   C75       1.0  0.07374  0.35147  0.37657  1.0000
  H   H132      1.0  0.07466  0.31262  0.42133  1.0000
  H   H133      1.0  0.05917  0.30688  0.41162  1.0000
  H   H134      1.0  0.06230  0.35825  0.35703  1.0000
  H   H135      1.0  0.07781  0.36391  0.36668  1.0000
  C   C76       1.0  0.21328  0.18815  0.43133  1.0000
  C   C77       1.0  0.22877  0.43650  0.48136  1.0000
  C   C78       1.0  0.13408  0.21560  0.41644  1.0000
  C   C79       1.0  0.12702  0.23500  0.41047  1.0000
  C   C80       1.0  0.12086  0.24704  0.42562  1.0000
  C   C81       1.0  0.12168  0.23947  0.44675  1.0000
  C   C82       1.0  0.12864  0.22000  0.45256  1.0000
  C   C83       1.0  0.13486  0.20817  0.43750  1.0000
  H   H136      1.0  0.12637  0.24081  0.39415  1.0000
  H   H137      1.0  0.11539  0.26194  0.42104  1.0000
  H   H138      1.0  0.12938  0.21421  0.46869  1.0000
  H   H139      1.0  0.14027  0.19325  0.44212  1.0000
  C   C84       1.0  0.16814  0.15942  0.49242  1.0000
  C   C85       1.0  0.16876  0.18062  0.48298  1.0000
  C   C86       1.0  0.16773  0.19511  0.49534  1.0000
  C   C87       1.0  0.16633  0.18842  0.51726  1.0000
  C   C88       1.0  0.16619  0.16695  0.52684  1.0000
  C   C89       1.0  0.16706  0.15245  0.51438  1.0000
  H   H140      1.0  0.16997  0.18592  0.46614  1.0000
  H   H141      1.0  0.16797  0.21165  0.48793  1.0000
  H   H142      1.0  0.16521  0.16165  0.54379  1.0000
  H   H143      1.0  0.16668  0.13596  0.52178  1.0000
  C   C90       1.0  0.17832  0.10753  0.36949  1.0000
  C   C91       1.0  0.16862  0.10234  0.38117  1.0000
  C   C92       1.0  0.16391  0.08985  0.37411  1.0000
  C   C93       1.0  0.16887  0.08249  0.35539  1.0000
  C   C94       1.0  0.17847  0.08802  0.34361  1.0000
  C   C95       1.0  0.18315  0.10049  0.35066  1.0000
  H   H144      1.0  0.16491  0.10745  0.39589  1.0000
  H   H145      1.0  0.15650  0.08555  0.38337  1.0000
  H   H146      1.0  0.23562  0.41199  0.50577  1.0000
  H   H147      1.0  0.19057  0.10478  0.34150  1.0000
  C   C96       1.0  0.15709  0.34809  0.41822  1.0000
  C   C97       1.0  0.14910  0.34767  0.40863  1.0000
  C   C98       1.0  0.13863  0.34765  0.42048  1.0000
  C   C99       1.0  0.13613  0.34873  0.44173  1.0000
  C   C100      1.0  0.14402  0.35010  0.45094  1.0000
  C   C101      1.0  0.15450  0.34948  0.43936  1.0000
  H   H148      1.0  0.15105  0.34690  0.39217  1.0000
  H   H149      1.0  0.13251  0.34694  0.41321  1.0000
  H   H150      1.0  0.14210  0.35089  0.46731  1.0000
  H   H151      1.0  0.16058  0.35011  0.44676  1.0000
  C   C102      1.0  0.19306  0.24581  0.44082  1.0000
  C   C103      1.0  0.19823  0.25065  0.41961  1.0000
  C   C104      1.0  0.19709  0.24021  0.40517  1.0000
  C   C105      1.0  0.19068  0.22506  0.41184  1.0000
  C   C106      1.0  0.18538  0.22046  0.43298  1.0000
  C   C107      1.0  0.18659  0.23080  0.44745  1.0000
  H   H152      1.0  0.20331  0.26209  0.41442  1.0000
  H   H153      1.0  0.20123  0.24378  0.38882  1.0000
  H   H154      1.0  0.18053  0.20866  0.43822  1.0000
  H   H155      1.0  0.18257  0.22708  0.46383  1.0000
  C   C108      1.0  0.15454  0.35519  0.60902  1.0000
  C   C109      1.0  0.14555  0.36095  0.60017  1.0000
  C   C110      1.0  0.13589  0.35551  0.61220  1.0000
  C   C111      1.0  0.13520  0.34442  0.63321  1.0000
  H   H156      1.0  0.01066  0.45907  0.34953  1.0000
  C   C112      1.0  0.15396  0.34332  0.62974  1.0000
  H   H157      1.0  0.14604  0.36994  0.58407  1.0000
  H   H158      1.0  0.12896  0.36014  0.60535  1.0000
  H   H159      1.0  0.09235  0.22037  0.53327  1.0000
  C   C113      1.0  0.17253  0.01427  0.39008  1.0000
  C   C114      1.0  0.18711  0.26834  0.62592  1.0000
  C   C115      1.0  0.17102  0.28209  0.61241  1.0000
  C   C116      1.0  0.17866  0.28519  0.62105  1.0000
  H   H160      1.0  0.16476  0.29553  0.60795  1.0000
  H   H161      1.0  0.17806  0.30082  0.62366  1.0000
  C   C117      1.0  0.20550  0.34497  0.53394  1.0000
  C   C118      1.0  0.19460  0.35317  0.54030  1.0000
  C   C119      1.0  0.18750  0.35338  0.52835  1.0000
  C   C120      1.0  0.19124  0.34579  0.50968  1.0000
  C   C121      1.0  0.20220  0.33853  0.50270  1.0000
  C   C122      1.0  0.20932  0.33781  0.51497  1.0000
  H   H162      1.0  0.19156  0.35928  0.55458  1.0000
  H   H163      1.0  0.17907  0.35910  0.53394  1.0000
  H   H164      1.0  0.20518  0.33334  0.48796  1.0000
  H   H165      1.0  0.21775  0.33160  0.50981  1.0000
  H   H166      1.0  0.20681  0.22882  0.57320  1.0000
  H   H167      1.0  0.12877  0.25683  0.52971  1.0000
  C   C123      1.0  0.15388  0.39488  0.51048  1.0000
  H   H168      1.0  0.21408  0.35308  0.44445  1.0000
  H   H169      1.0  0.14793  0.33096  0.54761  1.0000
  H   H170      1.0  0.12746  0.28637  0.62548  1.0000
  H   H171      1.0  0.07186  0.30593  0.62252  1.0000
  H   H172      1.0  0.99784  0.36296  0.36044  1.0000
  H   H173      1.0  0.21356  0.18032  0.64886  1.0000
  C   C124      1.0  0.21437  0.38844  0.63290  1.0000
  H   H174      1.0  0.20848  0.26374  0.53872  1.0000
  H   H175      1.0  0.21373  0.38500  0.61860  1.0000
  C   C125      1.0  0.19090  0.06029  0.40315  1.0000
  N   N4        1.0  0.20519  0.16131  0.46359  1.0000
  C   C126      1.0  0.20718  0.16963  0.43997  1.0000
  C   C127      1.0  0.19799  0.14562  0.46962  1.0000
  C   C128      1.0  0.19918  0.18008  0.47371  1.0000
  H   H176      1.0  0.17690  0.03397  0.40509  1.0000
  H   H177      1.0  0.21968  0.18598  0.43971  1.0000
  C   C129      1.0  0.20286  0.12414  0.46242  1.0000
  C   C130      1.0  0.19459  0.11048  0.46772  1.0000
  C   C131      1.0  0.19765  0.40641  0.47944  1.0000
  H   H178      1.0  0.18007  0.22898  0.61277  1.0000
  H   H179      1.0  0.19947  0.17572  0.43471  1.0000
  H   H180      1.0  0.21150  0.15659  0.43151  1.0000
  C   C132      1.0  0.01585  0.48682  0.32576  1.0000
  H   H181      1.0  0.19057  0.15330  0.46352  1.0000
  H   H182      1.0  0.19170  0.18778  0.46789  1.0000
  H   H183      1.0  0.02713  0.34169  0.40687  1.0000
  H   H184      1.0  0.04962  0.43327  0.35222  1.0000
  H   H185      1.0  0.14954  0.15855  0.38166  1.0000
  H   H186      1.0  0.19853  0.09445  0.46420  1.0000
  H   H187      1.0  0.20610  0.12667  0.44516  1.0000
  H   H188      1.0  0.18640  0.20726  0.49959  1.0000
  H   H189      1.0  0.14932  0.13270  0.38011  1.0000
  H   H190      1.0  0.16638  0.15394  0.36167  1.0000
  H   H191      1.0  0.18853  0.11804  0.45798  1.0000
  C   C133      1.0  0.23172  0.41272  0.49291  1.0000
  H   H192      1.0  0.13699  0.09500  0.34642  1.0000
  H   H193      1.0  0.19981  0.41011  0.55610  1.0000
  H   H194      1.0  0.23494  0.33376  0.52021  1.0000
  H   H195      1.0  0.19298  0.40621  0.61797  1.0000
  H   H196      1.0  0.22425  0.43573  0.36015  1.0000
  H   H197      1.0  0.18094  0.16620  0.33431  1.0000
  H   H198      1.0  0.01662  0.36553  0.40880  1.0000
  H   H199      1.0  0.12230  0.39765  0.53224  1.0000
  H   H200      1.0  0.11974  0.38355  0.57132  1.0000
  H   H201      1.0  0.20196  0.07885  0.32404  1.0000
  H   H202      1.0  0.13101  0.39389  0.57095  1.0000
  H   H203      1.0  0.11774  0.40827  0.48834  1.0000
  C   C134      1.0  0.13875  0.14667  0.34611  1.0000
  H   H204      1.0  0.21438  0.03340  0.33861  1.0000
  C   C135      1.0  0.13391  0.15196  0.39173  1.0000
  H   H205      1.0  0.19420  0.23506  0.62659  1.0000
  H   H206      1.0  0.16853  0.02760  0.37894  1.0000
  C   C136      1.0  0.23385  0.12697  0.46825  1.0000
  H   H207      1.0  0.21834  0.16371  0.47521  1.0000
  H   H208      1.0  0.19055  0.10836  0.48469  1.0000
  H   H209      1.0  0.12286  0.18603  0.55930  1.0000
  H   H210      1.0  0.14476  0.14764  0.58246  1.0000
  C   C137      1.0  0.99334  0.49122  0.35747  1.0000
  C   C138      1.0  0.10918  0.20762  0.53286  1.0000
  H   H211      1.0  0.07988  0.26900  0.56292  1.0000
  H   H212      1.0  0.06683  0.32451  0.60041  1.0000
  C   C139      1.0  0.06361  0.35173  0.45209  1.0000
  H   H213      1.0  0.07153  0.35359  0.45258  1.0000
  C   C140      1.0  0.20692  0.04586  0.34048  1.0000
  H   H214      1.0  0.13896  0.15125  0.41996  1.0000
  C   C141      1.0  0.02726  0.45598  0.34707  1.0000
  H   H215      1.0  0.14305  0.18160  0.55503  1.0000
  C   C142      1.0  0.21485  0.40822  0.48749  1.0000
  H   H216      1.0  0.22179  0.20475  0.40184  1.0000
  H   H217      1.0  0.18474  0.00729  0.40724  1.0000
  H   H218      1.0  0.21628  0.43457  0.52486  1.0000
  H   H219      1.0  0.21896  0.40742  0.47087  1.0000
  H   H220      1.0  0.21107  0.42537  0.48689  1.0000
  H   H221      1.0  0.15003  0.11647  0.34043  1.0000
  H   H222      1.0  0.15447  0.12057  0.62838  1.0000
  C   C143      1.0  0.04209  0.48598  0.59794  1.0000
  C   C144      1.0  0.14201  0.12184  0.35004  1.0000
  S   S54       1.0  0.23114  0.42206  0.64840  1.0000
  H   H223      1.0  0.20387  0.20129  0.63839  1.0000
  H   H224      1.0  0.23661  0.13760  0.47475  1.0000
  H   H225      1.0  0.19134  0.39704  0.48395  1.0000
  H   H226      1.0  0.16641  0.00967  0.40437  1.0000
  S   S55       1.0  0.01035  0.34054  0.32468  1.0000
  C   C145      1.0  0.08395  0.27175  0.52145  1.0000
  H   H227      1.0  0.01668  0.34235  0.43030  1.0000
  Fe  Fe26      1.0  0.17263  0.04608  0.32340  1.0000
  H   H228      1.0  0.13381  0.40641  0.53200  1.0000
  C   C146      1.0  0.21103  0.42314  0.52842  1.0000
  H   H229      1.0  0.07730  0.28588  0.51914  1.0000
  C   C147      1.0  0.03899  0.48676  0.62131  1.0000
  C   C148      1.0  0.22499  0.13981  0.45661  1.0000
  C   C149      1.0  0.12637  0.21483  0.34710  1.0000
  C   C150      1.0  0.22118  0.40163  0.63194  1.0000
  H   H230      1.0  0.20166  0.40643  0.46265  1.0000
  H   H231      1.0  0.14352  0.18911  0.35874  1.0000
  H   H232      1.0  0.19526  0.21706  0.58500  1.0000
  H   H233      1.0  0.18386  0.06379  0.39613  1.0000
  C   C151      1.0  0.21819  0.19045  0.40774  1.0000
  C   C152      1.0  0.20158  0.21986  0.57055  1.0000
  S   S56       1.0  0.03921  0.38680  0.34528  1.0000
  H   H234      1.0  0.20926  0.11462  0.47088  1.0000
  C   C153      1.0  0.14181  0.28368  0.63649  1.0000
  C   C154      1.0  0.08481  0.29610  0.58433  1.0000
  C   C155      1.0  0.10951  0.21670  0.64004  1.0000
  S   S57       1.0  0.17925  0.01131  0.33550  1.0000
  H   H235      1.0  0.20644  0.20408  0.56759  1.0000
  H   H236      1.0  0.09908  0.26072  0.59506  1.0000
  N   N5        1.0  0.15639  0.40480  0.64606  1.0000
  H   H237      1.0  0.20393  0.19263  0.46907  1.0000
  H   H238      1.0  0.05190  0.45903  0.62708  1.0000
  H   H239      1.0  0.22449  0.17609  0.40475  1.0000
  H   H240      1.0  0.11826  0.18330  0.51579  1.0000
  C   C156      1.0  0.21537  0.15134  0.47153  1.0000
  H   H241      1.0  0.12764  0.21822  0.36136  1.0000
  C   C157      1.0  0.13968  0.16297  0.48334  1.0000
  H   H242      1.0  0.13229  0.17296  0.47834  1.0000
  H   H243      1.0  0.14667  0.16932  0.47295  1.0000
  H   H244      1.0  0.14066  0.14641  0.48151  1.0000
  N   N6        1.0  0.18656  0.26988  0.53578  1.0000
  C   C158      1.0  0.18953  0.25427  0.55524  1.0000
  C   C159      1.0  0.17846  0.28920  0.54206  1.0000
  C   C160      1.0  0.18105  0.25900  0.52623  1.0000
  C   C161      1.0  0.19611  0.27630  0.51941  1.0000
  C   C162      1.0  0.20553  0.27839  0.52751  1.0000
  C   C163      1.0  0.19665  0.23225  0.55161  1.0000
  C   C164      1.0  0.17648  0.27293  0.50684  1.0000
  C   C165      1.0  0.18115  0.30109  0.55599  1.0000
  C   C166      1.0  0.17156  0.31867  0.56239  1.0000
  H   H245      1.0  0.13135  0.26735  0.50164  1.0000
  H   H246      1.0  0.18221  0.25101  0.56716  1.0000
  H   H247      1.0  0.19360  0.26123  0.56315  1.0000
  H   H248      1.0  0.17680  0.30164  0.52781  1.0000
  H   H249      1.0  0.17080  0.28440  0.55082  1.0000
  H   H250      1.0  0.17441  0.25273  0.53836  1.0000
  H   H251      1.0  0.18665  0.24483  0.52073  1.0000
  H   H252      1.0  0.19957  0.26458  0.50896  1.0000
  H   H253      1.0  0.19359  0.29183  0.50857  1.0000
  C   C167      1.0  0.20366  0.04965  0.36323  1.0000
  H   H254      1.0  0.20324  0.29192  0.53547  1.0000
  H   H255      1.0  0.19181  0.22228  0.54930  1.0000
  H   H256      1.0  0.18294  0.27875  0.49407  1.0000
  H   H257      1.0  0.17025  0.28695  0.51083  1.0000
  H   H258      1.0  0.18315  0.29031  0.57072  1.0000
  H   H259      1.0  0.18780  0.30903  0.54718  1.0000
  H   H260      1.0  0.17349  0.32703  0.57252  1.0000
  H   H261      1.0  0.16948  0.33064  0.54823  1.0000
  H   H262      1.0  0.16453  0.31178  0.57138  1.0000
  C   C168      1.0  0.18756  0.24795  0.62323  1.0000
  C   C169      1.0  0.17968  0.24463  0.61515  1.0000
  H   H263      1.0  0.22148  0.28446  0.51540  1.0000
  N   N7        1.0  0.15522  0.28190  0.41684  1.0000
  C   C170      1.0  0.14470  0.29078  0.41003  1.0000
  C   C171      1.0  0.15497  0.28906  0.43643  1.0000
  C   C172      1.0  0.16360  0.29103  0.39909  1.0000
  C   C173      1.0  0.15842  0.25784  0.42023  1.0000
  C   C174      1.0  0.15027  0.24490  0.43566  1.0000
  C   C175      1.0  0.14389  0.28394  0.39042  1.0000
  C   C176      1.0  0.17477  0.28718  0.40386  1.0000
  C   C177      1.0  0.14434  0.29112  0.45321  1.0000
  C   C178      1.0  0.14586  0.29488  0.47344  1.0000
  C   C179      1.0  0.15349  0.23381  0.45678  1.0000
  C   C180      1.0  0.13291  0.29348  0.38520  1.0000
  C   C181      1.0  0.18282  0.29436  0.38382  1.0000
  H   H264      1.0  0.14295  0.30860  0.40666  1.0000
  H   H265      1.0  0.13790  0.28644  0.42278  1.0000
  H   H266      1.0  0.16143  0.27844  0.44438  1.0000
  H   H267      1.0  0.15677  0.30527  0.43203  1.0000
  H   H268      1.0  0.16089  0.30870  0.39396  1.0000
  H   H269      1.0  0.16489  0.28435  0.38498  1.0000
  H   H270      1.0  0.16044  0.25283  0.40490  1.0000
  H   H271      1.0  0.16604  0.25173  0.42558  1.0000
  H   H272      1.0  0.15005  0.23224  0.42815  1.0000
  H   H273      1.0  0.14197  0.25401  0.43852  1.0000
  H   H274      1.0  0.14980  0.28956  0.37624  1.0000
  H   H275      1.0  0.14516  0.26626  0.39325  1.0000
  H   H276      1.0  0.17786  0.27008  0.41008  1.0000
  H   H277      1.0  0.17452  0.29622  0.41564  1.0000
  H   H278      1.0  0.13836  0.30494  0.44696  1.0000
  H   H279      1.0  0.14089  0.27683  0.45756  1.0000
  H   H280      1.0  0.15055  0.30735  0.46985  1.0000
  H   H281      1.0  0.13796  0.30035  0.48345  1.0000
  H   H282      1.0  0.15007  0.27981  0.48241  1.0000
  H   H283      1.0  0.14811  0.22289  0.46612  1.0000
  H   H284      1.0  0.16172  0.22404  0.45413  1.0000
  H   H285      1.0  0.15310  0.24551  0.46601  1.0000
  H   H286      1.0  0.13106  0.31122  0.38260  1.0000
  H   H287      1.0  0.13271  0.28908  0.37062  1.0000
  H   H288      1.0  0.12670  0.28704  0.39819  1.0000
  H   H289      1.0  0.19077  0.29121  0.38750  1.0000
  H   H290      1.0  0.18358  0.28530  0.37172  1.0000
  H   H291      1.0  0.18035  0.31178  0.37731  1.0000
  C   C182      1.0  0.15012  0.32737  0.53167  1.0000
  C   C183      1.0  0.16528  0.39809  0.50138  1.0000
  C   C184      1.0  0.14855  0.30483  0.53411  1.0000
  H   H292      1.0  0.15788  0.36683  0.49693  1.0000
  H   H293      1.0  0.14706  0.34125  0.50043  1.0000
  H   H294      1.0  0.15872  0.32718  0.52505  1.0000
  H   H295      1.0  0.17063  0.38758  0.51178  1.0000
  H   H296      1.0  0.16829  0.39445  0.48539  1.0000
  H   H297      1.0  0.15079  0.30038  0.51852  1.0000
  H   H298      1.0  0.15354  0.29305  0.54464  1.0000
  H   H299      1.0  0.14012  0.30395  0.54132  1.0000
  H   H300      1.0  0.12205  0.30761  0.56509  1.0000
  N   N8        1.0  0.04240  0.38420  0.41790  1.0000
  C   C185      1.0  0.04999  0.39379  0.39880  1.0000
  C   C186      1.0  0.04854  0.36636  0.43232  1.0000
  C   C187      1.0  0.03560  0.37448  0.41014  1.0000
  C   C188      1.0  0.03503  0.40089  0.42954  1.0000
  C   C189      1.0  0.04037  0.41398  0.43768  1.0000
  C   C190      1.0  0.04490  0.41291  0.38292  1.0000
  C   C191      1.0  0.02841  0.36053  0.42743  1.0000
  C   C192      1.0  0.05933  0.36915  0.43445  1.0000
  H   H301      1.0  0.18226  0.08277  0.32901  1.0000
  C   C193      1.0  0.03225  0.43306  0.44516  1.0000
  C   C194      1.0  0.05336  0.41952  0.36340  1.0000
  C   C195      1.0  0.02182  0.35206  0.41767  1.0000
  H   H302      1.0  0.05483  0.38114  0.39011  1.0000
  H   H303      1.0  0.05588  0.39961  0.40328  1.0000
  H   H304      1.0  0.04344  0.36304  0.44846  1.0000
  H   H305      1.0  0.05066  0.35117  0.42662  1.0000
  H   H306      1.0  0.04073  0.36428  0.39893  1.0000
  H   H307      1.0  0.03015  0.38710  0.40107  1.0000
  H   H308      1.0  0.02960  0.41223  0.41953  1.0000
  H   H309      1.0  0.02968  0.39338  0.44372  1.0000
  H   H310      1.0  0.04682  0.42033  0.42535  1.0000
  H   H311      1.0  0.04363  0.40378  0.45148  1.0000
  H   H312      1.0  0.03877  0.40892  0.37744  1.0000
  H   H313      1.0  0.04113  0.42697  0.39025  1.0000
  H   H314      1.0  0.02273  0.36990  0.43870  1.0000
  H   H315      1.0  0.03325  0.34643  0.43637  1.0000
  H   H316      1.0  0.06536  0.36781  0.41955  1.0000
  H   H317      1.0  0.05879  0.38482  0.43770  1.0000
  H   H318      1.0  0.11925  0.41189  0.56333  1.0000
  H   H319      1.0  0.16091  0.33854  0.63654  1.0000
  H   H320      1.0  0.20584  0.03737  0.40417  1.0000
  H   H321      1.0  0.03621  0.44181  0.45149  1.0000
  H   H322      1.0  0.02891  0.44429  0.43182  1.0000
  H   H323      1.0  0.02565  0.42757  0.45788  1.0000
  H   H324      1.0  0.05961  0.42434  0.36788  1.0000
  H   H325      1.0  0.22894  0.41177  0.37858  1.0000
  H   H326      1.0  0.21199  0.19258  0.39883  1.0000
  H   H327      1.0  0.13207  0.15603  0.51602  1.0000
  C   C196      1.0  0.14338  0.34411  0.51665  1.0000
  H   H328      1.0  0.18176  0.05116  0.43515  1.0000
  H   H329      1.0  0.19382  0.05952  0.43359  1.0000
  H   H330      1.0  0.04923  0.49287  0.58990  1.0000
  N   N9        1.0  0.22290  0.40032  0.50134  1.0000
  H   H331      1.0  0.12614  0.11658  0.35362  1.0000
  H   H332      1.0  0.13122  0.22341  0.33279  1.0000
  Fe  Fe27      1.0  0.09686  0.31143  0.62929  1.0000
  C   C197      1.0  0.13880  0.18523  0.50957  1.0000
  H   H333      1.0  0.19531  0.14104  0.48704  1.0000
  H   H334      1.0  0.14191  0.24907  0.51360  1.0000
  C   C198      1.0  0.15317  0.37162  0.51201  1.0000
  H   H335      1.0  0.10754  0.20112  0.64653  1.0000
  H   H336      1.0  0.04379  0.46920  0.59608  1.0000
  H   H337      1.0  0.16465  0.43060  0.63818  1.0000
  C   C199      1.0  0.20832  0.37994  0.65235  1.0000
  H   H338      1.0  0.18494  0.04510  0.36848  1.0000
  H   H339      1.0  0.08363  0.31295  0.57543  1.0000
  C   C200      1.0  0.18931  0.02951  0.37650  1.0000
  S   S58       1.0  0.09372  0.27810  0.63827  1.0000
  C   C201      1.0  0.13786  0.24780  0.65438  1.0000
  C   C202      1.0  0.21508  0.28203  0.50933  1.0000
  H   H340      1.0  0.03440  0.46048  0.33549  1.0000
  S   S59       1.0  0.17487  0.20330  0.58118  1.0000
  H   H341      1.0  0.18994  0.19182  0.52406  1.0000
  C   C203      1.0  0.13154  0.21426  0.52872  1.0000
  C   C204      1.0  0.12986  0.23433  0.51063  1.0000
  C   C205      1.0  0.13475  0.14212  0.41466  1.0000
  H   H342      1.0  0.23312  0.41167  0.33422  1.0000
  H   H343      1.0  0.14195  0.37920  0.48364  1.0000
  H   H344      1.0  0.21071  0.16240  0.60333  1.0000
  C   C206      1.0  0.23720  0.31592  0.46045  1.0000
  H   H345      1.0  0.19478  0.11823  0.64757  1.0000
  C   C207      1.0  0.14269  0.40687  0.62439  1.0000
  H   H346      1.0  0.14716  0.29996  0.59346  1.0000
  C   C208      1.0  0.12224  0.23854  0.62007  1.0000
  C   C209      1.0  0.11434  0.25713  0.62308  1.0000
  H   H347      1.0  0.13014  0.23992  0.61099  1.0000
  H   H348      1.0  0.11610  0.27275  0.61604  1.0000
  H   H349      1.0  0.20049  0.04093  0.33680  1.0000
  C   C210      1.0  0.13613  0.28383  0.61936  1.0000
  H   H350      1.0  0.16551  0.41495  0.50011  1.0000
  C   C211      1.0  0.21225  0.17139  0.61341  1.0000
  H   H351      1.0  0.20955  0.00735  0.36372  1.0000
  S   S60       1.0  0.19936  0.36395  0.65431  1.0000
  H   H352      1.0  0.03167  0.48046  0.62841  1.0000
  H   H353      1.0  0.15034  0.28076  0.62874  1.0000
  C   C212      1.0  0.20565  0.39611  0.49364  1.0000
  H   H354      1.0  0.23610  0.48934  0.40754  1.0000
  H   H355      1.0  0.12748  0.36000  0.49502  1.0000
  H   H356      1.0  0.19383  0.42308  0.48119  1.0000
  C   C213      1.0  0.09972  0.21441  0.52216  1.0000
  H   H357      1.0  0.14491  0.15812  0.54499  1.0000
  N   N10       1.0  0.14212  0.36736  0.51685  1.0000
  H   H358      1.0  0.13008  0.16912  0.39096  1.0000
  C   C214      1.0  0.12937  0.19073  0.34809  1.0000
  H   H359      1.0  0.07406  0.27562  0.60629  1.0000
  H   H360      1.0  0.21373  0.13971  0.48683  1.0000
  C   C215      1.0  0.20506  0.18454  0.64763  1.0000
  H   H361      1.0  0.13309  0.41012  0.60206  1.0000
  H   H362      1.0  0.21262  0.38926  0.53114  1.0000
  S   S61       1.0  0.15780  0.17209  0.59290  1.0000
  C   C216      1.0  0.22789  0.37716  0.50051  1.0000
  C   C217      1.0  0.07356  0.29182  0.59591  1.0000
  C   C218      1.0  0.15841  0.38073  0.65314  1.0000
  H   H363      1.0  0.11634  0.31522  0.54225  1.0000
  C   C219      1.0  0.06759  0.30782  0.60991  1.0000
  H   H364      1.0  0.05817  0.35300  0.46765  1.0000
  H   H365      1.0  0.07961  0.29657  0.55114  1.0000
  H   H366      1.0  0.21224  0.18812  0.60446  1.0000
  H   H367      1.0  0.13591  0.41557  0.63472  1.0000
  S   S62       1.0  0.07021  0.37538  0.65046  1.0000
  H   H368      1.0  0.16149  0.17959  0.34599  1.0000
  H   H369      1.0  0.14613  0.15115  0.51117  1.0000
  C   C220      1.0  0.11981  0.21824  0.62853  1.0000
  H   H370      1.0  0.18723  0.41037  0.64434  1.0000
  H   H371      1.0  0.14889  0.40684  0.50014  1.0000
  C   C221      1.0  0.12916  0.39391  0.53984  1.0000
  C   C222      1.0  0.13660  0.38082  0.49930  1.0000
  C   C223      1.0  0.22066  0.36018  0.43461  1.0000
  C   C224      1.0  0.18564  0.41349  0.62834  1.0000
  H   H372      1.0  0.22279  0.12874  0.44984  1.0000
  H   H373      1.0  0.20771  0.20351  0.43361  1.0000
  H   H374      1.0  0.22386  0.39638  0.53375  1.0000
  N   N11       1.0  0.12962  0.19397  0.52587  1.0000
  C   C225      1.0  0.13920  0.16881  0.55504  1.0000
  C   C226      1.0  0.11803  0.30204  0.55592  1.0000
  C   C227      1.0  0.16615  0.41295  0.64416  1.0000
  H   H375      1.0  0.15141  0.39839  0.52650  1.0000
  C   C228      1.0  0.19287  0.19561  0.50665  1.0000
  H   H376      1.0  0.08854  0.26892  0.50565  1.0000
  H   H377      1.0  0.19119  0.01890  0.36517  1.0000
  H   H378      1.0  0.05948  0.30490  0.61754  1.0000
  H   H379      1.0  0.17854  0.14328  0.32862  1.0000
  H   H380      1.0  0.22189  0.36715  0.50789  1.0000
  H   H381      1.0  0.09846  0.30618  0.54629  1.0000
  H   H382      1.0  0.99984  0.46740  0.32681  1.0000
  H   H383      1.0  0.21129  0.41472  0.56198  1.0000
  H   H384      1.0  0.21565  0.07154  0.32697  1.0000
  H   H385      1.0  0.99989  0.48364  0.36601  1.0000
  H   H386      1.0  0.14265  0.38958  0.62975  1.0000
  H   H387      1.0  0.13293  0.14277  0.57857  1.0000
  H   H388      1.0  0.20877  0.37941  0.49167  1.0000
  H   H389      1.0  0.23190  0.31119  0.45325  1.0000
  C   C229      1.0  0.17134  0.26015  0.49835  1.0000
  H   H390      1.0  0.13019  0.15065  0.35367  1.0000
  H   H391      1.0  0.16409  0.25604  0.50993  1.0000
  H   H392      1.0  0.13488  0.39808  0.49922  1.0000
  H   H393      1.0  0.12493  0.39363  0.46773  1.0000
  H   H394      1.0  0.15658  0.25243  0.65482  1.0000
  H   H395      1.0  0.06863  0.29343  0.58454  1.0000
  C   C230      1.0  0.12597  0.37551  0.49963  1.0000
  H   H396      1.0  0.16377  0.37298  0.64021  1.0000
  H   H397      1.0  0.14200  0.11458  0.36693  1.0000
  H   H398      1.0  0.98809  0.36442  0.33379  1.0000
  S   S63       1.0  0.15722  0.20095  0.62655  1.0000
  C   C231      1.0  0.22213  0.40615  0.65039  1.0000
  H   H399      1.0  0.21069  0.05291  0.36664  1.0000
  H   H400      1.0  0.16907  0.26982  0.48336  1.0000
  H   H401      1.0  0.14142  0.36657  0.54949  1.0000
  C   C232      1.0  0.12454  0.39584  0.56280  1.0000
  H   H402      1.0  0.10102  0.22748  0.50794  1.0000
  C   C233      1.0  0.17157  0.26191  0.60923  1.0000
  H   H403      1.0  0.12347  0.28797  0.55008  1.0000
  H   H404      1.0  0.17699  0.24515  0.49503  1.0000
  C   C234      1.0  0.11997  0.39243  0.48404  1.0000
  C   C235      1.0  0.13592  0.37104  0.53847  1.0000
  H   H405      1.0  0.12664  0.14296  0.42493  1.0000
  H   H406      1.0  0.12011  0.20906  0.50228  1.0000
  C   C236      1.0  0.12874  0.17828  0.54691  1.0000
  H   H407      1.0  0.11257  0.38771  0.48434  1.0000
  H   H408      1.0  0.99150  0.37739  0.38117  1.0000
  C   C237      1.0  0.18104  0.02114  0.39623  1.0000
  H   H409      1.0  0.23509  0.36708  0.52853  1.0000
  H   H410      1.0  0.17615  0.00022  0.38268  1.0000
  H   H411      1.0  0.20258  0.16427  0.50547  1.0000
  H   H412      1.0  0.15363  0.42813  0.61739  1.0000
  H   H413      1.0  0.13976  0.43185  0.59662  1.0000
  H   H414      1.0  0.10309  0.30991  0.57721  1.0000
  C   C238      1.0  0.19798  0.03777  0.40122  1.0000
  H   H415      1.0  0.13217  0.16586  0.58870  1.0000
  H   H416      1.0  0.14720  0.40617  0.59090  1.0000
  C   C239      1.0  0.22522  0.35612  0.41446  1.0000
  C   C240      1.0  0.11951  0.19822  0.51817  1.0000
  Fe  Fe28      1.0  0.14607  0.19740  0.60887  1.0000
  H   H417      1.0  0.13506  0.31748  0.60372  1.0000
  N   N12       1.0  0.19951  0.03191  0.38035  1.0000
  H   H418      1.0  0.11782  0.22104  0.34656  1.0000
  C   C241      1.0  0.14425  0.33831  0.64194  1.0000
  H   H419      1.0  0.18903  0.16746  0.50383  1.0000
  C   C242      1.0  0.22479  0.37298  0.44230  1.0000
  H   H420      1.0  0.12074  0.37434  0.51560  1.0000
  C   C243      1.0  0.13901  0.16276  0.50635  1.0000
  Fe  Fe29      1.0  0.16173  0.22580  0.59773  1.0000
  H   H421      1.0  0.13905  0.12508  0.41654  1.0000
  H   H422      1.0  0.13019  0.36023  0.54560  1.0000
  H   H423      1.0  0.06459  0.33558  0.44922  1.0000
  H   H424      1.0  0.13991  0.30024  0.63892  1.0000
  C   C244      1.0  0.10773  0.29605  0.57006  1.0000
  H   H425      1.0  0.13893  0.26841  0.61414  1.0000
  C   C245      1.0  0.08509  0.28070  0.55501  1.0000
  H   H426      1.0  0.19556  0.07280  0.39463  1.0000
  C   C246      1.0  0.15662  0.15207  0.34140  1.0000
  H   H427      1.0  0.10996  0.28225  0.58274  1.0000
  C   C247      1.0  0.13708  0.15547  0.57757  1.0000
  H   H428      1.0  0.14452  0.24096  0.64232  1.0000
  H   H429      1.0  0.17527  0.40719  0.61280  1.0000
  Fe  Fe30      1.0  0.16932  0.17775  0.60857  1.0000
  H   H430      1.0  0.09944  0.21721  0.60112  1.0000
  C   C248      1.0  0.18698  0.06253  0.42610  1.0000
  S   S64       1.0  0.12920  0.19449  0.62438  1.0000
  H   H431      1.0  0.13068  0.25155  0.64772  1.0000
  H   H432      1.0  0.23592  0.46424  0.46739  1.0000
  H   H433      1.0  0.10942  0.20818  0.57950  1.0000
  C   C249      1.0  0.10405  0.25545  0.63469  1.0000
  C   C250      1.0  0.10114  0.29088  0.55722  1.0000
  H   H434      1.0  0.22133  0.37562  0.45804  1.0000
  H   H435      1.0  0.10856  0.24661  0.56005  1.0000
  H   H436      1.0  0.19981  0.20314  0.50291  1.0000
  H   H437      1.0  0.10673  0.28043  0.54683  1.0000
  H   H438      1.0  0.12135  0.23981  0.50969  1.0000
  H   H439      1.0  0.10727  0.19551  0.54757  1.0000
  H   H440      1.0  0.05455  0.48401  0.62589  1.0000
  C   C251      1.0  0.10588  0.22180  0.58746  1.0000
  C   C252      1.0  0.10160  0.24174  0.57194  1.0000
  H   H441      1.0  0.20317  0.23406  0.53737  1.0000
  C   C253      1.0  0.13320  0.25299  0.51421  1.0000
  H   H442      1.0  0.09800  0.26182  0.53408  1.0000
  S   S65       1.0  0.18182  0.15090  0.62206  1.0000
  H   H443      1.0  0.09648  0.23712  0.56425  1.0000
  H   H444      1.0  0.09459  0.28979  0.52303  1.0000
  C   C254      1.0  0.09127  0.27582  0.53306  1.0000
  H   H445      1.0  0.21826  0.26796  0.50187  1.0000
  C   C255      1.0  0.09486  0.25970  0.58345  1.0000
  C   C256      1.0  0.19600  0.17511  0.49823  1.0000
  C   C257      1.0  0.13846  0.30152  0.59980  1.0000
  N   N13       1.0  0.09162  0.28147  0.56978  1.0000
  H   H446      1.0  0.11219  0.22485  0.59325  1.0000
  H   H447      1.0  0.12546  0.16471  0.54672  1.0000
  H   H448      1.0  0.13985  0.21164  0.53070  1.0000
  H   H449      1.0  0.13485  0.30042  0.58730  1.0000
  C   C258      1.0  0.21774  0.40122  0.52407  1.0000
  H   H450      1.0  0.23099  0.11411  0.48133  1.0000
  C   C259      1.0  0.15604  0.11961  0.64396  1.0000
  C   C260      1.0  0.01760  0.46279  0.33697  1.0000
  H   H451      1.0  0.13412  0.11917  0.32688  1.0000
  C   C261      1.0  0.15351  0.41100  0.62475  1.0000
  Fe  Fe31      1.0  0.08611  0.35687  0.63549  1.0000
  C   C262      1.0  0.20800  0.01159  0.37927  1.0000
  C   C263      1.0  0.14504  0.14969  0.37668  1.0000
  H   H452      1.0  0.20478  0.42983  0.51909  1.0000
  C   C264      1.0  0.17995  0.14166  0.64963  1.0000
  N   N14       1.0  0.14522  0.15750  0.35339  1.0000
  H   H453      1.0  0.23263  0.33018  0.46703  1.0000
  H   H454      1.0  0.00038  0.42517  0.34196  1.0000
  H   H455      1.0  0.22582  0.40822  0.61683  1.0000
  H   H456      1.0  0.18229  0.07909  0.42661  1.0000
  H   H457      1.0  0.02562  0.46353  0.36072  1.0000
  H   H458      1.0  0.20078  0.43698  0.55464  1.0000
  H   H459      1.0  0.12872  0.14382  0.38790  1.0000
  C   C265      1.0  0.14059  0.41425  0.60210  1.0000
  H   H460      1.0  0.06808  0.45544  0.63829  1.0000
  C   C266      1.0  0.17642  0.40365  0.62915  1.0000
  H   H461      1.0  0.18383  0.43103  0.62190  1.0000
  C   C267      1.0  0.16461  0.16234  0.34598  1.0000
  H   H462      1.0  0.20125  0.39598  0.51020  1.0000
  H   H463      1.0  0.01902  0.45271  0.32540  1.0000
  H   H464      1.0  0.14064  0.44412  0.64113  1.0000
  H   H465      1.0  0.22022  0.16374  0.61711  1.0000
  H   H466      1.0  0.17888  0.38606  0.63446  1.0000
  H   H467      1.0  0.15579  0.29162  0.65285  1.0000
  H   H468      1.0  0.22846  0.15160  0.44316  1.0000
  H   H469      1.0  0.19187  0.05303  0.64784  1.0000
  Fe  Fe32      1.0  0.02106  0.35873  0.33031  1.0000
  C   C268      1.0  0.23090  0.42692  0.36818  1.0000
  C   C269      1.0  0.20361  0.17094  0.63369  1.0000
  C   C270      1.0  0.14140  0.18165  0.34801  1.0000
  H   H470      1.0  0.09372  0.23375  0.65192  1.0000
  H   H471      1.0  0.16320  0.12623  0.64116  1.0000
  H   H472      1.0  0.02902  0.43833  0.35277  1.0000
  H   H473      1.0  0.12755  0.18803  0.33405  1.0000
  H   H474      1.0  0.23073  0.37541  0.48381  1.0000
  C   C271      1.0  0.04830  0.47434  0.63254  1.0000
  H   H475      1.0  0.16492  0.08718  0.64660  1.0000
  H   H476      1.0  0.14908  0.12960  0.65280  1.0000
  H   H477      1.0  0.19899  0.06927  0.65378  1.0000
  H   H478      1.0  0.19581  0.17747  0.62899  1.0000
  C   C272      1.0  0.99196  0.43120  0.39271  1.0000
  H   H479      1.0  0.03380  0.44628  0.64351  1.0000
  H   H480      1.0  0.22186  0.44578  0.49085  1.0000
  H   H481      1.0  0.21568  0.01409  0.38059  1.0000
  C   C273      1.0  0.23338  0.38207  0.42979  1.0000
  S   S66       1.0  0.12319  0.33779  0.64897  1.0000
  C   C274      1.0  0.23374  0.36538  0.40179  1.0000
  H   H482      1.0  0.14562  0.18859  0.33188  1.0000
  C   C275      1.0  0.20922  0.06591  0.32403  1.0000
  C   C276      1.0  0.99006  0.36886  0.37055  1.0000
  H   H483      1.0  0.99032  0.47864  0.35458  1.0000
  C   C277      1.0  0.10168  0.23518  0.64308  1.0000
  C   C278      1.0  0.17512  0.16025  0.32963  1.0000
  H   H484      1.0  0.22677  0.43743  0.46615  1.0000
  H   H485      1.0  0.23173  0.43689  0.37816  1.0000
  H   H486      1.0  0.15696  0.15655  0.32408  1.0000
  H   H487      1.0  0.20397  0.15396  0.64197  1.0000
  S   S67       1.0  0.09559  0.32871  0.65432  1.0000
  H   H488      1.0  0.23726  0.36225  0.38617  1.0000
  S   S68       1.0  0.20277  0.08509  0.74010  1.0000
  C   C279      1.0  0.18777  0.12524  0.65805  1.0000
  H   H489      1.0  0.21374  0.41454  0.78831  1.0000
  C   C280      1.0  0.05257  0.36704  0.77650  1.0000
  S   S69       1.0  0.19180  0.05938  0.71941  1.0000
  C   C281      1.0  0.02431  0.41552  0.88551  1.0000
  Fe  Fe33      1.0  0.19744  0.06332  0.77099  1.0000
  S   S70       1.0  0.18087  0.06845  0.76662  1.0000
  Fe  Fe34      1.0  0.20751  0.05510  0.72752  1.0000
  Fe  Fe35      1.0  0.18744  0.03987  0.75203  1.0000
  H   H490      1.0  0.20683  0.12815  0.71404  1.0000
  Fe  Fe36      1.0  0.18668  0.08767  0.73439  1.0000
  S   S71       1.0  0.17612  0.11873  0.72117  1.0000
  C   C282      1.0  0.20016  0.00937  0.83124  1.0000
  H   H491      1.0  0.06457  0.43529  0.66114  1.0000
  H   H492      1.0  0.01816  0.38799  0.90571  1.0000
  S   S72       1.0  0.02672  0.41086  0.81068  1.0000
  H   H493      1.0  0.22869  0.01531  0.77663  1.0000
  H   H494      1.0  0.00940  0.41278  0.84696  1.0000
  C   C283      1.0  0.00960  0.40593  0.79875  1.0000
  C   C284      1.0  0.20053  0.19661  0.68082  1.0000
  H   H495      1.0  0.13937  0.03560  0.71727  1.0000
  H   H496      1.0  0.03814  0.43740  0.88255  1.0000
  C   C285      1.0  0.99596  0.40891  0.83809  1.0000
  C   C286      1.0  0.00657  0.41042  0.83446  1.0000
  H   H497      1.0  0.06075  0.28163  0.77077  1.0000
  S   S73       1.0  0.19935  0.06349  0.80288  1.0000
  C   C287      1.0  0.20327  0.48507  0.78263  1.0000
  C   C288      1.0  0.06576  0.34370  0.72640  1.0000
  S   S74       1.0  0.06716  0.41701  0.72618  1.0000
  S   S75       1.0  0.04754  0.44124  0.77270  1.0000
  C   C289      1.0  0.01340  0.40909  0.81477  1.0000
  H   H498      1.0  0.23345  0.05084  0.74858  1.0000
  C   C290      1.0  0.16678  0.20294  0.68227  1.0000
  H   H499      1.0  0.23620  0.35677  0.67263  1.0000
  C   C291      1.0  0.15792  0.09631  0.65612  1.0000
  C   C292      1.0  0.16219  0.34771  0.68218  1.0000
  H   H500      1.0  0.01771  0.45354  0.82694  1.0000
  H   H501      1.0  0.05196  0.47476  0.78956  1.0000
  C   C293      1.0  0.05881  0.40564  0.69902  1.0000
  C   C294      1.0  0.06800  0.40542  0.70517  1.0000
  C   C295      1.0  0.07799  0.39568  0.69456  1.0000
  C   C296      1.0  0.07881  0.38636  0.67770  1.0000
  H   H502      1.0  0.99940  0.41777  0.71186  1.0000
  H   H503      1.0  0.05109  0.41314  0.70707  1.0000
  H   H504      1.0  0.08513  0.39547  0.69929  1.0000
  H   H505      1.0  0.20450  0.37819  0.68588  1.0000
  C   C297      1.0  0.08455  0.32653  0.70986  1.0000
  H   H506      1.0  0.14829  0.28875  0.67967  1.0000
  H   H507      1.0  0.03129  0.44975  0.91597  1.0000
  H   H508      1.0  0.21944  0.11787  0.69802  1.0000
  H   H509      1.0  0.04496  0.37670  0.77232  1.0000
  H   H510      1.0  0.01455  0.44123  0.86783  1.0000
  C   C298      1.0  0.22316  0.36478  0.73385  1.0000
  C   C299      1.0  0.22812  0.44517  0.85861  1.0000
  C   C300      1.0  0.17765  0.12705  0.69363  1.0000
  C   C301      1.0  0.18661  0.11790  0.68000  1.0000
  H   H511      1.0  0.20919  0.19201  0.68070  1.0000
  H   H512      1.0  0.00879  0.40759  0.89168  1.0000
  H   H513      1.0  0.22221  0.38244  0.73008  1.0000
  C   C302      1.0  0.16979  0.14336  0.68522  1.0000
  H   H514      1.0  0.19271  0.10532  0.68638  1.0000
  H   H515      1.0  0.05407  0.46425  0.68148  1.0000
  C   C303      1.0  0.99600  0.47472  0.88532  1.0000
  H   H516      1.0  0.16282  0.15042  0.69573  1.0000
  H   H517      1.0  0.20460  0.01658  0.71637  1.0000
  C   C304      1.0  0.21076  0.14820  0.68270  1.0000
  H   H518      1.0  0.01969  0.39001  0.87788  1.0000
  H   H519      1.0  0.02532  0.45932  0.66443  1.0000
  H   H520      1.0  0.22530  0.36263  0.70191  1.0000
  H   H521      1.0  0.05074  0.38639  0.79887  1.0000
  H   H522      1.0  0.05041  0.27750  0.76095  1.0000
  H   H523      1.0  0.07624  0.31484  0.74120  1.0000
  H   H524      1.0  0.06323  0.37416  0.74594  1.0000
  H   H525      1.0  0.08045  0.33948  0.73733  1.0000
  H   H526      1.0  0.08558  0.34191  0.69862  1.0000
  H   H527      1.0  0.12333  0.22016  0.66883  1.0000
  H   H528      1.0  0.99463  0.44832  0.78773  1.0000
  H   H529      1.0  0.04434  0.31611  0.74876  1.0000
  H   H530      1.0  0.19460  0.15996  0.69852  1.0000
  Fe  Fe37      1.0  0.05075  0.43367  0.74076  1.0000
  H   H531      1.0  0.19470  0.01375  0.82026  1.0000
  H   H532      1.0  0.22046  0.44411  0.79228  1.0000
  C   C305      1.0  0.05265  0.28877  0.76755  1.0000
  C   C306      1.0  0.02505  0.46789  0.84371  1.0000
  H   H533      1.0  0.05826  0.30713  0.73702  1.0000
  C   C307      1.0  0.02294  0.43210  0.86464  1.0000
  H   H534      1.0  0.13091  0.46421  0.66871  1.0000
  H   H535      1.0  0.99265  0.43251  0.76340  1.0000
  H   H536      1.0  0.05084  0.35309  0.78933  1.0000
  C   C308      1.0  0.05519  0.32663  0.76079  1.0000
  H   H537      1.0  0.06342  0.33554  0.71667  1.0000
  Fe  Fe38      1.0  0.03831  0.47296  0.75847  1.0000
  S   S76       1.0  0.22570  0.01305  0.90107  1.0000
  H   H538      1.0  0.14734  0.02361  0.69526  1.0000
  C   C309      1.0  0.04011  0.43762  0.84020  1.0000
  C   C310      1.0  0.13104  0.27807  0.67327  1.0000
  C   C311      1.0  0.04722  0.41619  0.84903  1.0000
  C   C312      1.0  0.05719  0.41020  0.83228  1.0000
  H   H539      1.0  0.05882  0.39505  0.77327  1.0000
  H   H540      1.0  0.03753  0.43431  0.82733  1.0000
  H   H541      1.0  0.04523  0.44944  0.83238  1.0000
  H   H542      1.0  0.04720  0.37828  0.73551  1.0000
  H   H543      1.0  0.03264  0.40654  0.88496  1.0000
  H   H544      1.0  0.22447  0.43157  0.86853  1.0000
  C   C313      1.0  0.99937  0.42169  0.72682  1.0000
  H   H545      1.0  0.04990  0.41696  0.86288  1.0000
  H   H546      1.0  0.04280  0.40316  0.85345  1.0000
  H   H547      1.0  0.06199  0.39439  0.83862  1.0000
  H   H548      1.0  0.05495  0.40914  0.81799  1.0000
  H   H549      1.0  0.06217  0.42232  0.82776  1.0000
  H   H550      1.0  0.04435  0.34097  0.72041  1.0000
  H   H551      1.0  0.04840  0.32990  0.77421  1.0000
  H   H552      1.0  0.06416  0.37144  0.79135  1.0000
  H   H553      1.0  0.23121  0.00788  0.80286  1.0000
  H   H554      1.0  0.21319  0.00139  0.80557  1.0000
  H   H555      1.0  0.17073  0.26234  0.66493  1.0000
  H   H556      1.0  0.17192  0.37110  0.66889  1.0000
  C   C314      1.0  0.18796  0.03271  0.86760  1.0000
  C   C315      1.0  0.19730  0.02894  0.87845  1.0000
  H   H557      1.0  0.19586  0.48400  0.79407  1.0000
  C   C316      1.0  0.16604  0.03314  0.86121  1.0000
  C   C317      1.0  0.19488  0.99903  0.85382  1.0000
  C   C318      1.0  0.08306  0.48806  0.86326  1.0000
  C   C319      1.0  0.19900  0.05015  0.88021  1.0000
  C   C320      1.0  0.20480  0.00486  0.70726  1.0000
  C   C321      1.0  0.15829  0.03783  0.84674  1.0000
  H   H558      1.0  0.11221  0.30625  0.68841  1.0000
  H   H559      1.0  0.03503  0.48245  0.68280  1.0000
  C   C322      1.0  0.99307  0.47643  0.79867  1.0000
  H   H560      1.0  0.99879  0.40719  0.73971  1.0000
  H   H561      1.0  0.23392  0.03682  0.92684  1.0000
  H   H562      1.0  0.17997  0.03135  0.83630  1.0000
  H   H563      1.0  0.18974  0.04384  0.85199  1.0000
  H   H564      1.0  0.18091  0.04195  0.87701  1.0000
  H   H565      1.0  0.05022  0.36295  0.70506  1.0000
  H   H566      1.0  0.16248  0.02403  0.87677  1.0000
  H   H567      1.0  0.03010  0.47996  0.83876  1.0000
  H   H568      1.0  0.20265  0.02378  0.83139  1.0000
  H   H569      1.0  0.16668  0.04871  0.86320  1.0000
  H   H570      1.0  0.07340  0.44844  0.68161  1.0000
  H   H571      1.0  0.02699  0.36625  0.72980  1.0000
  H   H572      1.0  0.11828  0.29277  0.65573  1.0000
  H   H573      1.0  0.22954  0.04878  0.83576  1.0000
  H   H574      1.0  0.22840  0.40473  0.80728  1.0000
  H   H575      1.0  0.14058  0.40653  0.66631  1.0000
  H   H576      1.0  0.20032  0.06116  0.86449  1.0000
  H   H577      1.0  0.19198  0.05809  0.89077  1.0000
  H   H578      1.0  0.20612  0.04706  0.88693  1.0000
  C   C323      1.0  0.16330  0.37091  0.67299  1.0000
  H   H579      1.0  0.18908  0.47687  0.89339  1.0000
  S   S77       1.0  0.04293  0.46666  0.72582  1.0000
  S   S78       1.0  0.22199  0.04842  0.70201  1.0000
  H   H580      1.0  0.15715  0.02264  0.84473  1.0000
  H   H581      1.0  0.15044  0.04702  0.85378  1.0000
  N   N15       1.0  0.16300  0.07215  0.69077  1.0000
  C   C324      1.0  0.15459  0.05971  0.69397  1.0000
  C   C325      1.0  0.15952  0.09456  0.67849  1.0000
  C   C326      1.0  0.17339  0.06060  0.67909  1.0000
  C   C327      1.0  0.16454  0.07359  0.71163  1.0000
  C   C328      1.0  0.15432  0.08262  0.72703  1.0000
  C   C329      1.0  0.15611  0.03734  0.70915  1.0000
  C   C330      1.0  0.18234  0.07337  0.66978  1.0000
  H   H582      1.0  0.18959  0.22754  0.67101  1.0000
  S   S79       1.0  0.01806  0.46141  0.71164  1.0000
  C   C331      1.0  0.15652  0.08035  0.74864  1.0000
  C   C332      1.0  0.17090  0.15053  0.66327  1.0000
  C   C333      1.0  0.01021  0.48745  0.71010  1.0000
  H   H583      1.0  0.15431  0.05699  0.67861  1.0000
  H   H584      1.0  0.14650  0.06916  0.69957  1.0000
  H   H585      1.0  0.15176  0.10265  0.68713  1.0000
  H   H586      1.0  0.16519  0.10462  0.67722  1.0000
  H   H587      1.0  0.20810  0.49450  0.89305  1.0000
  H   H588      1.0  0.17668  0.04562  0.68973  1.0000
  H   H589      1.0  0.16844  0.05768  0.72004  1.0000
  H   H590      1.0  0.17017  0.08410  0.70903  1.0000
  H   H591      1.0  0.14785  0.07415  0.72967  1.0000
  H   H592      1.0  0.15136  0.09992  0.72080  1.0000
  H   H593      1.0  0.03307  0.38860  0.71478  1.0000
  H   H594      1.0  0.15592  0.03859  0.72531  1.0000
  H   H595      1.0  0.18376  0.07940  0.68217  1.0000
  H   H596      1.0  0.21492  0.15716  0.68825  1.0000
  H   H597      1.0  0.18021  0.08723  0.65696  1.0000
  H   H598      1.0  0.22706  0.35780  0.74751  1.0000
  C   C334      1.0  0.02918  0.42520  0.67289  1.0000
  C   C335      1.0  0.11953  0.28116  0.67058  1.0000
  H   H599      1.0  0.17216  0.05523  0.66589  1.0000
  H   H600      1.0  0.16234  0.08998  0.74728  1.0000
  H   H601      1.0  0.14903  0.08631  0.75950  1.0000
  H   H602      1.0  0.15967  0.06330  0.75560  1.0000
  C   C336      1.0  0.01438  0.48771  0.81586  1.0000
  H   H603      1.0  0.17584  0.00662  0.84724  1.0000
  C   C337      1.0  0.21194  0.48789  0.78854  1.0000
  H   H604      1.0  0.21387  0.43619  0.76530  1.0000
  C   C338      1.0  0.20406  0.48419  0.76173  1.0000
  C   C339      1.0  0.21371  0.48487  0.74695  1.0000
  C   C340      1.0  0.22654  0.05620  0.82157  1.0000
  H   H605      1.0  0.15365  0.34696  0.68823  1.0000
  C   C341      1.0  0.21862  0.07507  0.78487  1.0000
  S   S80       1.0  0.22441  0.42766  0.70964  1.0000
  H   H606      1.0  0.19228  0.99712  0.78687  1.0000
  H   H607      1.0  0.99618  0.40047  0.79059  1.0000
  C   C342      1.0  0.13646  0.22966  0.67447  1.0000
  C   C343      1.0  0.22931  0.02189  0.70612  1.0000
  H   H608      1.0  0.02967  0.48921  0.66028  1.0000
  H   H609      1.0  0.21137  0.04770  0.83521  1.0000
  C   C344      1.0  0.11138  0.29002  0.68867  1.0000
  C   C345      1.0  0.13155  0.21292  0.67131  1.0000
  C   C346      1.0  0.16458  0.27154  0.67588  1.0000
  C   C347      1.0  0.21621  0.05559  0.82125  1.0000
  H   H610      1.0  0.16135  0.04743  0.83099  1.0000
  C   C348      1.0  0.05251  0.31026  0.75174  1.0000
  C   C349      1.0  0.22152  0.48917  0.77364  1.0000
  N   N16       1.0  0.18532  0.01307  0.86500  1.0000
  H   H611      1.0  0.14902  0.25031  0.68134  1.0000
  H   H612      1.0  0.13144  0.26883  0.68961  1.0000
  H   H613      1.0  0.99627  0.46755  0.81294  1.0000
  H   H614      1.0  0.01096  0.49287  0.67681  1.0000
  C   C350      1.0  0.15418  0.28001  0.66807  1.0000
  H   H615      1.0  0.14434  0.22136  0.67829  1.0000
  H   H616      1.0  0.13122  0.23590  0.68829  1.0000
  C   C351      1.0  0.17844  0.46112  0.85169  1.0000
  C   C352      1.0  0.23064  0.01022  0.72629  1.0000
  C   C353      1.0  0.21105  0.12631  0.69777  1.0000
  H   H617      1.0  0.22743  0.41838  0.83540  1.0000
  H   H618      1.0  0.22999  0.48713  0.74177  1.0000
  H   H619      1.0  0.04103  0.46100  0.86467  1.0000
  H   H620      1.0  0.15941  0.37978  0.68573  1.0000
  H   H621      1.0  0.10321  0.29118  0.68688  1.0000
  H   H622      1.0  0.11238  0.27926  0.70414  1.0000
  C   C354      1.0  0.04240  0.44871  0.66578  1.0000
  H   H623      1.0  0.17733  0.45180  0.86826  1.0000
  H   H624      1.0  0.20485  0.02085  0.86933  1.0000
  C   C355      1.0  0.07683  0.33062  0.73046  1.0000
  H   H625      1.0  0.08318  0.47580  0.87823  1.0000
  C   C356      1.0  0.18055  0.00012  0.88611  1.0000
  H   H626      1.0  0.06796  0.34999  0.76318  1.0000
  H   H627      1.0  0.01840  0.46028  0.89222  1.0000
  C   C357      1.0  0.20412  0.48147  0.89430  1.0000
  H   H628      1.0  0.19183  0.47190  0.85317  1.0000
  H   H629      1.0  0.19561  0.01939  0.89475  1.0000
  C   C358      1.0  0.02594  0.46604  0.88673  1.0000
  H   H630      1.0  0.98741  0.48752  0.72395  1.0000
  C   C359      1.0  0.21897  0.42320  0.77480  1.0000
  H   H631      1.0  0.21557  0.08249  0.77074  1.0000
  C   C360      1.0  0.22589  0.43286  0.78262  1.0000
  H   H632      1.0  0.20728  0.11629  0.69259  1.0000
  N   N17       1.0  0.03062  0.44697  0.85566  1.0000
  H   H633      1.0  0.15085  0.09003  0.65732  1.0000
  C   C361      1.0  0.19912  0.16042  0.68190  1.0000
  C   C362      1.0  0.21227  0.06479  0.80288  1.0000
  C   C363      1.0  0.17779  0.19291  0.68719  1.0000
  C   C364      1.0  0.98836  0.46422  0.90007  1.0000
  H   H634      1.0  0.02187  0.42367  0.89892  1.0000
  H   H635      1.0  0.22184  0.45867  0.85287  1.0000
  H   H636      1.0  0.19529  0.22992  0.70228  1.0000
  S   S81       1.0  0.03634  0.41977  0.74785  1.0000
  S   S82       1.0  0.20363  0.03297  0.75892  1.0000
  H   H637      1.0  0.19653  0.19338  0.69784  1.0000
  C   C365      1.0  0.03450  0.45213  0.87230  1.0000
  H   H638      1.0  0.21532  0.14544  0.66690  1.0000
  C   C366      1.0  0.99839  0.49259  0.88888  1.0000
  C   C367      1.0  0.23393  0.07915  0.72396  1.0000
  C   C368      1.0  0.18640  0.19096  0.66661  1.0000
  C   C369      1.0  0.07527  0.45220  0.66406  1.0000
  H   H639      1.0  0.22348  0.99576  0.86710  1.0000
  C   C370      1.0  0.06078  0.35967  0.75713  1.0000
  N   N18       1.0  0.05712  0.34733  0.74571  1.0000
  H   H640      1.0  0.16384  0.02693  0.70339  1.0000
  H   H641      1.0  0.03717  0.47247  0.90097  1.0000
  H   H642      1.0  0.02325  0.42319  0.85268  1.0000
  H   H643      1.0  0.23181  0.45064  0.86848  1.0000
  H   H644      1.0  0.18523  0.48730  0.83206  1.0000
  C   C371      1.0  0.02182  0.46687  0.82375  1.0000
  C   C372      1.0  0.98992  0.44005  0.73168  1.0000
  H   H645      1.0  0.01486  0.40475  0.78355  1.0000
  H   H646      1.0  0.16799  0.41010  0.65995  1.0000
  H   H647      1.0  0.16072  0.20392  0.69721  1.0000
  S   S83       1.0  0.02287  0.46240  0.76692  1.0000
  C   C373      1.0  0.17606  0.00100  0.78466  1.0000
  H   H648      1.0  0.19860  0.25052  0.67944  1.0000
  C   C374      1.0  0.99905  0.40354  0.80271  1.0000
  C   C375      1.0  0.01731  0.39931  0.89043  1.0000
  H   H649      1.0  0.98838  0.48420  0.76198  1.0000
  H   H650      1.0  0.19831  0.01131  0.69846  1.0000
  S   S84       1.0  0.21435  0.48490  0.72060  1.0000
  C   C376      1.0  0.23290  0.06646  0.80362  1.0000
  H   H651      1.0  0.17934  0.20313  0.69599  1.0000
  H   H652      1.0  0.04685  0.29080  0.78261  1.0000
  C   C377      1.0  0.04694  0.36101  0.73924  1.0000
  C   C378      1.0  0.22974  0.35549  0.71472  1.0000
  H   H653      1.0  0.06694  0.35941  0.71590  1.0000
  H   H654      1.0  0.05253  0.39633  0.67756  1.0000
  Fe  Fe39      1.0  0.02819  0.45346  0.73546  1.0000
  C   C379      1.0  0.02978  0.46615  0.90599  1.0000
  C   C380      1.0  0.05689  0.38080  0.78550  1.0000
  C   C381      1.0  0.04430  0.35782  0.71946  1.0000
  H   H655      1.0  0.03995  0.35909  0.75262  1.0000
  H   H656      1.0  0.99681  0.45559  0.74675  1.0000
  Fe  Fe40      1.0  0.03243  0.43004  0.77856  1.0000
  H   H657      1.0  0.06216  0.31851  0.76819  1.0000
  H   H658      1.0  0.14375  0.32966  0.65817  1.0000
  H   H659      1.0  0.00701  0.42625  0.72505  1.0000
  H   H660      1.0  0.16636  0.34070  0.69545  1.0000
  H   H661      1.0  0.16475  0.16293  0.65694  1.0000
  C   C382      1.0  0.17712  0.02057  0.85149  1.0000
  H   H662      1.0  0.09246  0.31750  0.71310  1.0000
  H   H663      1.0  0.16764  0.28518  0.67659  1.0000
  C   C383      1.0  0.18396  0.47929  0.84902  1.0000
  H   H664      1.0  0.02354  0.47667  0.91558  1.0000
  H   H665      1.0  0.01306  0.48710  0.80059  1.0000
  H   H666      1.0  0.17058  0.46757  0.84727  1.0000
  H   H667      1.0  0.22821  0.49156  0.77807  1.0000
  C   C384      1.0  0.14728  0.02607  0.71092  1.0000
  C   C385      1.0  0.19806  0.22119  0.67202  1.0000
  H   H668      1.0  0.19569  0.04602  0.67306  1.0000
  H   H669      1.0  0.18345  0.45014  0.84123  1.0000
  H   H670      1.0  0.04208  0.49210  0.92785  1.0000
  N   N19       1.0  0.13993  0.26782  0.65739  1.0000
  C   C386      1.0  0.05963  0.39622  0.68227  1.0000
  H   H671      1.0  0.21511  0.36109  0.73840  1.0000
  C   C387      1.0  0.06961  0.38664  0.67153  1.0000
  H   H672      1.0  0.13116  0.19965  0.68551  1.0000
  C   C388      1.0  0.23340  0.41540  0.79557  1.0000
  H   H673      1.0  0.23017  0.33800  0.71921  1.0000
  H   H674      1.0  0.03553  0.41144  0.66842  1.0000
  C   C389      1.0  0.03337  0.37140  0.71629  1.0000
  H   H675      1.0  0.99075  0.41023  0.85329  1.0000
  H   H676      1.0  0.05585  0.47580  0.82328  1.0000
  H   H677      1.0  0.13203  0.29421  0.67302  1.0000
  H   H678      1.0  0.20889  0.22796  0.68708  1.0000
  C   C390      1.0  0.20037  0.23301  0.68615  1.0000
  H   H679      1.0  0.05814  0.48383  0.65890  1.0000
  H   H680      1.0  0.20884  0.47182  0.88246  1.0000
  H   H681      1.0  0.19551  0.15080  0.67592  1.0000
  H   H682      1.0  0.03183  0.36954  0.70161  1.0000
  H   H683      1.0  0.15949  0.00220  0.78746  1.0000
  H   H684      1.0  0.02172  0.42427  0.66931  1.0000
  H   H685      1.0  0.01763  0.47485  0.85411  1.0000
  N   N20       1.0  0.19777  0.18317  0.66922  1.0000
  H   H686      1.0  0.14856  0.01016  0.72187  1.0000
  H   H687      1.0  0.00015  0.46882  0.87122  1.0000
  H   H688      1.0  0.99044  0.45364  0.71778  1.0000
  H   H689      1.0  0.02420  0.48293  0.87789  1.0000
  H   H690      1.0  0.23277  0.09011  0.73454  1.0000
  H   H691      1.0  0.22712  0.01760  0.73972  1.0000
  C   C391      1.0  0.23178  0.43100  0.82544  1.0000
  H   H692      1.0  0.17750  0.17685  0.69766  1.0000
  H   H693      1.0  0.20395  0.47096  0.91029  1.0000
  N   N21       1.0  0.04577  0.46987  0.65640  1.0000
  C   C392      1.0  0.14744  0.41444  0.66226  1.0000
  H   H694      1.0  0.07740  0.46812  0.65815  1.0000
  H   H695      1.0  0.08159  0.31700  0.70242  1.0000
  H   H696      1.0  0.22549  0.44484  0.82024  1.0000
  H   H697      1.0  0.02897  0.46470  0.81076  1.0000
  H   H698      1.0  0.16664  0.21933  0.67234  1.0000
  Fe  Fe41      1.0  0.22759  0.45976  0.70742  1.0000
  C   C393      1.0  0.05570  0.46821  0.66389  1.0000
  C   C394      1.0  0.23393  0.01237  0.68876  1.0000
  C   C395      1.0  0.22886  0.07626  0.78540  1.0000
  H   H699      1.0  0.00749  0.48667  0.74321  1.0000
  H   H700      1.0  0.21672  0.40113  0.68413  1.0000
  H   H701      1.0  0.17592  0.01085  0.89711  1.0000
  S   S85       1.0  0.17779  0.01520  0.75820  1.0000
  C   C396      1.0  0.99218  0.40528  0.82233  1.0000
  Fe  Fe42      1.0  0.23401  0.43086  0.67627  1.0000
  H   H702      1.0  0.16326  0.26104  0.69189  1.0000
  H   H703      1.0  0.22399  0.41204  0.76460  1.0000
  C   C397      1.0  0.15005  0.26138  0.66558  1.0000
  C   C398      1.0  0.16608  0.99662  0.79538  1.0000
  H   H704      1.0  0.23018  0.05052  0.94846  1.0000
  H   H705      1.0  0.16464  0.19313  0.67381  1.0000
  H   H706      1.0  0.23058  0.44200  0.76854  1.0000
  H   H707      1.0  0.08654  0.37903  0.66943  1.0000
  C   C399      1.0  0.21611  0.39761  0.66985  1.0000
  H   H708      1.0  0.17522  0.48550  0.87934  1.0000
  C   C400      1.0  0.98817  0.46196  0.79193  1.0000
  C   C401      1.0  0.22252  0.48681  0.75308  1.0000
  H   H709      1.0  0.14997  0.41134  0.67736  1.0000
  C   C402      1.0  0.19275  0.49062  0.89098  1.0000
  C   C403      1.0  0.99010  0.44714  0.75162  1.0000
  C   C404      1.0  0.23590  0.04853  0.93333  1.0000
  H   H710      1.0  0.18428  0.17985  0.65954  1.0000
  H   H711      1.0  0.23506  0.06417  0.92183  1.0000
  H   H712      1.0  0.22603  0.07943  0.72149  1.0000
  H   H713      1.0  0.19724  0.48271  0.75704  1.0000
  H   H714      1.0  0.13596  0.44257  0.68871  1.0000
  C   C405      1.0  0.20920  0.38462  0.67079  1.0000
  H   H715      1.0  0.00659  0.48980  0.82728  1.0000
  H   H716      1.0  0.23295  0.02134  0.67315  1.0000
  H   H717      1.0  0.21256  0.00281  0.69576  1.0000
  H   H718      1.0  0.11770  0.26588  0.67067  1.0000
  H   H719      1.0  0.16575  0.33789  0.67008  1.0000
  S   S86       1.0  0.21082  0.48860  0.81487  1.0000
  C   C406      1.0  0.13371  0.44657  0.67320  1.0000
  H   H720      1.0  0.08227  0.43990  0.65862  1.0000
  C   C407      1.0  0.19284  0.05947  0.66056  1.0000
  H   H721      1.0  0.12703  0.43896  0.67472  1.0000
  H   H722      1.0  0.04119  0.44514  0.68333  1.0000
  H   H723      1.0  0.23368  0.08463  0.77170  1.0000
  C   C408      1.0  0.04802  0.48821  0.79694  1.0000
  H   H724      1.0  0.08165  0.48090  0.85148  1.0000
  C   C409      1.0  0.03717  0.48721  0.66524  1.0000
  H   H725      1.0  0.02775  0.42403  0.69013  1.0000
  C   C410      1.0  0.23489  0.00746  0.78604  1.0000
  H   H726      1.0  0.99969  0.48156  0.78582  1.0000
  C   C411      1.0  0.05026  0.48886  0.81592  1.0000
  H   H727      1.0  0.04875  0.43544  0.66035  1.0000
  C   C412      1.0  0.03227  0.44639  0.66049  1.0000
  H   H728      1.0  0.13642  0.20615  0.65750  1.0000
  S   S87       1.0  0.23612  0.46414  0.67324  1.0000
  C   C413      1.0  0.23664  0.43831  0.83996  1.0000
  C   C414      1.0  0.06579  0.45183  0.65579  1.0000
  H   H729      1.0  0.09093  0.49259  0.85717  1.0000
  H   H730      1.0  0.14951  0.44764  0.65501  1.0000
  C   C415      1.0  0.14325  0.43906  0.65631  1.0000
  H   H731      1.0  0.15084  0.37524  0.65649  1.0000
  S   S88       1.0  0.98753  0.43884  0.89804  1.0000
  H   H732      1.0  0.20312  0.22535  0.65608  1.0000
  H   H733      1.0  0.18541  0.20658  0.65507  1.0000
  H   H734      1.0  0.15047  0.60894  0.08530  1.0000
  Fe  Fe43      1.0  0.18433  0.59639  0.13060  1.0000
  S   S89       1.0  0.18733  0.56133  0.14567  1.0000
  S   S90       1.0  0.18443  0.61323  0.09670  1.0000
  Fe  Fe44      1.0  0.17856  0.60977  0.17233  1.0000
  S   S91       1.0  0.18086  0.57616  0.19126  1.0000
  S   S92       1.0  0.17367  0.63776  0.18784  1.0000
  Fe  Fe45      1.0  0.19555  0.57004  0.16608  1.0000
  S   S93       1.0  0.21119  0.55068  0.17405  1.0000
  Fe  Fe46      1.0  0.17239  0.57030  0.16966  1.0000
  S   S94       1.0  0.16033  0.54964  0.18358  1.0000
  S   S95       1.0  0.19393  0.60427  0.14878  1.0000
  S   S96       1.0  0.16874  0.60447  0.15300  1.0000
  H   H735      1.0  0.17292  0.52464  0.15246  1.0000
  Fe  Fe47      1.0  0.02151  0.49832  0.20610  1.0000
  Fe  Fe48      1.0  0.19579  0.90490  0.20242  1.0000
  S   S97       1.0  0.17870  0.90595  0.20399  1.0000
  S   S98       1.0  0.20313  0.93060  0.17840  1.0000
  Fe  Fe49      1.0  0.19775  0.86543  0.23788  1.0000
  S   S99       1.0  0.18072  0.86368  0.24247  1.0000
  Fe  Fe50      1.0  0.18350  0.87014  0.20702  1.0000
  S   S100      1.0  0.18246  0.84957  0.18552  1.0000
  Fe  Fe51      1.0  0.17754  0.89948  0.23901  1.0000
  S   S101      1.0  0.20082  0.87002  0.20276  1.0000
  S   S102      1.0  0.19438  0.90056  0.23715  1.0000
  H   H736      1.0  0.17783  0.53026  0.10437  1.0000
  H   H737      1.0  0.14234  0.78460  0.00484  1.0000
  Fe  Fe52      1.0  0.16208  0.74814  0.12500  1.0000
  S   S103      1.0  0.15101  0.75063  0.15644  1.0000
  S   S104      1.0  0.17716  0.72326  0.11938  1.0000
  Fe  Fe53      1.0  0.14812  0.78418  0.10059  1.0000
  S   S105      1.0  0.13588  0.78990  0.13011  1.0000
  S   S106      1.0  0.14588  0.80278  0.06788  1.0000
  Fe  Fe54      1.0  0.14990  0.78627  0.14451  1.0000
  S   S107      1.0  0.14894  0.80802  0.16664  1.0000
  Fe  Fe55      1.0  0.13806  0.75392  0.13956  1.0000
  S   S108      1.0  0.12394  0.73729  0.15382  1.0000
  S   S109      1.0  0.16191  0.78329  0.11402  1.0000
  S   S110      1.0  0.14931  0.74873  0.10910  1.0000
  H   H738      1.0  0.01733  0.52875  0.31060  1.0000
  H   H739      1.0  0.09802  0.70875  0.10741  1.0000
  S   S111      1.0  0.06828  0.64056  0.00950  1.0000
  H   H740      1.0  0.17608  0.64935  0.99936  1.0000
  Fe  Fe56      1.0  0.10166  0.61712  0.09526  1.0000
  S   S112      1.0  0.09179  0.64620  0.10728  1.0000
  S   S113      1.0  0.10395  0.61060  0.06315  1.0000
  Fe  Fe57      1.0  0.10913  0.59580  0.13651  1.0000
  S   S114      1.0  0.09963  0.62293  0.15206  1.0000
  S   S115      1.0  0.11790  0.56422  0.15243  1.0000
  Fe  Fe58      1.0  0.08664  0.62213  0.13697  1.0000
  S   S116      1.0  0.06940  0.62271  0.15467  1.0000
  Fe  Fe59      1.0  0.10576  0.64417  0.12110  1.0000
  S   S117      1.0  0.11564  0.66960  0.11272  1.0000
  S   S118      1.0  0.09583  0.59348  0.12374  1.0000
  S   S119      1.0  0.11599  0.61652  0.10659  1.0000
  S   S120      1.0  0.04769  0.54546  0.16416  1.0000
  C   C416      1.0  0.06338  0.60112  0.15746  1.0000
  C   C417      1.0  0.05342  0.60003  0.17130  1.0000
  C   C418      1.0  0.04847  0.58306  0.17371  1.0000
  C   C419      1.0  0.05350  0.56696  0.16235  1.0000
  C   C420      1.0  0.06338  0.56816  0.14844  1.0000
  C   C421      1.0  0.06824  0.58518  0.14590  1.0000
  H   H741      1.0  0.04952  0.61239  0.18019  1.0000
  H   H742      1.0  0.04078  0.58246  0.18430  1.0000
  H   H743      1.0  0.06730  0.55588  0.13948  1.0000
  H   H744      1.0  0.07572  0.58599  0.13482  1.0000
  C   C422      1.0  0.07787  0.63234  0.02516  1.0000
  C   C423      1.0  0.07552  0.63693  0.04529  1.0000
  C   C424      1.0  0.08339  0.63033  0.05742  1.0000
  C   C425      1.0  0.09366  0.61960  0.04914  1.0000
  C   C426      1.0  0.09597  0.61563  0.02892  1.0000
  C   C427      1.0  0.08806  0.62137  0.01729  1.0000
  H   H745      1.0  0.06768  0.64570  0.05139  1.0000
  H   H746      1.0  0.08155  0.63363  0.07300  1.0000
  H   H747      1.0  0.10393  0.60818  0.02207  1.0000
  H   H748      1.0  0.08986  0.61703  0.00226  1.0000
  C   C428      1.0  0.12189  0.71703  0.14384  1.0000
  C   C429      1.0  0.11229  0.70979  0.15152  1.0000
  C   C430      1.0  0.11035  0.69436  0.14306  1.0000
  C   C431      1.0  0.11801  0.68615  0.12676  1.0000
  C   C432      1.0  0.12766  0.69301  0.11960  1.0000
  C   C433      1.0  0.12966  0.70809  0.12825  1.0000
  H   H749      1.0  0.10624  0.71648  0.16377  1.0000
  H   H750      1.0  0.10281  0.68942  0.14863  1.0000
  H   H751      1.0  0.13366  0.68637  0.10734  1.0000
  H   H752      1.0  0.13719  0.71300  0.12279  1.0000
  H   H753      1.0  0.19993  0.69547  0.10492  1.0000
  H   H754      1.0  0.19551  0.62044  0.02017  1.0000
  C   C434      1.0  0.15354  0.75997  0.02067  1.0000
  C   C435      1.0  0.14643  0.77982  0.01771  1.0000
  C   C436      1.0  0.14436  0.79323  0.03191  1.0000
  C   C437      1.0  0.14926  0.78668  0.04923  1.0000
  C   C438      1.0  0.15662  0.76718  0.05169  1.0000
  C   C439      1.0  0.15886  0.75404  0.03727  1.0000
  H   H755      1.0  0.22361  0.58077  0.28504  1.0000
  H   H756      1.0  0.13865  0.80833  0.02997  1.0000
  H   H757      1.0  0.16065  0.76225  0.06467  1.0000
  H   H758      1.0  0.16458  0.73896  0.03930  1.0000
  C   C440      1.0  0.17287  0.83886  0.18009  1.0000
  C   C441      1.0  0.17629  0.82587  0.16513  1.0000
  C   C442      1.0  0.16912  0.81643  0.16068  1.0000
  C   C443      1.0  0.15838  0.81989  0.17113  1.0000
  C   C444      1.0  0.15496  0.83305  0.18596  1.0000
  C   C445      1.0  0.16212  0.84252  0.19039  1.0000
  H   H759      1.0  0.18457  0.82289  0.15703  1.0000
  H   H760      1.0  0.17190  0.80637  0.14926  1.0000
  H   H761      1.0  0.14667  0.83592  0.19411  1.0000
  H   H762      1.0  0.15931  0.85260  0.20177  1.0000
  H   H763      1.0  0.20822  0.73845  0.27500  1.0000
  H   H764      1.0  0.08737  0.51855  0.26236  1.0000
  H   H765      1.0  0.08309  0.57451  0.07498  1.0000
  H   H766      1.0  0.19310  0.52638  0.26455  1.0000
  C   C446      1.0  0.16190  0.52951  0.08577  1.0000
  C   C447      1.0  0.17833  0.96830  0.17724  1.0000
  C   C448      1.0  0.15311  0.60257  0.10050  1.0000
  H   H767      1.0  0.20744  0.63401  0.14318  1.0000
  H   H768      1.0  0.22627  0.86219  0.14087  1.0000
  H   H769      1.0  0.18615  0.79615  0.01978  1.0000
  H   H770      1.0  0.06563  0.70223  0.07964  1.0000
  Fe  Fe60      1.0  0.03389  0.53497  0.18986  1.0000
  Fe  Fe61      1.0  0.01145  0.54195  0.21632  1.0000
  H   H771      1.0  0.19017  0.80470  0.20317  1.0000
  C   C449      1.0  0.12932  0.56192  0.16169  1.0000
  C   C450      1.0  0.13384  0.54170  0.17234  1.0000
  C   C451      1.0  0.14322  0.53848  0.17917  1.0000
  C   C452      1.0  0.14833  0.55534  0.17513  1.0000
  C   C453      1.0  0.14381  0.57579  0.16462  1.0000
  C   C454      1.0  0.13423  0.57912  0.15798  1.0000
  H   H772      1.0  0.13007  0.52839  0.17533  1.0000
  H   H773      1.0  0.14663  0.52272  0.18742  1.0000
  H   H774      1.0  0.14771  0.58890  0.16150  1.0000
  H   H775      1.0  0.13078  0.59476  0.14961  1.0000
  C   C455      1.0  0.17456  0.66151  0.16878  1.0000
  C   C456      1.0  0.17086  0.68120  0.17484  1.0000
  C   C457      1.0  0.17159  0.70026  0.15965  1.0000
  C   C458      1.0  0.17615  0.69961  0.13847  1.0000
  C   C459      1.0  0.17994  0.67992  0.13246  1.0000
  C   C460      1.0  0.17907  0.66091  0.14758  1.0000
  H   H776      1.0  0.16746  0.68171  0.19125  1.0000
  H   H777      1.0  0.16884  0.71543  0.16441  1.0000
  H   H778      1.0  0.18335  0.67937  0.11605  1.0000
  H   H779      1.0  0.18174  0.64586  0.14267  1.0000
  C   C461      1.0  0.21725  0.56361  0.18551  1.0000
  C   C462      1.0  0.21158  0.58208  0.19296  1.0000
  C   C463      1.0  0.21664  0.59244  0.20164  1.0000
  H   H780      1.0  0.18114  0.96666  0.16057  1.0000
  H   H781      1.0  0.08589  0.74391  0.00016  1.0000
  H   H782      1.0  0.18704  0.53335  0.23167  1.0000
  H   H783      1.0  0.20332  0.58841  0.19200  1.0000
  H   H784      1.0  0.08971  0.52376  0.22340  1.0000
  C   C464      1.0  0.08848  0.50491  0.25492  1.0000
  H   H785      1.0  0.02360  0.55545  0.13397  1.0000
  H   H786      1.0  0.10840  0.51668  0.09655  1.0000
  C   C465      1.0  0.17808  0.59601  0.04942  1.0000
  C   C466      1.0  0.17894  0.60790  0.06286  1.0000
  C   C467      1.0  0.18364  0.59773  0.08018  1.0000
  C   C468      1.0  0.18754  0.57557  0.08406  1.0000
  C   C469      1.0  0.18684  0.56370  0.07040  1.0000
  H   H787      1.0  0.17416  0.60392  0.03652  1.0000
  H   H788      1.0  0.17565  0.62491  0.06032  1.0000
  H   H789      1.0  0.19125  0.56765  0.09734  1.0000
  H   H790      1.0  0.17435  0.82000  0.22340  1.0000
  H   H791      1.0  0.14766  0.83987  0.03317  1.0000
  C   C470      1.0  0.21851  0.58800  0.27325  1.0000
  C   C471      1.0  0.17665  0.68689  0.02562  1.0000
  C   C472      1.0  0.17895  0.65535  0.01010  1.0000
  C   C473      1.0  0.16124  0.67673  0.02188  1.0000
  H   H792      1.0  0.04575  0.64037  0.02804  1.0000
  H   H793      1.0  0.01317  0.50875  0.28718  1.0000
  C   C474      1.0  0.17754  0.67278  0.04792  1.0000
  H   H794      1.0  0.14596  0.50745  0.12867  1.0000
  H   H795      1.0  0.03555  0.56775  0.25732  1.0000
  H   H796      1.0  0.99399  0.54088  0.15472  1.0000
  H   H797      1.0  0.13961  0.66360  0.01244  1.0000
  C   C475      1.0  0.18097  0.68435  0.06076  1.0000
  C   C476      1.0  0.14351  0.67084  0.02044  1.0000
  H   H798      1.0  0.17141  0.70281  0.02749  1.0000
  H   H799      1.0  0.18470  0.69014  0.01824  1.0000
  Fe  Fe62      1.0  0.02940  0.51358  0.23651  1.0000
  H   H800      1.0  0.02011  0.54163  0.27150  1.0000
  H   H801      1.0  0.15658  0.69284  0.02456  1.0000
  H   H802      1.0  0.16056  0.66571  0.03765  1.0000
  H   H803      1.0  0.17748  0.64406  0.02560  1.0000
  H   H804      1.0  0.20431  0.76543  0.27906  1.0000
  H   H805      1.0  0.15579  0.67833  0.99314  1.0000
  H   H806      1.0  0.23056  0.52223  0.26003  1.0000
  H   H807      1.0  0.16990  0.66858  0.05722  1.0000
  H   H808      1.0  0.18360  0.65769  0.04665  1.0000
  C   C477      1.0  0.08467  0.51273  0.23419  1.0000
  H   H809      1.0  0.03892  0.57726  0.22910  1.0000
  C   C478      1.0  0.21449  0.67387  0.11308  1.0000
  H   H810      1.0  0.05784  0.51622  0.20727  1.0000
  H   H811      1.0  0.21295  0.66065  0.10809  1.0000
  H   H812      1.0  0.23212  0.92476  0.27768  1.0000
  H   H813      1.0  0.08187  0.56019  0.05691  1.0000
  H   H814      1.0  0.20137  0.95385  0.28469  1.0000
  C   C479      1.0  0.20149  0.52161  0.30059  1.0000
  C   C480      1.0  0.99044  0.55515  0.16184  1.0000
  C   C481      1.0  0.23617  0.84072  0.22669  1.0000
  H   H815      1.0  0.17503  0.69937  0.06309  1.0000
  H   H816      1.0  0.09162  0.56989  0.17180  1.0000
  C   C482      1.0  0.22136  0.60289  0.12609  1.0000
  H   H817      1.0  0.13943  0.68793  0.01957  1.0000
  C   C483      1.0  0.22433  0.98815  0.26685  1.0000
  N   N22       1.0  0.12102  0.74538  0.06931  1.0000
  C   C484      1.0  0.11457  0.72904  0.08252  1.0000
  C   C485      1.0  0.13217  0.73817  0.07337  1.0000
  C   C486      1.0  0.11582  0.76589  0.07708  1.0000
  C   C487      1.0  0.12136  0.74952  0.04598  1.0000
  C   C488      1.0  0.12121  0.73020  0.03737  1.0000
  C   C489      1.0  0.10249  0.73557  0.08255  1.0000
  C   C490      1.0  0.12176  0.78445  0.06763  1.0000
  C   C491      1.0  0.13917  0.71760  0.06608  1.0000
  C   C492      1.0  0.14947  0.70994  0.07430  1.0000
  C   C493      1.0  0.12457  0.73456  0.01335  1.0000
  C   C494      1.0  0.09727  0.71627  0.09087  1.0000
  C   C495      1.0  0.11493  0.80534  0.07358  1.0000
  H   H818      1.0  0.11508  0.72595  0.09929  1.0000
  H   H819      1.0  0.11785  0.71329  0.07808  1.0000
  H   H820      1.0  0.13688  0.75057  0.06492  1.0000
  H   H821      1.0  0.13185  0.73628  0.09041  1.0000
  H   H822      1.0  0.11472  0.76273  0.09461  1.0000
  H   H823      1.0  0.10773  0.77231  0.07367  1.0000
  H   H824      1.0  0.11450  0.76241  0.04161  1.0000
  H   H825      1.0  0.12854  0.75595  0.03664  1.0000
  H   H826      1.0  0.11307  0.72703  0.04187  1.0000
  H   H827      1.0  0.12656  0.71524  0.04351  1.0000
  H   H828      1.0  0.09838  0.74697  0.09309  1.0000
  H   H829      1.0  0.10103  0.74356  0.06659  1.0000
  H   H830      1.0  0.12400  0.78716  0.05018  1.0000
  H   H831      1.0  0.12899  0.78076  0.07409  1.0000
  H   H832      1.0  0.13502  0.70416  0.07153  1.0000
  H   H833      1.0  0.14151  0.72106  0.04856  1.0000
  H   H834      1.0  0.15487  0.69710  0.06648  1.0000
  H   H835      1.0  0.15360  0.72315  0.07113  1.0000
  H   H836      1.0  0.14785  0.70341  0.09153  1.0000
  C   C496      1.0  0.22751  0.65448  0.14755  1.0000
  C   C497      1.0  0.22421  0.62152  0.13084  1.0000
  H   H837      1.0  0.19480  0.65966  0.00986  1.0000
  H   H838      1.0  0.08866  0.72150  0.09068  1.0000
  H   H839      1.0  0.10105  0.70419  0.08097  1.0000
  H   H840      1.0  0.11962  0.81805  0.06710  1.0000
  H   H841      1.0  0.10767  0.81055  0.06697  1.0000
  H   H842      1.0  0.11261  0.80334  0.09103  1.0000
  N   N23       1.0  0.08874  0.69821  0.02222  1.0000
  C   C498      1.0  0.09425  0.71594  0.02015  1.0000
  C   C499      1.0  0.09694  0.67749  0.02109  1.0000
  H   H843      1.0  0.22777  0.67083  0.14836  1.0000
  C   C500      1.0  0.08012  0.69549  0.04206  1.0000
  C   C501      1.0  0.08899  0.55459  0.17534  1.0000
  H   H844      1.0  0.16088  0.86317  0.01331  1.0000
  H   H845      1.0  0.19883  0.96415  0.13683  1.0000
  C   C502      1.0  0.10435  0.66976  0.03706  1.0000
  H   H846      1.0  0.22159  0.60185  0.26220  1.0000
  H   H847      1.0  0.07056  0.53609  0.18543  1.0000
  C   C503      1.0  0.21034  0.67164  0.13719  1.0000
  C   C504      1.0  0.11445  0.65393  0.02935  1.0000
  H   H848      1.0  0.16129  0.79842  0.24929  1.0000
  H   H849      1.0  0.16162  0.60287  0.09789  1.0000
  H   H850      1.0  0.09304  0.66400  0.02352  1.0000
  C   C505      1.0  0.07823  0.57439  0.06407  1.0000
  H   H851      1.0  0.19498  0.96885  0.11190  1.0000
  H   H852      1.0  0.17861  0.98417  0.24354  1.0000
  H   H853      1.0  0.07247  0.70685  0.03965  1.0000
  H   H854      1.0  0.07836  0.67928  0.04570  1.0000
  C   C506      1.0  0.15683  0.56486  0.09445  1.0000
  S   S121      1.0  0.18061  0.55841  0.03722  1.0000
  H   H855      1.0  0.11354  0.50526  0.07350  1.0000
  S   S122      1.0  0.16430  0.56785  0.99475  1.0000
  H   H856      1.0  0.07299  0.68127  0.01500  1.0000
  H   H857      1.0  0.13775  0.88790  0.02129  1.0000
  H   H858      1.0  0.20274  0.97999  0.19774  1.0000
  N   N24       1.0  0.06728  0.52957  0.21956  1.0000
  C   C507      1.0  0.04174  0.63019  0.04235  1.0000
  C   C508      1.0  0.15715  0.95226  0.30402  1.0000
  H   H859      1.0  0.06210  0.57428  0.06427  1.0000
  C   C509      1.0  0.11802  0.56789  0.02581  1.0000
  H   H860      1.0  0.13558  0.56140  0.05658  1.0000
  C   C510      1.0  0.21508  0.85326  0.28133  1.0000
  C   C511      1.0  0.21761  0.81484  0.28709  1.0000
  H   H861      1.0  0.09718  0.56858  0.02427  1.0000
  H   H862      1.0  0.13714  0.56604  0.00376  1.0000
  H   H863      1.0  0.13329  0.52755  0.05681  1.0000
  H   H864      1.0  0.06828  0.51456  0.25194  1.0000
  N   N25       1.0  0.19656  0.90297  0.13207  1.0000
  C   C512      1.0  0.18710  0.89468  0.14672  1.0000
  C   C513      1.0  0.20647  0.89085  0.14033  1.0000
  C   C514      1.0  0.19490  0.92618  0.13288  1.0000
  C   C515      1.0  0.19791  0.90162  0.10943  1.0000
  C   C516      1.0  0.19404  0.88321  0.10573  1.0000
  C   C517      1.0  0.17601  0.90842  0.14335  1.0000
  C   C518      1.0  0.20453  0.93691  0.12167  1.0000
  C   C519      1.0  0.20928  0.86624  0.14277  1.0000
  C   C520      1.0  0.21930  0.85615  0.15174  1.0000
  C   C521      1.0  0.19770  0.88139  0.08264  1.0000
  C   C522      1.0  0.16718  0.89609  0.15455  1.0000
  H   H865      1.0  0.20403  0.52809  0.31148  1.0000
  H   H866      1.0  0.18727  0.89339  0.16342  1.0000
  H   H867      1.0  0.18748  0.87809  0.14588  1.0000
  H   H868      1.0  0.21362  0.89642  0.12973  1.0000
  H   H869      1.0  0.20584  0.89422  0.15599  1.0000
  H   H870      1.0  0.19256  0.92798  0.14956  1.0000
  H   H871      1.0  0.18810  0.93614  0.12564  1.0000
  H   H872      1.0  0.19353  0.91663  0.10052  1.0000
  H   H873      1.0  0.20642  0.90057  0.10105  1.0000
  H   H874      1.0  0.18520  0.88631  0.10969  1.0000
  H   H875      1.0  0.19693  0.86745  0.11552  1.0000
  H   H876      1.0  0.17410  0.92291  0.14999  1.0000
  H   H877      1.0  0.17584  0.91375  0.12634  1.0000
  H   H878      1.0  0.20769  0.93432  0.10534  1.0000
  H   H879      1.0  0.21102  0.93029  0.13053  1.0000
  H   H880      1.0  0.20275  0.85877  0.15358  1.0000
  H   H881      1.0  0.21108  0.86214  0.12717  1.0000
  C   C523      1.0  0.98773  0.54072  0.26018  1.0000
  H   H882      1.0  0.21820  0.85980  0.16737  1.0000
  H   H883      1.0  0.22103  0.83848  0.15373  1.0000
  H   H884      1.0  0.19457  0.86853  0.08038  1.0000
  H   H885      1.0  0.19466  0.89667  0.07216  1.0000
  H   H886      1.0  0.20654  0.87725  0.07806  1.0000
  H   H887      1.0  0.16686  0.89122  0.17181  1.0000
  H   H888      1.0  0.15936  0.90640  0.15204  1.0000
  H   H889      1.0  0.16855  0.88157  0.14826  1.0000
  H   H890      1.0  0.00630  0.55551  0.27421  1.0000
  H   H891      1.0  0.22732  0.56725  0.25255  1.0000
  H   H892      1.0  0.22216  0.98506  0.28427  1.0000
  Fe  Fe63      1.0  0.17685  0.57594  0.00553  1.0000
  C   C524      1.0  0.20150  0.75261  0.27588  1.0000
  H   H893      1.0  0.08156  0.52053  0.19615  1.0000
  H   H894      1.0  0.18065  0.87291  0.30792  1.0000
  H   H895      1.0  0.20372  0.51730  0.24413  1.0000
  H   H896      1.0  0.15869  0.65183  0.00920  1.0000
  C   C525      1.0  0.22236  0.81206  0.30394  1.0000
  H   H897      1.0  0.15633  0.53204  0.99256  1.0000
  H   H898      1.0  0.22099  0.86416  0.30255  1.0000
  H   H899      1.0  0.18060  0.96846  0.21525  1.0000
  C   C526      1.0  0.14444  0.54059  0.10974  1.0000
  C   C527      1.0  0.19470  0.65296  0.20431  1.0000
  H   H900      1.0  0.17955  0.82063  0.24442  1.0000
  H   H901      1.0  0.21681  0.80093  0.28282  1.0000
  H   H902      1.0  0.20183  0.67099  0.13996  1.0000
  N   N26       1.0  0.14051  0.65170  0.17233  1.0000
  C   C528      1.0  0.12887  0.65092  0.17920  1.0000
  C   C529      1.0  0.14493  0.63053  0.20867  1.0000
  C   C530      1.0  0.12603  0.63073  0.17689  1.0000
  C   C531      1.0  0.13479  0.68248  0.19315  1.0000
  C   C532      1.0  0.11413  0.63141  0.18511  1.0000
  H   H903      1.0  0.12417  0.66518  0.16998  1.0000
  H   H904      1.0  0.12565  0.65216  0.19589  1.0000
  H   H905      1.0  0.13635  0.63157  0.21592  1.0000
  H   H906      1.0  0.12804  0.62963  0.16008  1.0000
  H   H907      1.0  0.13031  0.61594  0.18608  1.0000
  H   H908      1.0  0.12662  0.68930  0.19017  1.0000
  H   H909      1.0  0.13972  0.71301  0.18086  1.0000
  H   H910      1.0  0.14679  0.69438  0.20014  1.0000
  H   H911      1.0  0.11164  0.63260  0.20193  1.0000
  H   H912      1.0  0.10944  0.64528  0.17558  1.0000
  H   H913      1.0  0.11240  0.61643  0.18396  1.0000
  N   N27       1.0  0.04975  0.59592  0.09546  1.0000
  C   C533      1.0  0.06173  0.59179  0.08804  1.0000
  C   C534      1.0  0.04641  0.61050  0.11086  1.0000
  C   C535      1.0  0.04677  0.57479  0.10736  1.0000
  C   C536      1.0  0.04393  0.60510  0.07754  1.0000
  C   C537      1.0  0.04932  0.61957  0.05741  1.0000
  C   C538      1.0  0.06676  0.57351  0.07584  1.0000
  C   C539      1.0  0.03493  0.57600  0.11914  1.0000
  C   C540      1.0  0.04900  0.63301  0.10229  1.0000
  C   C541      1.0  0.04627  0.64507  0.12001  1.0000
  H   H914      1.0  0.20998  0.70881  0.10506  1.0000
  C   C542      1.0  0.18097  0.78876  0.01489  1.0000
  C   C543      1.0  0.03184  0.55436  0.12424  1.0000
  H   H915      1.0  0.06557  0.58762  0.10178  1.0000
  H   H916      1.0  0.06438  0.60643  0.07801  1.0000
  H   H917      1.0  0.03765  0.61341  0.11720  1.0000
  H   H918      1.0  0.05005  0.60257  0.12482  1.0000
  H   H919      1.0  0.05174  0.56642  0.11924  1.0000
  H   H920      1.0  0.04856  0.56380  0.09644  1.0000
  H   H921      1.0  0.04255  0.59206  0.07188  1.0000
  H   H922      1.0  0.03581  0.61438  0.08328  1.0000
  H   H923      1.0  0.05652  0.60999  0.04875  1.0000
  H   H924      1.0  0.05180  0.63237  0.06108  1.0000
  H   H925      1.0  0.06696  0.55775  0.08713  1.0000
  C   C544      1.0  0.15530  0.66894  0.00961  1.0000
  H   H926      1.0  0.02943  0.58779  0.10967  1.0000
  H   H927      1.0  0.03362  0.58084  0.13432  1.0000
  H   H928      1.0  0.05756  0.63221  0.09489  1.0000
  H   H929      1.0  0.04410  0.64269  0.09069  1.0000
  H   H930      1.0  0.03770  0.64680  0.12787  1.0000
  H   H931      1.0  0.05115  0.63649  0.13194  1.0000
  H   H932      1.0  0.04802  0.66128  0.11344  1.0000
  S   S123      1.0  0.99613  0.56604  0.22296  1.0000
  H   H933      1.0  0.03941  0.61790  0.03732  1.0000
  H   H934      1.0  0.14283  0.51742  0.02191  1.0000
  H   H935      1.0  0.12207  0.57534  0.05894  1.0000
  H   H936      1.0  0.09567  0.54126  0.17967  1.0000
  C   C545      1.0  0.10320  0.56729  0.00935  1.0000
  C   C546      1.0  0.18532  0.88431  0.29645  1.0000
  H   H937      1.0  0.12655  0.60223  0.02613  1.0000
  H   H938      1.0  0.13738  0.61867  0.03825  1.0000
  H   H939      1.0  0.09709  0.49718  0.25181  1.0000
  H   H940      1.0  0.18888  0.68821  0.05272  1.0000
  C   C547      1.0  0.22420  0.52852  0.25075  1.0000
  C   C548      1.0  0.21511  0.55154  0.27572  1.0000
  C   C549      1.0  0.20509  0.54632  0.25262  1.0000
  H   H941      1.0  0.99328  0.53860  0.19233  1.0000
  H   H942      1.0  0.21487  0.61937  0.16238  1.0000
  C   C550      1.0  0.21892  0.57164  0.26086  1.0000
  C   C551      1.0  0.20145  0.96101  0.12064  1.0000
  H   H943      1.0  0.21806  0.50796  0.28936  1.0000
  H   H944      1.0  0.19493  0.74796  0.28917  1.0000
  H   H945      1.0  0.11122  0.57340  0.03833  1.0000
  C   C552      1.0  0.07881  0.68663  0.00051  1.0000
  H   H946      1.0  0.21392  0.82312  0.20441  1.0000
  H   H947      1.0  0.22648  0.54237  0.23831  1.0000
  H   H948      1.0  0.05618  0.50867  0.23520  1.0000
  H   H949      1.0  0.12711  0.52396  0.13834  1.0000
  H   H950      1.0  0.20748  0.55768  0.28616  1.0000
  H   H951      1.0  0.19909  0.55892  0.26013  1.0000
  H   H952      1.0  0.20861  0.55513  0.23670  1.0000
  H   H953      1.0  0.16176  0.83882  0.26242  1.0000
  C   C553      1.0  0.19859  0.53176  0.24952  1.0000
  N   N28       1.0  0.00528  0.49707  0.31945  1.0000
  C   C554      1.0  0.11419  0.55572  0.01382  1.0000
  H   H954      1.0  0.21395  0.57956  0.24899  1.0000
  C   C555      1.0  0.98963  0.56107  0.24973  1.0000
  C   C556      1.0  0.15810  0.82924  0.25642  1.0000
  H   H955      1.0  0.11241  0.64035  0.02595  1.0000
  H   H956      1.0  0.12253  0.50648  0.08868  1.0000
  H   H957      1.0  0.21442  0.79826  0.19805  1.0000
  H   H958      1.0  0.03215  0.54963  0.10950  1.0000
  C   C557      1.0  0.16756  0.82386  0.00806  1.0000
  C   C558      1.0  0.18457  0.98205  0.18169  1.0000
  H   H959      1.0  0.10133  0.71552  0.00670  1.0000
  H   H960      1.0  0.13790  0.65950  0.14056  1.0000
  H   H961      1.0  0.13413  0.67063  0.20831  1.0000
  H   H962      1.0  0.21277  0.96136  0.23918  1.0000
  C   C559      1.0  0.13892  0.70064  0.19576  1.0000
  H   H963      1.0  0.14772  0.64307  0.21232  1.0000
  H   H964      1.0  0.14936  0.60764  0.23640  1.0000
  H   H965      1.0  0.00363  0.54350  0.31330  1.0000
  H   H966      1.0  0.14041  0.68549  0.16027  1.0000
  C   C560      1.0  0.19779  0.76028  0.25504  1.0000
  H   H967      1.0  0.20395  0.80131  0.23446  1.0000
  H   H968      1.0  0.21021  0.59390  0.28141  1.0000
  C   C561      1.0  0.19873  0.65487  0.18049  1.0000
  H   H969      1.0  0.14527  0.63342  0.14779  1.0000
  C   C562      1.0  0.14206  0.67271  0.17431  1.0000
  H   H970      1.0  0.23206  0.83233  0.24213  1.0000
  H   H971      1.0  0.21222  0.60656  0.20757  1.0000
  C   C563      1.0  0.23244  0.91325  0.19143  1.0000
  H   H972      1.0  0.23282  0.98050  0.26184  1.0000
  C   C564      1.0  0.21938  0.95029  0.17305  1.0000
  H   H973      1.0  0.21032  0.68680  0.14125  1.0000
  H   H974      1.0  0.19381  0.96179  0.24466  1.0000
  C   C565      1.0  0.08731  0.73899  0.01646  1.0000
  H   H975      1.0  0.23167  0.61497  0.13678  1.0000
  H   H976      1.0  0.19544  0.74675  0.25223  1.0000
  H   H977      1.0  0.19054  0.79204  0.26145  1.0000
  C   C566      1.0  0.14727  0.63296  0.18450  1.0000
  C   C567      1.0  0.14415  0.65019  0.14934  1.0000
  H   H978      1.0  0.20474  0.76411  0.24241  1.0000
  H   H979      1.0  0.21159  0.69593  0.08379  1.0000
  C   C568      1.0  0.15094  0.60883  0.21913  1.0000
  S   S124      1.0  0.01834  0.53140  0.18542  1.0000
  H   H980      1.0  0.18178  0.77438  0.26880  1.0000
  H   H981      1.0  0.07836  0.58896  0.05120  1.0000
  H   H982      1.0  0.15054  0.67131  0.17449  1.0000
  H   H983      1.0  0.20525  0.62745  0.99643  1.0000
  C   C569      1.0  0.18830  0.77992  0.25588  1.0000
  C   C570      1.0  0.18208  0.57389  0.05310  1.0000
  C   C571      1.0  0.11517  0.51499  0.08276  1.0000
  S   S125      1.0  0.02667  0.54793  0.21919  1.0000
  H   H984      1.0  0.20543  0.91540  0.30188  1.0000
  H   H985      1.0  0.14830  0.59554  0.21642  1.0000
  H   H986      1.0  0.13324  0.70832  0.20838  1.0000
  H   H987      1.0  0.14695  0.61765  0.18131  1.0000
  C   C572      1.0  0.07472  0.53421  0.19828  1.0000
  C   C573      1.0  0.08366  0.70395  0.00341  1.0000
  C   C574      1.0  0.09286  0.75523  0.01864  1.0000
  S   S126      1.0  0.16371  0.91716  0.26004  1.0000
  H   H988      1.0  0.23199  0.65282  0.13142  1.0000
  H   H989      1.0  0.23209  0.96599  0.16973  1.0000
  C   C575      1.0  0.13996  0.53130  0.00973  1.0000
  H   H990      1.0  0.15966  0.60699  0.21273  1.0000
  H   H991      1.0  0.15574  0.63388  0.17872  1.0000
  H   H992      1.0  0.19479  0.53374  0.29474  1.0000
  H   H993      1.0  0.23031  0.85432  0.21966  1.0000
  H   H994      1.0  0.17191  0.82967  0.01645  1.0000
  H   H995      1.0  0.19704  0.54862  0.21761  1.0000
  H   H996      1.0  0.21449  0.60876  0.11826  1.0000
  C   C576      1.0  0.13505  0.60361  0.04813  1.0000
  S   S127      1.0  0.15552  0.74146  0.00500  1.0000
  H   H997      1.0  0.22929  0.94327  0.25360  1.0000
  H   H998      1.0  0.17146  0.52025  0.04638  1.0000
  H   H999      1.0  0.21952  0.89779  0.19586  1.0000
  C   C577      1.0  0.22482  0.51164  0.23836  1.0000
  C   C578      1.0  0.20017  0.80932  0.22080  1.0000
  H   H1000     1.0  0.15345  0.67545  0.13443  1.0000
  N   N29       1.0  0.18438  0.78997  0.23570  1.0000
  C   C579      1.0  0.20909  0.81355  0.20141  1.0000
  H   H1001     1.0  0.19878  0.78084  0.21272  1.0000
  H   H1002     1.0  0.19520  0.82505  0.22354  1.0000
  H   H1003     1.0  0.14257  0.66216  0.03723  1.0000
  C   C580      1.0  0.07272  0.52436  0.23782  1.0000
  C   C581      1.0  0.15459  0.65784  0.13690  1.0000
  C   C582      1.0  0.19336  0.79556  0.21741  1.0000
  H   H1004     1.0  0.19638  0.94958  0.22247  1.0000
  H   H1005     1.0  0.21061  0.93496  0.24229  1.0000
  C   C583      1.0  0.16496  0.93444  0.27459  1.0000
  H   H1006     1.0  0.16107  0.65026  0.14551  1.0000
  H   H1007     1.0  0.15206  0.66021  0.10567  1.0000
  C   C584      1.0  0.17622  0.81029  0.23871  1.0000
  H   H1008     1.0  0.18180  0.89049  0.28227  1.0000
  H   H1009     1.0  0.18038  0.93992  0.25689  1.0000
  C   C585      1.0  0.22737  0.58455  0.20272  1.0000
  H   H1010     1.0  0.21481  0.94559  0.28867  1.0000
  H   H1011     1.0  0.17790  0.50319  0.13831  1.0000
  C   C586      1.0  0.17387  0.94358  0.26988  1.0000
  H   H1012     1.0  0.14968  0.93216  0.29531  1.0000
  C   C587      1.0  0.15830  0.65255  0.11502  1.0000
  H   H1013     1.0  0.18590  0.75995  0.22741  1.0000
  H   H1014     1.0  0.18018  0.78648  0.19682  1.0000
  H   H1015     1.0  0.20571  0.82272  0.18743  1.0000
  H   H1016     1.0  0.21441  0.96458  0.16565  1.0000
  H   H1017     1.0  0.17515  0.78268  0.02904  1.0000
  H   H1018     1.0  0.07704  0.71834  0.00427  1.0000
  C   C588      1.0  0.13289  0.59144  0.03414  1.0000
  H   H1019     1.0  0.13296  0.86874  0.04429  1.0000
  H   H1020     1.0  0.15956  0.52508  0.03680  1.0000
  C   C589      1.0  0.15659  0.93909  0.29155  1.0000
  H   H1021     1.0  0.14032  0.58814  0.02214  1.0000
  H   H1022     1.0  0.21939  0.59082  0.14084  1.0000
  H   H1023     1.0  0.06173  0.56317  0.22070  1.0000
  H   H1024     1.0  0.16019  0.63499  0.11632  1.0000
  H   H1025     1.0  0.16564  0.65858  0.10650  1.0000
  C   C590      1.0  0.17963  0.77424  0.23085  1.0000
  C   C591      1.0  0.20629  0.94821  0.29678  1.0000
  H   H1026     1.0  0.21217  0.66851  0.17729  1.0000
  H   H1027     1.0  0.17955  0.95206  0.18758  1.0000
  H   H1028     1.0  0.12779  0.60779  0.06033  1.0000
  H   H1029     1.0  0.11722  0.54653  0.07963  1.0000
  C   C592      1.0  0.01031  0.53421  0.30323  1.0000
  C   C593      1.0  0.20385  0.92734  0.31161  1.0000
  H   H1030     1.0  0.20848  0.96818  0.11240  1.0000
  C   C594      1.0  0.17433  0.95726  0.28226  1.0000
  H   H1031     1.0  0.18126  0.96398  0.27899  1.0000
  H   H1032     1.0  0.23232  0.54112  0.18131  1.0000
  C   C595      1.0  0.17422  0.78276  0.21164  1.0000
  C   C596      1.0  0.13749  0.55233  0.01766  1.0000
  H   H1033     1.0  0.04683  0.58021  0.24558  1.0000
  H   H1034     1.0  0.01520  0.56361  0.28475  1.0000
  H   H1035     1.0  0.16262  0.76238  0.22328  1.0000
  H   H1036     1.0  0.22905  0.90780  0.25072  1.0000
  C   C597      1.0  0.04227  0.56961  0.24341  1.0000
  H   H1037     1.0  0.16793  0.79741  0.21329  1.0000
  H   H1038     1.0  0.15047  0.82688  0.26764  1.0000
  H   H1039     1.0  0.18583  0.52225  0.13473  1.0000
  C   C598      1.0  0.16898  0.76615  0.20916  1.0000
  H   H1040     1.0  0.17377  0.76794  0.24489  1.0000
  H   H1041     1.0  0.11353  0.53934  0.02283  1.0000
  C   C599      1.0  0.22938  0.95111  0.17532  1.0000
  S   S128      1.0  0.03772  0.50090  0.20744  1.0000
  H   H1042     1.0  0.17498  0.75124  0.20672  1.0000
  H   H1043     1.0  0.10012  0.66137  0.05239  1.0000
  C   C600      1.0  0.16593  0.96158  0.29942  1.0000
  H   H1044     1.0  0.09429  0.75163  0.03480  1.0000
  H   H1045     1.0  0.21241  0.86915  0.27238  1.0000
  H   H1046     1.0  0.08711  0.55299  0.16090  1.0000
  C   C601      1.0  0.19881  0.96082  0.22877  1.0000
  H   H1047     1.0  0.22090  0.54362  0.28615  1.0000
  H   H1048     1.0  0.18631  0.55835  0.23812  1.0000
  H   H1049     1.0  0.22311  0.67387  0.10818  1.0000
  H   H1050     1.0  0.99059  0.52780  0.25196  1.0000
  H   H1051     1.0  0.23504  0.86105  0.25684  1.0000
  C   C602      1.0  0.23297  0.56587  0.19560  1.0000
  H   H1052     1.0  0.14167  0.59389  0.05591  1.0000
  C   C603      1.0  0.21021  0.95116  0.23181  1.0000
  C   C604      1.0  0.15587  0.85954  0.00461  1.0000
  C   C605      1.0  0.14019  0.87279  0.03262  1.0000
  H   H1053     1.0  0.16528  0.77266  0.19519  1.0000
  C   C606      1.0  0.07917  0.55470  0.19348  1.0000
  H   H1054     1.0  0.08627  0.49875  0.22709  1.0000
  S   S129      1.0  0.01352  0.50890  0.23647  1.0000
  H   H1055     1.0  0.07355  0.67517  0.08414  1.0000
  S   S130      1.0  0.20840  0.83693  0.25425  1.0000
  C   C607      1.0  0.21575  0.93115  0.18077  1.0000
  H   H1056     1.0  0.07529  0.69482  0.09590  1.0000
  H   H1057     1.0  0.14476  0.55175  0.02299  1.0000
  H   H1058     1.0  0.17015  0.53222  0.07954  1.0000
  H   H1059     1.0  0.14558  0.87520  0.04127  1.0000
  N   N30       1.0  0.21366  0.53557  0.26511  1.0000
  H   H1060     1.0  0.15352  0.87490  0.99345  1.0000
  C   C608      1.0  0.14569  0.85454  0.02110  1.0000
  H   H1061     1.0  0.08203  0.71593  0.06073  1.0000
  H   H1062     1.0  0.14838  0.61313  0.11155  1.0000
  H   H1063     1.0  0.19001  0.54660  0.07323  1.0000
  H   H1064     1.0  0.11962  0.58278  0.01426  1.0000
  H   H1065     1.0  0.03448  0.64055  0.04999  1.0000
  C   C609      1.0  0.20863  0.69481  0.10105  1.0000
  H   H1066     1.0  0.17552  0.87077  0.98999  1.0000
  H   H1067     1.0  0.15480  0.57394  0.12450  1.0000
  H   H1068     1.0  0.15631  0.83832  0.24087  1.0000
  C   C610      1.0  0.18488  0.90294  0.30598  1.0000
  C   C611      1.0  0.13017  0.51862  0.12316  1.0000
  H   H1069     1.0  0.12864  0.50241  0.12579  1.0000
  C   C612      1.0  0.05846  0.54932  0.22125  1.0000
  H   H1070     1.0  0.10878  0.54480  0.06373  1.0000
  C   C613      1.0  0.22364  0.82970  0.30964  1.0000
  C   C614      1.0  0.15145  0.57980  0.11016  1.0000
  H   H1071     1.0  0.17251  0.55151  0.11852  1.0000
  C   C615      1.0  0.14213  0.51779  0.11566  1.0000
  H   H1072     1.0  0.16528  0.56619  0.08841  1.0000
  H   H1073     1.0  0.14273  0.58084  0.11468  1.0000
  H   H1074     1.0  0.20471  0.96085  0.30578  1.0000
  H   H1075     1.0  0.11948  0.74951  0.00614  1.0000
  H   H1076     1.0  0.09000  0.68931  0.06548  1.0000
  H   H1077     1.0  0.16192  0.50343  0.05908  1.0000
  H   H1078     1.0  0.14851  0.53416  0.07051  1.0000
  H   H1079     1.0  0.16967  0.97574  0.18000  1.0000
  C   C616      1.0  0.21518  0.63187  0.14753  1.0000
  H   H1080     1.0  0.19681  0.64169  0.17613  1.0000
  H   H1081     1.0  0.15309  0.57191  0.08059  1.0000
  H   H1082     1.0  0.18592  0.65462  0.20845  1.0000
  H   H1083     1.0  0.21581  0.94963  0.21651  1.0000
  C   C617      1.0  0.19183  0.54383  0.23327  1.0000
  H   H1084     1.0  0.04428  0.53752  0.24068  1.0000
  H   H1085     1.0  0.19423  0.67042  0.17286  1.0000
  C   C618      1.0  0.22225  0.91264  0.19009  1.0000
  H   H1086     1.0  0.12575  0.52980  0.11132  1.0000
  H   H1087     1.0  0.07238  0.53924  0.24276  1.0000
  H   H1088     1.0  0.07303  0.56907  0.18879  1.0000
  C   C619      1.0  0.17256  0.53466  0.11902  1.0000
  C   C620      1.0  0.23392  0.63833  0.16352  1.0000
  H   H1089     1.0  0.12509  0.52386  0.04225  1.0000
  H   H1090     1.0  0.13997  0.55077  0.09749  1.0000
  N   N31       1.0  0.12766  0.55625  0.03500  1.0000
  H   H1091     1.0  0.12381  0.72109  0.00755  1.0000
  C   C621      1.0  0.15696  0.53528  0.06610  1.0000
  N   N32       1.0  0.15604  0.54174  0.10290  1.0000
  H   H1092     1.0  0.16289  0.51195  0.09229  1.0000
  H   H1093     1.0  0.11975  0.55499  0.99828  1.0000
  C   C622      1.0  0.23513  0.92950  0.26037  1.0000
  H   H1094     1.0  0.99671  0.56431  0.15882  1.0000
  H   H1095     1.0  0.14060  0.54751  0.12395  1.0000
  C   C623      1.0  0.12602  0.53546  0.05029  1.0000
  H   H1096     1.0  0.22600  0.63308  0.11575  1.0000
  H   H1097     1.0  0.16686  0.79901  0.27048  1.0000
  H   H1098     1.0  0.15609  0.53823  0.13588  1.0000
  C   C624      1.0  0.17756  0.52030  0.13729  1.0000
  C   C625      1.0  0.16107  0.53190  0.12181  1.0000
  H   H1099     1.0  0.18937  0.91414  0.29375  1.0000
  H   H1100     1.0  0.14507  0.50997  0.10200  1.0000
  C   C626      1.0  0.16284  0.52004  0.05125  1.0000
  H   H1101     1.0  0.10346  0.58356  0.99945  1.0000
  H   H1102     1.0  0.03728  0.54173  0.13329  1.0000
  H   H1103     1.0  0.07949  0.73998  0.02781  1.0000
  H   H1104     1.0  0.19366  0.87570  0.29171  1.0000
  H   H1105     1.0  0.22008  0.51894  0.22600  1.0000
  H   H1106     1.0  0.19314  0.97441  0.17817  1.0000
  H   H1107     1.0  0.09747  0.71379  0.03421  1.0000
  C   C627      1.0  0.08220  0.69880  0.06229  1.0000
  H   H1108     1.0  0.18687  0.93988  0.31327  1.0000
  H   H1109     1.0  0.08777  0.77157  0.01554  1.0000
  S   S131      1.0  0.23367  0.59857  0.21252  1.0000
  H   H1110     1.0  0.13301  0.73607  0.00818  1.0000
  H   H1111     1.0  0.08132  0.55660  0.20749  1.0000
  C   C628      1.0  0.22002  0.85043  0.29826  1.0000
  H   H1112     1.0  0.05262  0.54066  0.25594  1.0000
  H   H1113     1.0  0.22825  0.59491  0.11530  1.0000
  H   H1114     1.0  0.05464  0.55394  0.20748  1.0000
  C   C629      1.0  0.23594  0.93253  0.18442  1.0000
  N   N33       1.0  0.17275  0.67769  0.01174  1.0000
  H   H1115     1.0  0.18160  0.67386  0.07654  1.0000
  H   H1116     1.0  0.16137  0.51440  0.12649  1.0000
  H   H1117     1.0  0.21460  0.64010  0.18484  1.0000
  H   H1118     1.0  0.15751  0.55178  0.05707  1.0000
  C   C630      1.0  0.04942  0.54764  0.24142  1.0000
  H   H1119     1.0  0.21944  0.98059  0.26144  1.0000
  C   C631      1.0  0.21087  0.65410  0.17381  1.0000
  C   C632      1.0  0.19110  0.65266  0.00133  1.0000
  C   C633      1.0  0.01315  0.54963  0.28211  1.0000
  C   C634      1.0  0.12944  0.57039  0.04728  1.0000
  C   C635      1.0  0.07362  0.69236  0.08162  1.0000
  H   H1120     1.0  0.13982  0.85227  0.01353  1.0000
  H   H1121     1.0  0.11941  0.66195  0.01483  1.0000
  H   H1122     1.0  0.19833  0.63709  0.21305  1.0000
  C   C636      1.0  0.11632  0.53715  0.06922  1.0000
  C   C637      1.0  0.22790  0.55538  0.18710  1.0000
  C   C638      1.0  0.21386  0.83533  0.27581  1.0000
  H   H1123     1.0  0.99959  0.52140  0.29395  1.0000
  H   H1124     1.0  0.10203  0.67848  0.00494  1.0000
  H   H1125     1.0  0.19657  0.66578  0.20937  1.0000
  C   C639      1.0  0.00695  0.51493  0.30018  1.0000
  H   H1126     1.0  0.10706  0.68279  0.03985  1.0000
  N   N34       1.0  0.21610  0.65268  0.15116  1.0000
  H   H1127     1.0  0.11920  0.64747  0.04174  1.0000
  H   H1128     1.0  0.16147  0.81666  0.02084  1.0000
  C   C640      1.0  0.16553  0.80751  0.25450  1.0000
  C   C641      1.0  0.06223  0.51161  0.22028  1.0000
  S   S132      1.0  0.17129  0.61138  0.99536  1.0000
  H   H1129     1.0  0.14994  0.82502  0.99743  1.0000
  H   H1130     1.0  0.23626  0.87995  0.23286  1.0000
  H   H1131     1.0  0.17640  0.91121  0.30971  1.0000
  S   S133      1.0  0.03562  0.50139  0.26634  1.0000
  C   C642      1.0  0.19658  0.62898  0.00332  1.0000
  H   H1132     1.0  0.23180  0.64393  0.17853  1.0000
  H   H1133     1.0  0.23211  0.62223  0.16735  1.0000
  H   H1134     1.0  0.10056  0.75506  0.00692  1.0000
  C   C643      1.0  0.18079  0.98460  0.20478  1.0000
  H   H1135     1.0  0.12067  0.63278  0.99224  1.0000
  H   H1136     1.0  0.22513  0.79605  0.31258  1.0000
  C   C644      1.0  0.23694  0.91086  0.24983  1.0000
  H   H1137     1.0  0.13289  0.52842  0.00643  1.0000
  H   H1138     1.0  0.10071  0.55835  0.00054  1.0000
  H   H1139     1.0  0.98815  0.51835  0.22230  1.0000
  C   C645      1.0  0.21104  0.51648  0.28217  1.0000
  C   C646      1.0  0.19803  0.98308  0.21334  1.0000
  H   H1140     1.0  0.22863  0.97004  0.31764  1.0000
  S   S134      1.0  0.16635  0.97649  0.31708  1.0000
  H   H1141     1.0  0.08513  0.67258  0.99671  1.0000
  H   H1142     1.0  0.15068  0.95527  0.31735  1.0000
  H   H1143     1.0  0.19330  0.62124  0.99465  1.0000
  H   H1144     1.0  0.20947  0.50442  0.27558  1.0000
  H   H1145     1.0  0.17228  0.99297  0.20653  1.0000
  H   H1146     1.0  0.22199  0.49735  0.24876  1.0000
  C   C647      1.0  0.17307  0.69210  0.98993  1.0000
  H   H1147     1.0  0.20239  0.99242  0.21807  1.0000
  C   C648      1.0  0.19741  0.50153  0.31347  1.0000
  H   H1148     1.0  0.16550  0.70434  0.98936  1.0000
  C   C649      1.0  0.23630  0.50386  0.22703  1.0000
  C   C650      1.0  0.14867  0.53152  0.98953  1.0000
  H   H1149     1.0  0.19819  0.88716  0.32121  1.0000
  H   H1150     1.0  0.18602  0.77496  0.00803  1.0000
  C   C651      1.0  0.17522  0.80503  0.99851  1.0000
  H   H1151     1.0  0.08948  0.70847  0.98854  1.0000
  H   H1152     1.0  0.18004  0.71859  0.98897  1.0000
  N   N35       1.0  0.16225  0.84218  0.99284  1.0000
  H   H1153     1.0  0.98742  0.59351  0.25257  1.0000
  H   H1154     1.0  0.18389  0.84439  0.98994  1.0000
  H   H1155     1.0  0.17072  0.79647  0.99326  1.0000
  C   C652      1.0  0.17392  0.93280  0.36421  1.0000
  H   H1156     1.0  0.15775  0.94738  0.35960  1.0000
  H   H1157     1.0  0.19502  0.91423  0.36306  1.0000
  S   S135      1.0  0.21573  0.91076  0.37056  1.0000
  H   H1158     1.0  0.21322  0.95762  0.40489  1.0000
  H   H1159     1.0  0.17765  0.92470  0.37792  1.0000
  H   H1160     1.0  0.03542  0.49544  0.59018  1.0000
  H   H1161     1.0  0.19539  0.86112  0.40083  1.0000
  H   H1162     1.0  0.20331  0.89584  0.34774  1.0000
  S   S136      1.0  0.22975  0.82439  0.33118  1.0000
  H   H1163     1.0  0.04522  0.51273  0.64377  1.0000
  H   H1164     1.0  0.19612  0.98372  0.35136  1.0000
  H   H1165     1.0  0.17305  0.90412  0.35581  1.0000
  C   C653      1.0  0.19483  0.90183  0.35508  1.0000
  H   H1166     1.0  0.22943  0.51709  0.40385  1.0000
  H   H1167     1.0  0.19164  0.94272  0.33399  1.0000
  H   H1168     1.0  0.18575  0.88170  0.33613  1.0000
  C   C654      1.0  0.22314  0.94361  0.34085  1.0000
  H   H1169     1.0  0.16010  0.94911  0.38402  1.0000
  C   C655      1.0  0.21532  0.97250  0.39406  1.0000
  N   N36       1.0  0.18834  0.91154  0.33838  1.0000
  H   H1170     1.0  0.18284  0.88699  0.38050  1.0000
  H   H1171     1.0  0.21808  0.96963  0.37778  1.0000
  C   C656      1.0  0.19126  0.88264  0.37220  1.0000
  C   C657      1.0  0.20361  0.97260  0.34823  1.0000
  C   C658      1.0  0.99723  0.50685  0.33674  1.0000
  H   H1172     1.0  0.19220  0.86890  0.36507  1.0000
  H   H1173     1.0  0.19823  0.94655  0.37213  1.0000
  H   H1174     1.0  0.00048  0.51798  0.34159  1.0000
  H   H1175     1.0  0.23557  0.50493  0.38122  1.0000
  S   S137      1.0  0.23329  0.88301  0.32341  1.0000
  H   H1176     1.0  0.23067  0.93236  0.33791  1.0000
  C   C659      1.0  0.20483  0.95159  0.36008  1.0000
  C   C660      1.0  0.21455  0.93706  0.35618  1.0000
  C   C661      1.0  0.19804  0.87490  0.38883  1.0000
  H   H1177     1.0  0.15875  0.92394  0.38100  1.0000
  C   C662      1.0  0.16188  0.93859  0.37270  1.0000
  H   H1178     1.0  0.19725  0.88790  0.39691  1.0000
  H   H1179     1.0  0.20656  0.86961  0.38141  1.0000
  C   C663      1.0  0.17666  0.91832  0.34808  1.0000
  C   C664      1.0  0.18963  0.89494  0.32598  1.0000
  H   H1180     1.0  0.17661  0.94803  0.35676  1.0000
  C   C665      1.0  0.22199  0.96486  0.32941  1.0000
  Fe  Fe64      1.0  0.23009  0.88873  0.35609  1.0000
  S   S138      1.0  0.23141  0.85432  0.37254  1.0000
  H   H1181     1.0  0.03691  0.50385  0.62223  1.0000
  H   H1182     1.0  0.19084  0.50562  0.32692  1.0000
  C   C666      1.0  0.21215  0.97920  0.33280  1.0000
  C   C667      1.0  0.20558  0.99107  0.39552  1.0000
  H   H1183     1.0  0.17218  0.92748  0.33559  1.0000
  H   H1184     1.0  0.23707  0.51015  0.34165  1.0000
  H   H1185     1.0  0.20949  0.92167  0.32235  1.0000
  H   H1186     1.0  0.02579  0.52846  0.64802  1.0000
  H   H1187     1.0  0.22195  0.97593  0.39862  1.0000
  H   H1188     1.0  0.19908  0.98608  0.39207  1.0000
  C   C668      1.0  0.23632  0.50539  0.39705  1.0000
  H   H1189     1.0  0.01724  0.49591  0.33597  1.0000
  H   H1190     1.0  0.23224  0.51688  0.65457  1.0000
  H   H1191     1.0  0.99006  0.51670  0.33063  1.0000
  C   C669      1.0  0.19218  0.93114  0.32442  1.0000
  Fe  Fe65      1.0  0.23588  0.84846  0.33971  1.0000
  H   H1192     1.0  0.20332  0.99335  0.41194  1.0000
  H   H1193     1.0  0.02773  0.55208  0.74601  1.0000
  H   H1194     1.0  0.18384  0.93121  0.78243  1.0000
  H   H1195     1.0  0.18014  0.85406  0.86877  1.0000
  S   S139      1.0  0.20317  0.57372  0.85174  1.0000
  H   H1196     1.0  0.02125  0.61025  0.78230  1.0000
  H   H1197     1.0  0.10836  0.61944  0.98064  1.0000
  H   H1198     1.0  0.20451  0.84786  0.83647  1.0000
  Fe  Fe66      1.0  0.17613  0.56777  0.96383  1.0000
  C   C670      1.0  0.13472  0.61309  0.97707  1.0000
  S   S140      1.0  0.17979  0.54179  0.94594  1.0000
  Fe  Fe67      1.0  0.18245  0.60769  0.96452  1.0000
  H   H1199     1.0  0.21406  0.58469  0.87916  1.0000
  S   S141      1.0  0.19291  0.63058  0.94599  1.0000
  S   S142      1.0  0.09256  0.64554  0.96425  1.0000
  C   C671      1.0  0.20331  0.98345  0.72207  1.0000
  H   H1200     1.0  0.22351  0.89228  0.84900  1.0000
  S   S143      1.0  0.18915  0.57281  0.97562  1.0000
  S   S144      1.0  0.17049  0.60250  0.95000  1.0000
  C   C672      1.0  0.02818  0.59874  0.77532  1.0000
  C   C673      1.0  0.22028  0.55660  0.91433  1.0000
  H   H1201     1.0  0.07837  0.50603  0.89618  1.0000
  S   S145      1.0  0.14011  0.76255  0.92255  1.0000
  H   H1202     1.0  0.22073  0.58555  0.97625  1.0000
  Fe  Fe68      1.0  0.14417  0.78541  0.93679  1.0000
  S   S146      1.0  0.14394  0.81998  0.91933  1.0000
  Fe  Fe69      1.0  0.13147  0.74977  0.95530  1.0000
  S   S147      1.0  0.11596  0.73795  0.96580  1.0000
  C   C674      1.0  0.99832  0.55048  0.77146  1.0000
  H   H1203     1.0  0.07408  0.51887  0.85113  1.0000
  Fe  Fe70      1.0  0.18675  0.89204  0.89141  1.0000
  S   S148      1.0  0.18435  0.90509  0.85834  1.0000
  S   S149      1.0  0.18211  0.86213  0.91409  1.0000
  Fe  Fe71      1.0  0.20168  0.92222  0.88581  1.0000
  S   S150      1.0  0.20071  0.93722  0.85210  1.0000
  S   S151      1.0  0.21145  0.92845  0.90506  1.0000
  Fe  Fe72      1.0  0.18330  0.93734  0.86404  1.0000
  S   S152      1.0  0.17053  0.96532  0.85382  1.0000
  Fe  Fe73      1.0  0.20187  0.90379  0.84925  1.0000
  S   S153      1.0  0.21123  0.89089  0.82062  1.0000
  S   S154      1.0  0.18408  0.92457  0.89827  1.0000
  S   S155      1.0  0.20449  0.88859  0.88185  1.0000
  Fe  Fe74      1.0  0.09641  0.61716  0.94972  1.0000
  S   S156      1.0  0.09267  0.63713  0.91885  1.0000
  S   S157      1.0  0.11175  0.59207  0.95179  1.0000
  Fe  Fe75      1.0  0.07589  0.63167  0.93259  1.0000
  S   S158      1.0  0.06766  0.62534  0.90959  1.0000
  Fe  Fe76      1.0  0.08777  0.66513  0.93466  1.0000
  S   S159      1.0  0.09375  0.69620  0.91977  1.0000
  S   S160      1.0  0.08016  0.60943  0.96247  1.0000
  H   H1204     1.0  0.20580  0.58616  0.93514  1.0000
  Fe  Fe77      1.0  0.02641  0.56254  0.89130  1.0000
  S   S161      1.0  0.02673  0.52721  0.89899  1.0000
  S   S162      1.0  0.03293  0.57317  0.91408  1.0000
  Fe  Fe78      1.0  0.01587  0.56989  0.85377  1.0000
  S   S163      1.0  0.01608  0.53513  0.85835  1.0000
  S   S164      1.0  0.00908  0.59423  0.82720  1.0000
  Fe  Fe79      1.0  0.01031  0.53595  0.89257  1.0000
  S   S165      1.0  0.99657  0.52116  0.91348  1.0000
  Fe  Fe80      1.0  0.03243  0.52968  0.86416  1.0000
  H   H1205     1.0  0.06001  0.49504  0.90628  1.0000
  S   S166      1.0  0.00925  0.57125  0.88797  1.0000
  S   S167      1.0  0.03293  0.56440  0.85655  1.0000
  H   H1206     1.0  0.03351  0.59184  0.78670  1.0000
  H   H1207     1.0  0.00346  0.67318  0.87557  1.0000
  H   H1208     1.0  0.18566  0.94508  0.80032  1.0000
  H   H1209     1.0  0.03526  0.64027  0.88785  1.0000
  C   C675      1.0  0.18308  0.98171  0.81594  1.0000
  C   C676      1.0  0.22560  0.54447  0.89623  1.0000
  H   H1210     1.0  0.02049  0.61111  0.85162  1.0000
  C   C677      1.0  0.14836  0.85094  0.96971  1.0000
  C   C678      1.0  0.22585  0.52050  0.90416  1.0000
  H   H1211     1.0  0.04518  0.65962  0.89912  1.0000
  S   S168      1.0  0.16685  0.72177  0.90954  1.0000
  H   H1212     1.0  0.19805  0.85588  0.86053  1.0000
  H   H1213     1.0  0.13360  0.83939  0.98155  1.0000
  H   H1214     1.0  0.23041  0.91685  0.74093  1.0000
  H   H1215     1.0  0.19795  0.66266  0.90910  1.0000
  C   C679      1.0  0.20137  0.84143  0.85351  1.0000
  H   H1216     1.0  0.21154  0.77258  0.82132  1.0000
  H   H1217     1.0  0.22549  0.96451  0.80220  1.0000
  H   H1218     1.0  0.99069  0.62213  0.71860  1.0000
  H   H1219     1.0  0.22326  0.84129  0.83808  1.0000
  H   H1220     1.0  0.19621  0.61612  0.87082  1.0000
  C   C680      1.0  0.03595  0.52276  0.79681  1.0000
  C   C681      1.0  0.03797  0.52318  0.81591  1.0000
  C   C682      1.0  0.99320  0.49998  0.90739  1.0000
  H   H1221     1.0  0.03290  0.61711  0.85173  1.0000
  H   H1222     1.0  0.03039  0.53582  0.78955  1.0000
  H   H1223     1.0  0.03406  0.53678  0.82305  1.0000
  C   C683      1.0  0.17034  0.85137  0.97458  1.0000
  H   H1224     1.0  0.14639  0.54552  0.97691  1.0000
  C   C684      1.0  0.13463  0.67981  0.97001  1.0000
  H   H1225     1.0  0.99717  0.61642  0.79472  1.0000
  C   C685      1.0  0.22859  0.89259  0.83348  1.0000
  H   H1226     1.0  0.08337  0.52797  0.91232  1.0000
  H   H1227     1.0  0.19197  0.55138  0.80241  1.0000
  H   H1228     1.0  0.99930  0.54487  0.75704  1.0000
  H   H1229     1.0  0.21667  0.89979  0.72232  1.0000
  C   C686      1.0  0.23317  0.59051  0.87408  1.0000
  H   H1230     1.0  0.21884  0.51604  0.66930  1.0000
  C   C687      1.0  0.06020  0.56993  0.83661  1.0000
  H   H1231     1.0  0.03264  0.60737  0.76045  1.0000
  H   H1232     1.0  0.05718  0.53760  0.86882  1.0000
  C   C688      1.0  0.05810  0.61042  0.91128  1.0000
  C   C689      1.0  0.05549  0.60998  0.89257  1.0000
  C   C690      1.0  0.04790  0.59859  0.89301  1.0000
  C   C691      1.0  0.04279  0.58743  0.91224  1.0000
  C   C692      1.0  0.04541  0.58785  0.93092  1.0000
  C   C693      1.0  0.05303  0.59917  0.93047  1.0000
  H   H1233     1.0  0.05934  0.61864  0.87762  1.0000
  H   H1234     1.0  0.04596  0.59862  0.87847  1.0000
  H   H1235     1.0  0.04151  0.57937  0.94592  1.0000
  H   H1236     1.0  0.05493  0.59933  0.94500  1.0000
  C   C694      1.0  0.21005  0.99400  0.82224  1.0000
  H   H1237     1.0  0.19858  0.49702  0.85685  1.0000
  H   H1238     1.0  0.99782  0.53451  0.80468  1.0000
  H   H1239     1.0  0.17575  0.96635  0.91960  1.0000
  H   H1240     1.0  0.23541  0.92212  0.90168  1.0000
  C   C695      1.0  0.11161  0.72496  0.95102  1.0000
  C   C696      1.0  0.10997  0.73457  0.93061  1.0000
  C   C697      1.0  0.10475  0.72531  0.92099  1.0000
  C   C698      1.0  0.10115  0.70634  0.93160  1.0000
  C   C699      1.0  0.10329  0.69627  0.95157  1.0000
  C   C700      1.0  0.10840  0.70565  0.96118  1.0000
  H   H1241     1.0  0.11227  0.74964  0.92262  1.0000
  H   H1242     1.0  0.10320  0.73324  0.90549  1.0000
  C   C701      1.0  0.15469  0.83156  0.91740  1.0000
  C   C702      1.0  0.16265  0.82079  0.92865  1.0000
  C   C703      1.0  0.17102  0.83038  0.92724  1.0000
  C   C704      1.0  0.17149  0.85090  0.91469  1.0000
  C   C705      1.0  0.16354  0.86179  0.90340  1.0000
  C   C706      1.0  0.15516  0.85211  0.90477  1.0000
  H   H1243     1.0  0.16232  0.80516  0.93867  1.0000
  H   H1244     1.0  0.17718  0.82177  0.93589  1.0000
  H   H1245     1.0  0.16379  0.87770  0.89379  1.0000
  H   H1246     1.0  0.14897  0.86063  0.89613  1.0000
  H   H1247     1.0  0.05890  0.55601  0.83232  1.0000
  H   H1248     1.0  0.02973  0.54481  0.69937  1.0000
  S   S169      1.0  0.99193  0.55691  0.70426  1.0000
  H   H1249     1.0  0.06946  0.68283  0.98070  1.0000
  C   C707      1.0  0.21760  0.96680  0.88311  1.0000
  C   C708      1.0  0.18409  0.68854  0.90927  1.0000
  H   H1250     1.0  0.18612  0.70129  0.94843  1.0000
  H   H1251     1.0  0.21631  0.99063  0.83135  1.0000
  H   H1252     1.0  0.21704  0.96322  0.86883  1.0000
  C   C709      1.0  0.03998  0.50955  0.65968  1.0000
  C   C710      1.0  0.17298  0.97795  0.82687  1.0000
  C   C711      1.0  0.21100  0.58992  0.89436  1.0000
  H   H1253     1.0  0.99697  0.59522  0.74973  1.0000
  H   H1254     1.0  0.13091  0.66577  0.97734  1.0000
  H   H1255     1.0  0.18832  0.95860  0.92758  1.0000
  H   H1256     1.0  0.19076  0.57491  0.81196  1.0000
  C   C712      1.0  0.13867  0.59775  0.96460  1.0000
  C   C713      1.0  0.13160  0.59096  0.95710  1.0000
  C   C714      1.0  0.12061  0.59943  0.96217  1.0000
  H   H1257     1.0  0.20513  0.93010  0.79223  1.0000
  C   C715      1.0  0.22245  0.91554  0.73997  1.0000
  H   H1258     1.0  0.14716  0.59137  0.96048  1.0000
  H   H1259     1.0  0.13465  0.57949  0.94706  1.0000
  H   H1260     1.0  0.99098  0.56333  0.77261  1.0000
  N   N37       1.0  0.19272  0.82962  0.85611  1.0000
  C   C716      1.0  0.18539  0.65567  0.93613  1.0000
  C   C717      1.0  0.18994  0.66842  0.91743  1.0000
  C   C718      1.0  0.21842  0.96241  0.77782  1.0000
  C   C719      1.0  0.18238  0.84603  0.85523  1.0000
  C   C720      1.0  0.16929  0.68372  0.93905  1.0000
  C   C721      1.0  0.17499  0.66314  0.94678  1.0000
  H   H1261     1.0  0.21938  0.97735  0.72673  1.0000
  C   C722      1.0  0.18454  0.99377  0.79505  1.0000
  H   H1262     1.0  0.16136  0.68968  0.94749  1.0000
  H   H1263     1.0  0.17142  0.65326  0.96117  1.0000
  C   C723      1.0  0.19635  0.56411  0.87747  1.0000
  C   C724      1.0  0.20021  0.54392  0.88914  1.0000
  C   C725      1.0  0.19495  0.53691  0.91000  1.0000
  C   C726      1.0  0.18598  0.55035  0.91951  1.0000
  C   C727      1.0  0.18201  0.57048  0.90783  1.0000
  C   C728      1.0  0.18712  0.57726  0.88677  1.0000
  H   H1264     1.0  0.20737  0.53383  0.88224  1.0000
  H   H1265     1.0  0.22830  0.89141  0.78366  1.0000
  H   H1266     1.0  0.17491  0.58066  0.91496  1.0000
  H   H1267     1.0  0.18399  0.59279  0.87776  1.0000
  H   H1268     1.0  0.03986  0.51841  0.93280  1.0000
  S   S170      1.0  0.13407  0.77492  0.96899  1.0000
  C   C729      1.0  0.22202  0.98967  0.90075  1.0000
  C   C730      1.0  0.22034  0.94789  0.76213  1.0000
  H   H1269     1.0  0.20365  0.58349  0.90171  1.0000
  C   C731      1.0  0.16113  0.53343  0.91114  1.0000
  H   H1270     1.0  0.21301  0.53968  0.75768  1.0000
  C   C732      1.0  0.20428  0.79814  0.83836  1.0000
  C   C733      1.0  0.04078  0.50516  0.78747  1.0000
  C   C734      1.0  0.20297  0.62332  0.86959  1.0000
  C   C735      1.0  0.07748  0.54313  0.91419  1.0000
  H   H1271     1.0  0.21877  0.90653  0.75537  1.0000
  H   H1272     1.0  0.99428  0.60135  0.70379  1.0000
  H   H1273     1.0  0.20419  0.97199  0.71218  1.0000
  H   H1274     1.0  0.17167  0.89258  0.82163  1.0000
  C   C736      1.0  0.18682  0.86737  0.96102  1.0000
  C   C737      1.0  0.18295  0.71434  0.95727  1.0000
  Fe  Fe81      1.0  0.15462  0.73983  0.93242  1.0000
  H   H1275     1.0  0.20009  0.64097  0.86719  1.0000
  C   C738      1.0  0.21627  0.59286  0.96345  1.0000
  H   H1276     1.0  0.21744  0.60948  0.95666  1.0000
  H   H1277     1.0  0.21240  0.55229  0.92211  1.0000
  H   H1278     1.0  0.19800  0.52129  0.91901  1.0000
  H   H1279     1.0  0.16691  0.53840  0.91687  1.0000
  H   H1280     1.0  0.23314  0.55613  0.67169  1.0000
  H   H1281     1.0  0.05349  0.53989  0.91662  1.0000
  C   C739      1.0  0.21404  0.58896  0.92851  1.0000
  H   H1282     1.0  0.22742  0.88951  0.91447  1.0000
  S   S171      1.0  0.14319  0.62236  0.98646  1.0000
  H   H1283     1.0  0.21152  0.55996  0.73403  1.0000
  H   H1284     1.0  0.00348  0.57946  0.95923  1.0000
  C   C740      1.0  0.23131  0.89225  0.79662  1.0000
  S   S172      1.0  0.15930  0.76345  0.94420  1.0000
  H   H1285     1.0  0.03515  0.52715  0.72135  1.0000
  H   H1286     1.0  0.02271  0.65183  0.86162  1.0000
  H   H1287     1.0  0.06490  0.57901  0.82244  1.0000
  N   N38       1.0  0.21204  0.95271  0.74925  1.0000
  H   H1288     1.0  0.18250  0.88134  0.95091  1.0000
  C   C741      1.0  0.03000  0.52760  0.66038  1.0000
  H   H1289     1.0  0.17508  0.72332  0.95382  1.0000
  H   H1290     1.0  0.02600  0.51929  0.71140  1.0000
  N   N39       1.0  0.21890  0.58067  0.90845  1.0000
  H   H1291     1.0  0.18851  0.72543  0.95166  1.0000
  Fe  Fe82      1.0  0.14908  0.75139  0.97532  1.0000
  H   H1292     1.0  0.07773  0.57473  0.91746  1.0000
  C   C742      1.0  0.07418  0.50770  0.86673  1.0000
  H   H1293     1.0  0.10079  0.68154  0.95987  1.0000
  C   C743      1.0  0.07603  0.51873  0.88257  1.0000
  C   C744      1.0  0.21914  0.97588  0.92010  1.0000
  H   H1294     1.0  0.21792  0.85650  0.85846  1.0000
  C   C745      1.0  0.06038  0.54836  0.87425  1.0000
  H   H1295     1.0  0.07174  0.54029  0.92957  1.0000
  H   H1296     1.0  0.99758  0.55987  0.84434  1.0000
  H   H1297     1.0  0.98844  0.52921  0.79313  1.0000
  H   H1298     1.0  0.22834  0.60555  0.86638  1.0000
  H   H1299     1.0  0.12955  0.69350  0.97698  1.0000
  H   H1300     1.0  0.02103  0.59921  0.74146  1.0000
  H   H1301     1.0  0.14262  0.67621  0.97365  1.0000
  C   C746      1.0  0.22034  0.84016  0.85536  1.0000
  C   C747      1.0  0.99851  0.58854  0.82014  1.0000
  H   H1302     1.0  0.17470  0.99204  0.88411  1.0000
  H   H1303     1.0  0.00997  0.60171  0.76328  1.0000
  H   H1304     1.0  0.00956  0.59499  0.92192  1.0000
  C   C748      1.0  0.21585  0.95739  0.92096  1.0000
  C   C749      1.0  0.99726  0.61337  0.70789  1.0000
  H   H1305     1.0  0.13552  0.74467  0.88079  1.0000
  H   H1306     1.0  0.19605  0.54301  0.83833  1.0000
  H   H1307     1.0  0.19136  0.96835  0.88914  1.0000
  H   H1308     1.0  0.05311  0.55905  0.88150  1.0000
  C   C750      1.0  0.22620  0.95302  0.79255  1.0000
  C   C751      1.0  0.99412  0.60225  0.80324  1.0000
  H   H1309     1.0  0.20852  0.82784  0.88118  1.0000
  H   H1310     1.0  0.01308  0.61377  0.88987  1.0000
  H   H1311     1.0  0.19729  0.78091  0.82435  1.0000
  H   H1312     1.0  0.18392  0.85700  0.82069  1.0000
  H   H1313     1.0  0.21203  0.80285  0.83475  1.0000
  H   H1314     1.0  0.23545  0.94206  0.86420  1.0000
  C   C752      1.0  0.22951  0.58703  0.89854  1.0000
  H   H1315     1.0  0.01673  0.58374  0.95455  1.0000
  C   C753      1.0  0.05409  0.50999  0.90881  1.0000
  C   C754      1.0  0.21140  0.97545  0.73666  1.0000
  C   C755      1.0  0.18766  0.54721  0.83671  1.0000
  C   C756      1.0  0.00610  0.49616  0.72807  1.0000
  H   H1316     1.0  0.19112  0.85496  0.95170  1.0000
  H   H1317     1.0  0.03550  0.67811  0.88508  1.0000
  H   H1318     1.0  0.22222  0.54152  0.65571  1.0000
  H   H1319     1.0  0.03298  0.63548  0.91624  1.0000
  H   H1320     1.0  0.19762  0.96515  0.77036  1.0000
  C   C757      1.0  0.18895  0.93095  0.79299  1.0000
  H   H1321     1.0  0.08331  0.52524  0.87441  1.0000
  H   H1322     1.0  0.06656  0.70947  0.98503  1.0000
  H   H1323     1.0  0.19271  0.66037  0.98428  1.0000
  C   C758      1.0  0.17712  0.49526  0.86314  1.0000
  H   H1324     1.0  0.17897  0.53662  0.88204  1.0000
  H   H1325     1.0  0.22828  0.94894  0.75143  1.0000
  C   C759      1.0  0.18266  0.97228  0.92007  1.0000
  C   C760      1.0  0.22461  0.89189  0.81667  1.0000
  H   H1326     1.0  0.23402  0.54599  0.89006  1.0000
  H   H1327     1.0  0.06682  0.57718  0.85854  1.0000
  C   C761      1.0  0.00234  0.52097  0.68901  1.0000
  C   C762      1.0  0.18728  0.56079  0.81450  1.0000
  S   S173      1.0  0.04627  0.50545  0.85105  1.0000
  H   H1328     1.0  0.07725  0.55862  0.88184  1.0000
  C   C763      1.0  0.20733  0.61472  0.88968  1.0000
  H   H1329     1.0  0.21316  0.60664  0.92504  1.0000
  H   H1330     1.0  0.20590  0.79752  0.80544  1.0000
  H   H1331     1.0  0.18289  0.55740  0.84804  1.0000
  H   H1332     1.0  0.17573  0.83824  0.85694  1.0000
  H   H1333     1.0  0.02217  0.61416  0.92614  1.0000
  Fe  Fe83      1.0  0.21615  0.54985  0.83567  1.0000
  H   H1334     1.0  0.01044  0.64510  0.86175  1.0000
  H   H1335     1.0  0.02067  0.57208  0.78680  1.0000
  H   H1336     1.0  0.18965  0.51696  0.82946  1.0000
  N   N40       1.0  0.14434  0.67022  0.91262  1.0000
  C   C764      1.0  0.13396  0.66825  0.90926  1.0000
  C   C765      1.0  0.14728  0.69107  0.89932  1.0000
  C   C766      1.0  0.15295  0.65200  0.90533  1.0000
  C   C767      1.0  0.14394  0.66831  0.93557  1.0000
  C   C768      1.0  0.13551  0.68539  0.94619  1.0000
  C   C769      1.0  0.12982  0.64778  0.92200  1.0000
  C   C770      1.0  0.16448  0.65201  0.90604  1.0000
  C   C771      1.0  0.13803  0.71069  0.89503  1.0000
  C   C772      1.0  0.14229  0.73078  0.88306  1.0000
  H   H1337     1.0  0.18836  0.87328  0.83232  1.0000
  C   C773      1.0  0.11910  0.64845  0.91762  1.0000
  C   C774      1.0  0.17270  0.63544  0.89483  1.0000
  H   H1338     1.0  0.13468  0.66916  0.89220  1.0000
  H   H1339     1.0  0.12737  0.68187  0.91321  1.0000
  H   H1340     1.0  0.15260  0.69595  0.90641  1.0000
  H   H1341     1.0  0.15202  0.68894  0.88333  1.0000
  H   H1342     1.0  0.15291  0.65181  0.88889  1.0000
  H   H1343     1.0  0.15143  0.63629  0.91525  1.0000
  H   H1344     1.0  0.14290  0.65213  0.94494  1.0000
  H   H1345     1.0  0.15166  0.66960  0.93763  1.0000
  H   H1346     1.0  0.12759  0.68667  0.94344  1.0000
  H   H1347     1.0  0.13780  0.70114  0.93997  1.0000
  H   H1348     1.0  0.13539  0.63312  0.91770  1.0000
  H   H1349     1.0  0.12856  0.64644  0.93920  1.0000
  H   H1350     1.0  0.16537  0.64777  0.92264  1.0000
  H   H1351     1.0  0.16661  0.66777  0.89853  1.0000
  H   H1352     1.0  0.13343  0.70780  0.88505  1.0000
  H   H1353     1.0  0.13244  0.71413  0.90979  1.0000
  H   H1354     1.0  0.07439  0.55387  0.84848  1.0000
  H   H1355     1.0  0.14714  0.73435  0.89205  1.0000
  H   H1356     1.0  0.19551  0.95198  0.75306  1.0000
  H   H1357     1.0  0.06652  0.50248  0.87200  1.0000
  C   C775      1.0  0.20112  0.95109  0.76290  1.0000
  H   H1358     1.0  0.17609  0.53093  0.83462  1.0000
  H   H1359     1.0  0.11296  0.66188  0.92327  1.0000
  H   H1360     1.0  0.11972  0.65032  0.90049  1.0000
  H   H1361     1.0  0.11646  0.63337  0.92611  1.0000
  H   H1362     1.0  0.17289  0.63989  0.87764  1.0000
  H   H1363     1.0  0.18071  0.63467  0.89715  1.0000
  H   H1364     1.0  0.17081  0.61936  0.90145  1.0000
  H   H1365     1.0  0.20767  0.59342  0.97046  1.0000
  N   N41       1.0  0.18196  0.51340  0.86276  1.0000
  C   C776      1.0  0.21545  0.93816  0.73365  1.0000
  H   H1366     1.0  0.19728  0.82928  0.82282  1.0000
  H   H1367     1.0  0.21021  0.96412  0.78768  1.0000
  C   C777      1.0  0.19510  0.81826  0.83827  1.0000
  H   H1368     1.0  0.16890  0.54069  0.86803  1.0000
  H   H1369     1.0  0.22135  0.55051  0.88311  1.0000
  H   H1370     1.0  0.20333  0.91622  0.77433  1.0000
  H   H1371     1.0  0.13579  0.85302  0.95411  1.0000
  C   C778      1.0  0.20044  0.93085  0.78076  1.0000
  C   C779      1.0  0.99828  0.52974  0.70696  1.0000
  H   H1372     1.0  0.22699  0.83104  0.86328  1.0000
  C   C780      1.0  0.02796  0.53315  0.71450  1.0000
  C   C781      1.0  0.18229  0.86385  0.83476  1.0000
  S   S174      1.0  0.03759  0.50516  0.76395  1.0000
  H   H1373     1.0  0.23469  0.90285  0.87602  1.0000
  C   C782      1.0  0.19264  0.50531  0.86881  1.0000
  C   C783      1.0  0.19120  0.81462  0.87755  1.0000
  C   C784      1.0  0.22671  0.53684  0.73162  1.0000
  H   H1374     1.0  0.20838  0.93610  0.72938  1.0000
  C   C785      1.0  0.02449  0.58076  0.77122  1.0000
  C   C786      1.0  0.12377  0.62113  0.98244  1.0000
  C   C787      1.0  0.18225  0.80203  0.88270  1.0000
  H   H1375     1.0  0.01157  0.63220  0.93891  1.0000
  S   S175      1.0  0.21970  0.51466  0.84945  1.0000
  H   H1376     1.0  0.01310  0.59435  0.70679  1.0000
  H   H1377     1.0  0.22032  0.94562  0.71848  1.0000
  C   C788      1.0  0.18319  0.78359  0.90195  1.0000
  H   H1378     1.0  0.02500  0.63365  0.83302  1.0000
  H   H1379     1.0  0.18942  0.82376  0.89015  1.0000
  H   H1380     1.0  0.19863  0.80265  0.87979  1.0000
  H   H1381     1.0  0.21956  0.97940  0.93452  1.0000
  H   H1382     1.0  0.01440  0.54559  0.77596  1.0000
  Fe  Fe84      1.0  0.15984  0.60311  0.98188  1.0000
  C   C789      1.0  0.20474  0.78666  0.82129  1.0000
  C   C790      1.0  0.00676  0.60249  0.71829  1.0000
  N   N42       1.0  0.01233  0.57379  0.75065  1.0000
  H   H1383     1.0  0.20334  0.78640  0.85364  1.0000
  H   H1384     1.0  0.03225  0.54317  0.65759  1.0000
  H   H1385     1.0  0.17430  0.81277  0.88626  1.0000
  H   H1386     1.0  0.18254  0.79500  0.86943  1.0000
  C   C791      1.0  0.99665  0.53171  0.79011  1.0000
  H   H1387     1.0  0.14729  0.72864  0.86733  1.0000
  H   H1388     1.0  0.21397  0.81247  0.86122  1.0000
  H   H1389     1.0  0.03301  0.67343  0.91361  1.0000
  H   H1390     1.0  0.00958  0.61535  0.72127  1.0000
  H   H1391     1.0  0.23100  0.51328  0.91582  1.0000
  C   C792      1.0  0.99441  0.57044  0.83119  1.0000
  H   H1392     1.0  0.18141  0.81059  0.98489  1.0000
  H   H1393     1.0  0.18781  0.81380  0.83745  1.0000
  C   C793      1.0  0.01849  0.54360  0.72974  1.0000
  H   H1394     1.0  0.19073  0.77158  0.89872  1.0000
  H   H1395     1.0  0.18294  0.78957  0.91592  1.0000
  H   H1396     1.0  0.17644  0.77553  0.90564  1.0000
  H   H1397     1.0  0.23591  0.57494  0.90561  1.0000
  H   H1398     1.0  0.99983  0.57556  0.73480  1.0000
  H   H1399     1.0  0.00541  0.60177  0.96695  1.0000
  C   C794      1.0  0.02136  0.56087  0.73718  1.0000
  C   C795      1.0  0.01667  0.58989  0.75601  1.0000
  C   C796      1.0  0.21494  0.95284  0.90261  1.0000
  H   H1400     1.0  0.16896  0.88600  0.85006  1.0000
  H   H1401     1.0  0.00508  0.56793  0.78420  1.0000
  H   H1402     1.0  0.03171  0.56974  0.76447  1.0000
  S   S176      1.0  0.07067  0.66138  0.94631  1.0000
  C   C797      1.0  0.17383  0.69637  0.92019  1.0000
  H   H1403     1.0  0.02587  0.61615  0.88971  1.0000
  H   H1404     1.0  0.22891  0.57898  0.94038  1.0000
  H   H1405     1.0  0.14318  0.82617  0.96195  1.0000
  Fe  Fe85      1.0  0.23286  0.54489  0.79528  1.0000
  S   S177      1.0  0.14582  0.72547  0.96419  1.0000
  H   H1406     1.0  0.01185  0.55045  0.72142  1.0000
  H   H1407     1.0  0.01630  0.53070  0.74349  1.0000
  H   H1408     1.0  0.02530  0.57151  0.72315  1.0000
  C   C798      1.0  0.21099  0.82893  0.86384  1.0000
  H   H1409     1.0  0.21389  0.94663  0.93604  1.0000
  H   H1410     1.0  0.05013  0.49697  0.94277  1.0000
  H   H1411     1.0  0.16523  0.87070  0.83604  1.0000
  H   H1412     1.0  0.06422  0.51831  0.92297  1.0000
  C   C799      1.0  0.22132  0.98508  0.88213  1.0000
  C   C800      1.0  0.00355  0.58626  0.73908  1.0000
  H   H1413     1.0  0.99994  0.68316  0.89920  1.0000
  C   C801      1.0  0.21721  0.55036  0.74414  1.0000
  H   H1414     1.0  0.22129  0.93117  0.77145  1.0000
  C   C802      1.0  0.00796  0.55934  0.77105  1.0000
  S   S178      1.0  0.21536  0.54585  0.80426  1.0000
  H   H1415     1.0  0.18760  0.69825  0.89466  1.0000
  C   C803      1.0  0.11676  0.61401  0.97537  1.0000
  N   N43       1.0  0.01308  0.63846  0.90508  1.0000
  C   C804      1.0  0.01915  0.65537  0.90277  1.0000
  C   C805      1.0  0.00140  0.64844  0.90543  1.0000
  C   C806      1.0  0.01383  0.62314  0.92611  1.0000
  C   C807      1.0  0.01780  0.62577  0.88804  1.0000
  C   C808      1.0  0.01854  0.63861  0.86499  1.0000
  C   C809      1.0  0.03129  0.64742  0.90181  1.0000
  C   C810      1.0  0.00702  0.60584  0.93307  1.0000
  C   C811      1.0  0.99858  0.67139  0.89185  1.0000
  H   H1416     1.0  0.22439  0.93792  0.80334  1.0000
  C   C812      1.0  0.02463  0.62418  0.84947  1.0000
  C   C813      1.0  0.03650  0.66586  0.89977  1.0000
  H   H1417     1.0  0.19504  0.98582  0.73171  1.0000
  H   H1418     1.0  0.01562  0.66384  0.91605  1.0000
  H   H1419     1.0  0.01841  0.66795  0.88824  1.0000
  H   H1420     1.0  0.99767  0.63778  0.90090  1.0000
  H   H1421     1.0  0.99695  0.64986  0.92179  1.0000
  H   H1422     1.0  0.18876  0.91631  0.80580  1.0000
  H   H1423     1.0  0.17893  0.56660  0.81251  1.0000
  Fe  Fe86      1.0  0.23679  0.51670  0.83657  1.0000
  C   C814      1.0  0.16697  0.51755  0.89693  1.0000
  H   H1424     1.0  0.22749  0.56419  0.70524  1.0000
  C   C815      1.0  0.17137  0.87919  0.83575  1.0000
  C   C816      1.0  0.07306  0.69533  0.98221  1.0000
  N   N44       1.0  0.06696  0.53601  0.89046  1.0000
  H   H1425     1.0  0.22358  0.52619  0.72606  1.0000
  H   H1426     1.0  0.20087  0.61961  0.90298  1.0000
  H   H1427     1.0  0.23177  0.52666  0.74277  1.0000
  H   H1428     1.0  0.20123  0.99303  0.86293  1.0000
  H   H1429     1.0  0.22071  0.53461  0.69434  1.0000
  C   C817      1.0  0.22810  0.52662  0.68466  1.0000
  H   H1430     1.0  0.17989  0.98456  0.92982  1.0000
  H   H1431     1.0  0.17355  0.68271  0.97830  1.0000
  H   H1432     1.0  0.00238  0.51709  0.78622  1.0000
  H   H1433     1.0  0.21991  0.56126  0.75041  1.0000
  H   H1434     1.0  0.07874  0.69986  0.96711  1.0000
  C   C818      1.0  0.18199  0.70505  0.98093  1.0000
  H   H1435     1.0  0.20806  0.97876  0.82262  1.0000
  C   C819      1.0  0.07151  0.55181  0.89581  1.0000
  C   C820      1.0  0.06620  0.56254  0.85447  1.0000
  H   H1436     1.0  0.22951  0.60229  0.90237  1.0000
  H   H1437     1.0  0.99971  0.62499  0.69312  1.0000
  H   H1438     1.0  0.02447  0.52498  0.67600  1.0000
  H   H1439     1.0  0.05241  0.58069  0.84136  1.0000
  H   H1440     1.0  0.22539  0.54939  0.92606  1.0000
  C   C821      1.0  0.04496  0.50606  0.82573  1.0000
  H   H1441     1.0  0.00437  0.50034  0.87754  1.0000
  C   C822      1.0  0.22521  0.52528  0.66476  1.0000
  C   C823      1.0  0.05972  0.52672  0.91038  1.0000
  H   H1442     1.0  0.22915  0.51237  0.89069  1.0000
  Fe  Fe87      1.0  0.22014  0.51076  0.81736  1.0000
  H   H1443     1.0  0.19280  0.87274  0.96577  1.0000
  H   H1444     1.0  0.16631  0.86575  0.96432  1.0000
  H   H1445     1.0  0.20928  0.61959  0.85564  1.0000
  H   H1446     1.0  0.01798  0.50165  0.81328  1.0000
  H   H1447     1.0  0.15571  0.52579  0.92509  1.0000
  H   H1448     1.0  0.21390  0.62263  0.88801  1.0000
  C   C824      1.0  0.99987  0.51705  0.72661  1.0000
  C   C825      1.0  0.23471  0.88037  0.90557  1.0000
  H   H1449     1.0  0.99842  0.61311  0.93406  1.0000
  H   H1450     1.0  0.21773  0.51761  0.91160  1.0000
  H   H1451     1.0  0.23232  0.57743  0.86793  1.0000
  C   C826      1.0  0.22027  0.57955  0.94651  1.0000
  H   H1452     1.0  0.00104  0.53067  0.67381  1.0000
  C   C827      1.0  0.23675  0.98911  0.72896  1.0000
  H   H1453     1.0  0.15347  0.85593  0.95398  1.0000
  C   C828      1.0  0.00825  0.59193  0.95480  1.0000
  H   H1454     1.0  0.22951  0.88633  0.72838  1.0000
  H   H1455     1.0  0.20907  0.98698  0.74717  1.0000
  H   H1456     1.0  0.17432  0.83999  0.96399  1.0000
  H   H1457     1.0  0.23455  0.94977  0.78341  1.0000
  H   H1458     1.0  0.06508  0.56562  0.89994  1.0000
  H   H1459     1.0  0.18989  0.69520  0.98319  1.0000
  H   H1460     1.0  0.08958  0.56244  0.90064  1.0000
  H   H1461     1.0  0.08734  0.55306  0.92889  1.0000
  Fe  Fe88      1.0  0.07611  0.63931  0.97522  1.0000
  H   H1462     1.0  0.23700  0.55900  0.72076  1.0000
  H   H1463     1.0  0.21976  0.97859  0.76923  1.0000
  H   H1464     1.0  0.16012  0.82194  0.97481  1.0000
  H   H1465     1.0  0.16083  0.51255  0.89227  1.0000
  C   C829      1.0  0.08338  0.55935  0.91528  1.0000
  H   H1466     1.0  0.10998  0.69791  0.97657  1.0000
  H   H1467     1.0  0.04973  0.51599  0.89586  1.0000
  S   S179      1.0  0.23329  0.55241  0.82539  1.0000
  C   C830      1.0  0.18828  0.98158  0.89777  1.0000
  H   H1468     1.0  0.18968  0.97575  0.82370  1.0000
  H   H1469     1.0  0.23067  0.50995  0.69315  1.0000
  H   H1470     1.0  0.15665  0.98287  0.82495  1.0000
  C   C831      1.0  0.22434  0.90224  0.72358  1.0000
  H   H1471     1.0  0.21911  0.56308  0.95442  1.0000
  H   H1472     1.0  0.15633  0.54786  0.90249  1.0000
  C   C832      1.0  0.18363  0.52645  0.84036  1.0000
  H   H1473     1.0  0.16932  0.50191  0.85828  1.0000
  H   H1474     1.0  0.99648  0.52341  0.74060  1.0000
  C   C833      1.0  0.17442  0.52792  0.87692  1.0000
  H   H1475     1.0  0.14431  0.86547  0.97606  1.0000
  H   H1476     1.0  0.19594  0.51897  0.86846  1.0000
  C   C834      1.0  0.23685  0.53963  0.67908  1.0000
  H   H1477     1.0  0.17136  0.50328  0.90644  1.0000
  C   C835      1.0  0.04607  0.50404  0.92935  1.0000
  C   C836      1.0  0.00803  0.49966  0.69068  1.0000
  C   C837      1.0  0.17910  0.85822  0.98063  1.0000
  C   C838      1.0  0.15524  0.83394  0.98431  1.0000
  H   H1478     1.0  0.14991  0.51672  0.98378  1.0000
  C   C839      1.0  0.23323  0.55101  0.71314  1.0000
  H   H1479     1.0  0.22843  0.91032  0.70790  1.0000
  C   C840      1.0  0.16448  0.98561  0.81657  1.0000
  H   H1480     1.0  0.18847  0.49995  0.90329  1.0000
  H   H1481     1.0  0.23232  0.86871  0.89974  1.0000
  H   H1482     1.0  0.19522  0.98668  0.89907  1.0000
  H   H1483     1.0  0.04428  0.51026  0.67134  1.0000
  C   C841      1.0  0.13972  0.84179  0.96668  1.0000
  H   H1484     1.0  0.19258  0.98453  0.85284  1.0000
  H   H1485     1.0  0.26784  0.46757  0.29972  1.0000
  Fe  Fe89      1.0  0.33349  0.24409  0.15306  1.0000
  S   S180      1.0  0.34529  0.25290  0.12305  1.0000
  S   S181      1.0  0.33129  0.21012  0.16620  1.0000
  Fe  Fe90      1.0  0.32777  0.28860  0.16301  1.0000
  S   S182      1.0  0.33905  0.30111  0.13365  1.0000
  S   S183      1.0  0.31740  0.30635  0.18872  1.0000
  Fe  Fe91      1.0  0.33299  0.28325  0.11719  1.0000
  S   S184      1.0  0.33075  0.29922  0.08396  1.0000
  Fe  Fe92      1.0  0.35051  0.26986  0.14153  1.0000
  S   S185      1.0  0.36738  0.27217  0.13833  1.0000
  S   S186      1.0  0.32059  0.27315  0.14594  1.0000
  S   S187      1.0  0.33978  0.25858  0.17221  1.0000
  Fe  Fe93      1.0  0.30182  0.41349  0.26800  1.0000
  S   S188      1.0  0.31480  0.42506  0.24188  1.0000
  S   S189      1.0  0.28440  0.42449  0.26733  1.0000
  Fe  Fe94      1.0  0.31727  0.38398  0.29372  1.0000
  S   S190      1.0  0.33155  0.39280  0.26930  1.0000
  C   C842      1.0  0.38553  0.04845  0.07961  1.0000
  Fe  Fe95      1.0  0.32196  0.42661  0.26770  1.0000
  S   S191      1.0  0.32996  0.45424  0.26232  1.0000
  Fe  Fe96      1.0  0.32306  0.39034  0.24581  1.0000
  S   S192      1.0  0.33125  0.37714  0.21616  1.0000
  S   S193      1.0  0.30826  0.41782  0.29361  1.0000
  S   S194      1.0  0.30960  0.37868  0.27048  1.0000
  H   H1486     1.0  0.35501  0.07820  0.04698  1.0000
  H   H1487     1.0  0.39054  0.16511  0.02903  1.0000
  Fe  Fe97      1.0  0.32048  0.13024  0.11786  1.0000
  S   S195      1.0  0.31800  0.11148  0.15139  1.0000
  S   S196      1.0  0.32009  0.16555  0.10604  1.0000
  Fe  Fe98      1.0  0.32429  0.09107  0.09969  1.0000
  S   S197      1.0  0.32248  0.06881  0.13144  1.0000
  S   S198      1.0  0.32953  0.07893  0.06973  1.0000
  Fe  Fe99      1.0  0.30850  0.09466  0.14090  1.0000
  S   S199      1.0  0.29223  0.08923  0.15931  1.0000
  Fe  Fe100     1.0  0.33213  0.08730  0.13896  1.0000
  S   S200      1.0  0.34648  0.07145  0.15315  1.0000
  S   S201      1.0  0.30968  0.11581  0.10843  1.0000
  S   S202      1.0  0.33522  0.10724  0.10627  1.0000
  N   N45       1.0  0.42692  0.05706  0.02432  1.0000
  Fe  Fe101     1.0  0.41033  0.12821  0.11447  1.0000
  S   S203      1.0  0.40187  0.10496  0.13982  1.0000
  S   S204      1.0  0.41827  0.12383  0.08132  1.0000
  Fe  Fe102     1.0  0.40448  0.16076  0.14228  1.0000
  S   S205      1.0  0.39556  0.14029  0.16982  1.0000
  S   S206      1.0  0.40636  0.19281  0.14356  1.0000
  Fe  Fe103     1.0  0.40941  0.11343  0.16177  1.0000
  S   S207      1.0  0.41773  0.08718  0.18521  1.0000
  Fe  Fe104     1.0  0.38902  0.13405  0.14529  1.0000
  S   S208      1.0  0.37157  0.14187  0.14540  1.0000
  S   S209      1.0  0.41884  0.13450  0.13579  1.0000
  S   S210      1.0  0.39700  0.15662  0.11841  1.0000
  Fe  Fe105     1.0  0.46254  0.07908  0.24107  1.0000
  S   S211      1.0  0.47153  0.05568  0.22089  1.0000
  S   S212      1.0  0.44908  0.10584  0.23058  1.0000
  Fe  Fe106     1.0  0.47580  0.05719  0.27475  1.0000
  H   H1488     1.0  0.30646  0.04873  0.06127  1.0000
  C   C843      1.0  0.31676  0.14670  0.02029  1.0000
  H   H1489     1.0  0.42225  0.07958  0.04457  1.0000
  Fe  Fe107     1.0  0.47030  0.03057  0.25081  1.0000
  H   H1490     1.0  0.39490  0.20129  0.07497  1.0000
  S   S213      1.0  0.47740  0.08456  0.24662  1.0000
  S   S214      1.0  0.46017  0.05382  0.27072  1.0000
  H   H1491     1.0  0.36075  0.23458  0.08843  1.0000
  S   S215      1.0  0.25275  0.01920  0.19531  1.0000
  C   C844      1.0  0.38941  0.16062  0.01526  1.0000
  C   C845      1.0  0.42791  0.04883  0.06392  1.0000
  Fe  Fe108     1.0  0.23945  0.01192  0.18620  1.0000
  C   C846      1.0  0.24678  0.35239  0.30780  1.0000
  C   C847      1.0  0.32233  0.47720  0.29471  1.0000
  H   H1492     1.0  0.42663  0.07049  0.99126  1.0000
  H   H1493     1.0  0.28568  0.47106  0.28013  1.0000
  H   H1494     1.0  0.39152  0.04579  0.10733  1.0000
  C   C848      1.0  0.43995  0.10024  0.21925  1.0000
  C   C849      1.0  0.44023  0.07933  0.21838  1.0000
  C   C850      1.0  0.43316  0.07551  0.20845  1.0000
  C   C851      1.0  0.42592  0.09255  0.19889  1.0000
  C   C852      1.0  0.42549  0.11341  0.20016  1.0000
  C   C853      1.0  0.43246  0.11722  0.21033  1.0000
  H   H1495     1.0  0.44590  0.06609  0.22531  1.0000
  H   H1496     1.0  0.43344  0.05928  0.20783  1.0000
  H   H1497     1.0  0.41984  0.12664  0.19315  1.0000
  H   H1498     1.0  0.43212  0.13342  0.21111  1.0000
  H   H1499     1.0  0.33015  0.48699  0.20201  1.0000
  H   H1500     1.0  0.38822  0.04124  0.06553  1.0000
  C   C854      1.0  0.40109  0.10933  0.08040  1.0000
  C   C855      1.0  0.40986  0.11808  0.06863  1.0000
  C   C856      1.0  0.41216  0.12148  0.04656  1.0000
  H   H1501     1.0  0.31704  0.44259  0.16764  1.0000
  C   C857      1.0  0.44509  0.06595  0.15074  1.0000
  H   H1502     1.0  0.39918  0.10680  0.09741  1.0000
  Fe  Fe109     1.0  0.39246  0.10536  0.00052  1.0000
  H   H1503     1.0  0.36470  0.26465  0.09868  1.0000
  C   C858      1.0  0.35375  0.09066  0.15062  1.0000
  C   C859      1.0  0.34928  0.11237  0.14433  1.0000
  C   C860      1.0  0.35488  0.12787  0.14272  1.0000
  C   C861      1.0  0.36514  0.12174  0.14668  1.0000
  C   C862      1.0  0.36982  0.10000  0.15228  1.0000
  C   C863      1.0  0.36406  0.08444  0.15450  1.0000
  H   H1504     1.0  0.34139  0.11728  0.14112  1.0000
  H   H1505     1.0  0.35124  0.14468  0.13832  1.0000
  H   H1506     1.0  0.37780  0.09520  0.15512  1.0000
  H   H1507     1.0  0.36759  0.06762  0.15911  1.0000
  C   C864      1.0  0.28867  0.06609  0.15789  1.0000
  C   C865      1.0  0.27806  0.06398  0.16557  1.0000
  C   C866      1.0  0.27494  0.04609  0.16390  1.0000
  C   C867      1.0  0.28246  0.02995  0.15494  1.0000
  C   C868      1.0  0.29310  0.03191  0.14757  1.0000
  C   C869      1.0  0.29618  0.04999  0.14885  1.0000
  H   H1508     1.0  0.27218  0.07643  0.17242  1.0000
  H   H1509     1.0  0.26668  0.04512  0.16906  1.0000
  H   H1510     1.0  0.29899  0.01946  0.14074  1.0000
  H   H1511     1.0  0.30436  0.05133  0.14297  1.0000
  C   C870      1.0  0.30417  0.08972  0.03219  1.0000
  C   C871      1.0  0.30139  0.09619  0.05136  1.0000
  C   C872      1.0  0.30908  0.09250  0.06323  1.0000
  C   C873      1.0  0.31969  0.08322  0.05547  1.0000
  C   C874      1.0  0.32251  0.07697  0.03617  1.0000
  C   C875      1.0  0.31474  0.07991  0.02471  1.0000
  H   H1512     1.0  0.29319  0.10352  0.05728  1.0000
  H   H1513     1.0  0.30678  0.09663  0.07845  1.0000
  H   H1514     1.0  0.33068  0.06954  0.03015  1.0000
  H   H1515     1.0  0.35126  0.10458  0.19377  1.0000
  C   C876      1.0  0.32290  0.48017  0.20810  1.0000
  C   C877      1.0  0.33069  0.47067  0.27831  1.0000
  H   H1516     1.0  0.25408  0.35081  0.29504  1.0000
  H   H1517     1.0  0.32803  0.01755  0.09122  1.0000
  H   H1518     1.0  0.26563  0.44335  0.18082  1.0000
  H   H1519     1.0  0.34191  0.01013  0.11653  1.0000
  C   C878      1.0  0.28676  0.04490  0.06304  1.0000
  C   C879      1.0  0.37779  0.24936  0.14035  1.0000
  C   C880      1.0  0.37633  0.22878  0.14239  1.0000
  C   C881      1.0  0.38501  0.21105  0.14362  1.0000
  C   C882      1.0  0.39510  0.21404  0.14288  1.0000
  C   C883      1.0  0.39646  0.23464  0.14095  1.0000
  C   C884      1.0  0.38787  0.25220  0.13955  1.0000
  H   H1520     1.0  0.36857  0.22667  0.14273  1.0000
  H   H1521     1.0  0.38391  0.19515  0.14505  1.0000
  H   H1522     1.0  0.40424  0.23704  0.14026  1.0000
  H   H1523     1.0  0.38906  0.26809  0.13780  1.0000
  C   C885      1.0  0.32101  0.32665  0.19588  1.0000
  C   C886      1.0  0.32783  0.33922  0.18157  1.0000
  C   C887      1.0  0.33071  0.35494  0.18787  1.0000
  C   C888      1.0  0.32673  0.35839  0.20850  1.0000
  C   C889      1.0  0.31966  0.34623  0.22266  1.0000
  C   C890      1.0  0.31677  0.33054  0.21632  1.0000
  H   H1524     1.0  0.33090  0.33676  0.16563  1.0000
  H   H1525     1.0  0.33613  0.36437  0.17676  1.0000
  H   H1526     1.0  0.31660  0.34860  0.23863  1.0000
  H   H1527     1.0  0.31139  0.32104  0.22744  1.0000
  C   C891      1.0  0.32908  0.19753  0.14854  1.0000
  C   C892      1.0  0.32920  0.17557  0.15444  1.0000
  C   C893      1.0  0.32674  0.16547  0.14124  1.0000
  C   C894      1.0  0.32413  0.17730  0.12207  1.0000
  C   C895      1.0  0.32418  0.19917  0.11605  1.0000
  C   C896      1.0  0.32668  0.20930  0.12920  1.0000
  H   H1528     1.0  0.33105  0.16642  0.16938  1.0000
  H   H1529     1.0  0.32672  0.14862  0.14605  1.0000
  H   H1530     1.0  0.32206  0.20834  0.10137  1.0000
  H   H1531     1.0  0.32650  0.22627  0.12462  1.0000
  H   H1532     1.0  0.29159  0.12800  0.08124  1.0000
  C   C897      1.0  0.32866  0.26191  0.07713  1.0000
  C   C898      1.0  0.32967  0.28301  0.06826  1.0000
  C   C899      1.0  0.24246  0.46001  0.28271  1.0000
  C   C900      1.0  0.44398  0.13207  0.15106  1.0000
  H   H1533     1.0  0.37651  0.27504  0.08710  1.0000
  H   H1534     1.0  0.32864  0.25537  0.09367  1.0000
  H   H1535     1.0  0.35489  0.29328  0.07410  1.0000
  N   N46       1.0  0.45471  0.11662  0.15086  1.0000
  H   H1536     1.0  0.42050  0.08892  0.00807  1.0000
  Fe  Fe110     1.0  0.48617  0.05853  0.22885  1.0000
  H   H1537     1.0  0.36549  0.22176  0.01842  1.0000
  C   C901      1.0  0.35773  0.06062  0.04867  1.0000
  H   H1538     1.0  0.32463  0.43118  0.18794  1.0000
  C   C902      1.0  0.42835  0.06471  0.04225  1.0000
  H   H1539     1.0  0.34802  0.06355  0.08920  1.0000
  H   H1540     1.0  0.33713  0.33174  0.24816  1.0000
  H   H1541     1.0  0.38358  0.22572  0.01089  1.0000
  H   H1542     1.0  0.42082  0.04168  0.06885  1.0000
  C   C903      1.0  0.28178  0.44917  0.24976  1.0000
  H   H1543     1.0  0.40165  0.04119  0.08417  1.0000
  H   H1544     1.0  0.28035  0.14565  0.07129  1.0000
  C   C904      1.0  0.45981  0.11871  0.16736  1.0000
  C   C905      1.0  0.47066  0.10318  0.16961  1.0000
  H   H1545     1.0  0.24146  0.08938  0.18869  1.0000
  H   H1546     1.0  0.43757  0.12457  0.16245  1.0000
  H   H1547     1.0  0.44875  0.09022  0.17350  1.0000
  H   H1548     1.0  0.45430  0.11622  0.18313  1.0000
  H   H1549     1.0  0.46105  0.13514  0.16459  1.0000
  H   H1550     1.0  0.44255  0.15056  0.17448  1.0000
  H   H1551     1.0  0.34147  0.03116  0.12899  1.0000
  H   H1552     1.0  0.46964  0.08644  0.17597  1.0000
  H   H1553     1.0  0.24588  0.02990  0.27441  1.0000
  C   C906      1.0  0.27221  0.46393  0.25444  1.0000
  H   H1554     1.0  0.43772  0.09396  0.00924  1.0000
  H   H1555     1.0  0.41024  0.06369  0.00038  1.0000
  C   C907      1.0  0.43573  0.03818  0.01914  1.0000
  C   C908      1.0  0.40257  0.03844  0.01958  1.0000
  H   H1556     1.0  0.43523  0.03591  0.06328  1.0000
  H   H1557     1.0  0.32830  0.26269  0.23085  1.0000
  H   H1558     1.0  0.43818  0.09945  0.14507  1.0000
  H   H1559     1.0  0.43133  0.17241  0.13747  1.0000
  H   H1560     1.0  0.31153  0.44783  0.19389  1.0000
  H   H1561     1.0  0.42767  0.04821  0.09642  1.0000
  H   H1562     1.0  0.26150  0.02280  0.99143  1.0000
  H   H1563     1.0  0.28727  0.15512  0.08516  1.0000
  H   H1564     1.0  0.27806  0.03384  0.03487  1.0000
  H   H1565     1.0  0.24611  0.33614  0.31749  1.0000
  H   H1566     1.0  0.30935  0.01448  0.10214  1.0000
  H   H1567     1.0  0.43082  0.18345  0.15935  1.0000
  H   H1568     1.0  0.30946  0.14938  0.01420  1.0000
  C   C909      1.0  0.32321  0.02172  0.07910  1.0000
  H   H1569     1.0  0.34093  0.24775  0.21908  1.0000
  H   H1570     1.0  0.45764  0.11923  0.11720  1.0000
  C   C910      1.0  0.34268  0.02696  0.11354  1.0000
  H   H1571     1.0  0.28934  0.03576  0.01293  1.0000
  C   C911      1.0  0.36999  0.17998  0.02079  1.0000
  H   H1572     1.0  0.25664  0.42278  0.29001  1.0000
  C   C912      1.0  0.36531  0.08991  0.09561  1.0000
  H   H1573     1.0  0.48075  0.12881  0.10139  1.0000
  H   H1574     1.0  0.23967  0.35930  0.30068  1.0000
  H   H1575     1.0  0.30100  0.42796  0.17053  1.0000
  H   H1576     1.0  0.36239  0.09597  0.21608  1.0000
  H   H1577     1.0  0.39076  0.28738  0.18392  1.0000
  H   H1578     1.0  0.34722  0.22303  0.04405  1.0000
  C   C913      1.0  0.41594  0.05235  0.02982  1.0000
  C   C914      1.0  0.36119  0.19435  0.11365  1.0000
  C   C915      1.0  0.27041  0.48428  0.24115  1.0000
  H   H1579     1.0  0.38145  0.08025  0.21424  1.0000
  H   H1580     1.0  0.40759  0.11877  0.01940  1.0000
  C   C916      1.0  0.37895  0.09712  0.20598  1.0000
  C   C917      1.0  0.24853  0.05817  0.27935  1.0000
  S   S216      1.0  0.29430  0.09306  0.01830  1.0000
  C   C918      1.0  0.39371  0.03837  0.09342  1.0000
  C   C919      1.0  0.35555  0.16849  0.99828  1.0000
  C   C920      1.0  0.43180  0.16834  0.15434  1.0000
  H   H1581     1.0  0.42763  0.01160  0.02582  1.0000
  C   C921      1.0  0.43667  0.01556  0.29112  1.0000
  H   H1582     1.0  0.34015  0.14643  0.06696  1.0000
  H   H1583     1.0  0.29503  0.22069  0.02472  1.0000
  H   H1584     1.0  0.24592  0.46953  0.28917  1.0000
  H   H1585     1.0  0.30793  0.22675  0.02054  1.0000
  H   H1586     1.0  0.45544  0.05257  0.31937  1.0000
  H   H1587     1.0  0.43734  0.03812  0.00202  1.0000
  H   H1588     1.0  0.41515  0.03846  0.04325  1.0000
  H   H1589     1.0  0.36815  0.16381  0.02729  1.0000
  H   H1590     1.0  0.34613  0.32338  0.26583  1.0000
  S   S217      1.0  0.47778  0.05412  0.30784  1.0000
  C   C922      1.0  0.36093  0.05610  0.02651  1.0000
  C   C923      1.0  0.28918  0.01825  0.09642  1.0000
  H   H1591     1.0  0.45300  0.05477  0.14865  1.0000
  H   H1592     1.0  0.26637  0.45988  0.26869  1.0000
  H   H1593     1.0  0.47649  0.10407  0.15427  1.0000
  H   H1594     1.0  0.40986  0.06597  0.03547  1.0000
  H   H1595     1.0  0.34693  0.14358  0.04024  1.0000
  C   C924      1.0  0.29229  0.99744  0.08813  1.0000
  C   C925      1.0  0.27801  0.48948  0.22271  1.0000
  H   H1596     1.0  0.29809  0.23087  0.04404  1.0000
  C   C926      1.0  0.36928  0.27266  0.08375  1.0000
  H   H1597     1.0  0.35032  0.27111  0.98975  1.0000
  H   H1598     1.0  0.34610  0.17904  0.07431  1.0000
  C   C927      1.0  0.38756  0.27265  0.18814  1.0000
  H   H1599     1.0  0.43879  0.00447  0.28023  1.0000
  H   H1600     1.0  0.30726  0.02134  0.06357  1.0000
  N   N47       1.0  0.35705  0.29838  0.20200  1.0000
  C   C928      1.0  0.35493  0.30641  0.18006  1.0000
  C   C929      1.0  0.35278  0.27831  0.21218  1.0000
  C   C930      1.0  0.35168  0.31571  0.21429  1.0000
  C   C931      1.0  0.36884  0.29300  0.20142  1.0000
  C   C932      1.0  0.41239  0.04827  0.01151  1.0000
  C   C933      1.0  0.35945  0.32625  0.16651  1.0000
  C   C934      1.0  0.35191  0.30946  0.23808  1.0000
  C   C935      1.0  0.27019  0.38683  0.31133  1.0000
  H   H1601     1.0  0.28784  0.99923  0.07591  1.0000
  H   H1602     1.0  0.44023  0.06299  0.14132  1.0000
  C   C936      1.0  0.35757  0.33186  0.14412  1.0000
  H   H1603     1.0  0.33640  0.03750  0.10519  1.0000
  H   H1604     1.0  0.34625  0.31087  0.18076  1.0000
  H   H1605     1.0  0.35789  0.29341  0.17119  1.0000
  C   C937      1.0  0.24146  0.07269  0.19774  1.0000
  H   H1606     1.0  0.35557  0.27006  0.22705  1.0000
  H   H1607     1.0  0.34326  0.32192  0.21280  1.0000
  H   H1608     1.0  0.35543  0.32982  0.20748  1.0000
  H   H1609     1.0  0.37198  0.30784  0.19722  1.0000
  C   C938      1.0  0.35666  0.25814  0.99601  1.0000
  H   H1610     1.0  0.37574  0.28626  0.16956  1.0000
  H   H1611     1.0  0.40420  0.02290  0.03090  1.0000
  H   H1612     1.0  0.35546  0.34047  0.17348  1.0000
  H   H1613     1.0  0.36814  0.32347  0.16520  1.0000
  H   H1614     1.0  0.35663  0.25998  0.01188  1.0000
  C   C939      1.0  0.37431  0.04467  0.09175  1.0000
  C   C940      1.0  0.35902  0.18999  0.99378  1.0000
  H   H1615     1.0  0.23885  0.06434  0.18853  1.0000
  H   H1616     1.0  0.25711  0.05095  0.27901  1.0000
  H   H1617     1.0  0.33341  0.14950  0.00509  1.0000
  H   H1618     1.0  0.32502  0.14128  0.27440  1.0000
  H   H1619     1.0  0.43130  0.01410  0.04837  1.0000
  H   H1620     1.0  0.34896  0.34251  0.24137  1.0000
  N   N48       1.0  0.29249  0.03773  0.08111  1.0000
  H   H1621     1.0  0.34894  0.33519  0.14440  1.0000
  H   H1622     1.0  0.36065  0.34637  0.13496  1.0000
  H   H1623     1.0  0.36180  0.31854  0.13594  1.0000
  H   H1624     1.0  0.36741  0.10565  0.23302  1.0000
  C   C941      1.0  0.47350  0.14167  0.09975  1.0000
  H   H1625     1.0  0.35960  0.01830  0.10909  1.0000
  H   H1626     1.0  0.30126  0.48047  0.25564  1.0000
  H   H1627     1.0  0.34590  0.12037  0.06094  1.0000
  C   C942      1.0  0.36328  0.21779  0.00548  1.0000
  H   H1628     1.0  0.34751  0.16949  0.00874  1.0000
  C   C943      1.0  0.28926  0.45432  0.23118  1.0000
  H   H1629     1.0  0.33428  0.11638  0.27120  1.0000
  H   H1630     1.0  0.47011  0.10760  0.20077  1.0000
  H   H1631     1.0  0.37271  0.04735  0.10803  1.0000
  H   H1632     1.0  0.46491  0.02107  0.30748  1.0000
  C   C944      1.0  0.29242  0.03610  0.04275  1.0000
  C   C945      1.0  0.44249  0.15357  0.15748  1.0000
  C   C946      1.0  0.28052  0.38486  0.31794  1.0000
  H   H1633     1.0  0.36346  0.03861  0.02722  1.0000
  N   N49       1.0  0.29446  0.40311  0.19503  1.0000
  C   C947      1.0  0.28306  0.41267  0.19293  1.0000
  C   C948      1.0  0.29483  0.39313  0.21797  1.0000
  C   C949      1.0  0.30026  0.42128  0.18777  1.0000
  C   C950      1.0  0.30010  0.38713  0.18126  1.0000
  C   C951      1.0  0.29504  0.36784  0.18461  1.0000
  C   C952      1.0  0.28139  0.42413  0.17036  1.0000
  C   C953      1.0  0.31176  0.41570  0.19143  1.0000
  C   C954      1.0  0.28569  0.38178  0.23162  1.0000
  C   C955      1.0  0.28810  0.36892  0.25294  1.0000
  C   C956      1.0  0.29989  0.35623  0.16639  1.0000
  C   C957      1.0  0.26953  0.43194  0.17022  1.0000
  H   H1634     1.0  0.27932  0.42446  0.20328  1.0000
  H   H1635     1.0  0.27815  0.40042  0.19874  1.0000
  H   H1636     1.0  0.30255  0.38155  0.21912  1.0000
  H   H1637     1.0  0.29456  0.40559  0.22641  1.0000
  H   H1638     1.0  0.29561  0.43475  0.19559  1.0000
  H   H1639     1.0  0.30119  0.39533  0.16428  1.0000
  H   H1640     1.0  0.30834  0.37996  0.18375  1.0000
  H   H1641     1.0  0.28634  0.37262  0.18560  1.0000
  H   H1642     1.0  0.29666  0.35615  0.19928  1.0000
  H   H1643     1.0  0.28497  0.43843  0.16430  1.0000
  H   H1644     1.0  0.28492  0.41316  0.15929  1.0000
  H   H1645     1.0  0.31711  0.40398  0.18211  1.0000
  H   H1646     1.0  0.31190  0.40888  0.20829  1.0000
  H   H1647     1.0  0.27819  0.39395  0.23485  1.0000
  H   H1648     1.0  0.28419  0.37071  0.22376  1.0000
  H   H1649     1.0  0.29559  0.35654  0.25075  1.0000
  H   H1650     1.0  0.28884  0.37969  0.26216  1.0000
  H   H1651     1.0  0.28150  0.36080  0.26213  1.0000
  H   H1652     1.0  0.30871  0.35175  0.16388  1.0000
  H   H1653     1.0  0.29690  0.34131  0.17007  1.0000
  H   H1654     1.0  0.29767  0.36654  0.15156  1.0000
  C   C958      1.0  0.28749  0.48637  0.28012  1.0000
  H   H1655     1.0  0.26853  0.44033  0.15397  1.0000
  H   H1656     1.0  0.26551  0.41823  0.17538  1.0000
  N   N50       1.0  0.28986  0.21003  0.14090  1.0000
  C   C959      1.0  0.29496  0.21409  0.11760  1.0000
  C   C960      1.0  0.28578  0.18969  0.14633  1.0000
  C   C961      1.0  0.28069  0.22886  0.14479  1.0000
  C   C962      1.0  0.29819  0.20804  0.15291  1.0000
  C   C963      1.0  0.29458  0.20369  0.17725  1.0000
  C   C964      1.0  0.29865  0.23565  0.10798  1.0000
  C   C965      1.0  0.27101  0.22441  0.16310  1.0000
  C   C966      1.0  0.29410  0.16924  0.14143  1.0000
  C   C967      1.0  0.28916  0.14954  0.14979  1.0000
  C   C968      1.0  0.30394  0.19994  0.18760  1.0000
  C   C969      1.0  0.30168  0.23963  0.08391  1.0000
  C   C970      1.0  0.26341  0.24528  0.16757  1.0000
  H   H1657     1.0  0.28939  0.21323  0.10840  1.0000
  H   H1658     1.0  0.30219  0.20141  0.11415  1.0000
  H   H1659     1.0  0.28192  0.18573  0.16328  1.0000
  H   H1660     1.0  0.27942  0.19209  0.13763  1.0000
  H   H1661     1.0  0.27720  0.23609  0.13053  1.0000
  H   H1662     1.0  0.28365  0.24186  0.14738  1.0000
  H   H1663     1.0  0.30529  0.19545  0.14866  1.0000
  H   H1664     1.0  0.30126  0.22299  0.14821  1.0000
  H   H1665     1.0  0.29108  0.18933  0.18362  1.0000
  H   H1666     1.0  0.28871  0.21784  0.18210  1.0000
  H   H1667     1.0  0.29237  0.24958  0.11214  1.0000
  H   H1668     1.0  0.30575  0.23543  0.11357  1.0000
  H   H1669     1.0  0.27342  0.21501  0.17796  1.0000
  H   H1670     1.0  0.26645  0.21525  0.15872  1.0000
  H   H1671     1.0  0.29702  0.17070  0.12414  1.0000
  H   H1672     1.0  0.30100  0.16608  0.14878  1.0000
  H   H1673     1.0  0.28232  0.15154  0.14259  1.0000
  H   H1674     1.0  0.29520  0.13526  0.14569  1.0000
  H   H1675     1.0  0.28647  0.14651  0.16724  1.0000
  H   H1676     1.0  0.30108  0.19763  0.20499  1.0000
  H   H1677     1.0  0.30994  0.18537  0.18409  1.0000
  H   H1678     1.0  0.30777  0.21394  0.18187  1.0000
  H   H1679     1.0  0.30802  0.22622  0.07860  1.0000
  H   H1680     1.0  0.29461  0.24144  0.07748  1.0000
  H   H1681     1.0  0.30468  0.25464  0.07739  1.0000
  H   H1682     1.0  0.25643  0.24164  0.18028  1.0000
  H   H1683     1.0  0.26746  0.25472  0.17286  1.0000
  H   H1684     1.0  0.26050  0.25506  0.15321  1.0000
  C   C971      1.0  0.31141  0.02815  0.08928  1.0000
  C   C972      1.0  0.47553  0.10865  0.18493  1.0000
  C   C973      1.0  0.26117  0.47695  0.30886  1.0000
  H   H1685     1.0  0.29231  0.01483  0.11088  1.0000
  Fe  Fe111     1.0  0.26357  0.99919  0.17296  1.0000
  C   C974      1.0  0.34566  0.32792  0.24895  1.0000
  H   H1686     1.0  0.36751  0.06404  0.01665  1.0000
  C   C975      1.0  0.24803  0.38946  0.30884  1.0000
  H   H1687     1.0  0.32182  0.47362  0.19559  1.0000
  C   C976      1.0  0.34048  0.28131  0.21706  1.0000
  C   C977      1.0  0.42738  0.07539  0.00520  1.0000
  H   H1688     1.0  0.38557  0.06564  0.07422  1.0000
  H   H1689     1.0  0.35399  0.06255  0.01883  1.0000
  H   H1690     1.0  0.43568  0.03222  0.28154  1.0000
  H   H1691     1.0  0.33755  0.28692  0.20223  1.0000
  H   H1692     1.0  0.42511  0.16061  0.16399  1.0000
  H   H1693     1.0  0.33920  0.25453  0.24421  1.0000
  N   N51       1.0  0.25000  0.40404  0.32027  1.0000
  H   H1694     1.0  0.47830  0.01742  0.20195  1.0000
  S   S218      1.0  0.46586  0.00141  0.24805  1.0000
  H   H1695     1.0  0.34652  0.23571  0.00791  1.0000
  H   H1696     1.0  0.34831  0.29544  0.24642  1.0000
  C   C978      1.0  0.36244  0.29477  0.07687  1.0000
  H   H1697     1.0  0.36350  0.19505  0.12800  1.0000
  C   C979      1.0  0.24442  0.04724  0.26701  1.0000
  H   H1698     1.0  0.33635  0.29300  0.22720  1.0000
  C   C980      1.0  0.45289  0.09408  0.15661  1.0000
  H   H1699     1.0  0.47713  0.12502  0.17905  1.0000
  H   H1700     1.0  0.35468  0.02405  0.08539  1.0000
  H   H1701     1.0  0.46061  0.08220  0.15506  1.0000
  H   H1702     1.0  0.28036  0.02135  0.10211  1.0000
  H   H1703     1.0  0.28204  0.05920  0.02310  1.0000
  H   H1704     1.0  0.39243  0.26210  0.17715  1.0000
  N   N52       1.0  0.31464  0.15958  0.03683  1.0000
  C   C981      1.0  0.44320  0.02642  0.31787  1.0000
  C   C982      1.0  0.30697  0.15053  0.05604  1.0000
  C   C983      1.0  0.31011  0.18263  0.02773  1.0000
  C   C984      1.0  0.32471  0.15858  0.04333  1.0000
  C   C985      1.0  0.33126  0.13579  0.05058  1.0000
  H   H1705     1.0  0.27050  0.39790  0.29572  1.0000
  C   C986      1.0  0.30581  0.19766  0.04360  1.0000
  C   C987      1.0  0.29563  0.15246  0.05299  1.0000
  C   C988      1.0  0.28830  0.14482  0.07399  1.0000
  C   C989      1.0  0.34168  0.13679  0.05493  1.0000
  C   C990      1.0  0.33345  0.13399  0.26813  1.0000
  C   C991      1.0  0.30140  0.22038  0.03252  1.0000
  H   H1706     1.0  0.33027  0.11970  0.99379  1.0000
  H   H1707     1.0  0.31855  0.12920  0.02731  1.0000
  H   H1708     1.0  0.31016  0.13322  0.06159  1.0000
  H   H1709     1.0  0.30627  0.15778  0.06953  1.0000
  H   H1710     1.0  0.30363  0.18383  0.01981  1.0000
  H   H1711     1.0  0.31625  0.18969  0.01491  1.0000
  H   H1712     1.0  0.32998  0.16784  0.03044  1.0000
  H   H1713     1.0  0.32285  0.16658  0.05679  1.0000
  H   H1714     1.0  0.33331  0.12598  0.03857  1.0000
  H   H1715     1.0  0.32672  0.12732  0.06538  1.0000
  H   H1716     1.0  0.44093  0.06267  0.16760  1.0000
  H   H1717     1.0  0.46169  0.99583  0.31967  1.0000
  H   H1718     1.0  0.31224  0.19840  0.05066  1.0000
  H   H1719     1.0  0.29928  0.19237  0.05652  1.0000
  H   H1720     1.0  0.29187  0.16920  0.04657  1.0000
  H   H1721     1.0  0.29596  0.14254  0.04194  1.0000
  H   H1722     1.0  0.29650  0.44282  0.22726  1.0000
  H   H1723     1.0  0.29939  0.04346  0.03429  1.0000
  H   H1724     1.0  0.35601  0.26657  0.20178  1.0000
  C   C992      1.0  0.33707  0.26021  0.22851  1.0000
  C   C993      1.0  0.44632  0.08919  0.14343  1.0000
  H   H1725     1.0  0.44180  0.13574  0.13546  1.0000
  H   H1726     1.0  0.44333  0.03977  0.02168  1.0000
  H   H1727     1.0  0.36680  0.30393  0.06223  1.0000
  H   H1728     1.0  0.44885  0.16224  0.14831  1.0000
  H   H1729     1.0  0.45025  0.09167  0.12646  1.0000
  H   H1730     1.0  0.32407  0.46680  0.22190  1.0000
  C   C994      1.0  0.37594  0.27826  0.18624  1.0000
  H   H1731     1.0  0.33455  0.09654  0.19495  1.0000
  H   H1732     1.0  0.36039  0.30383  0.08955  1.0000
  C   C995      1.0  0.31649  0.43562  0.18476  1.0000
  H   H1733     1.0  0.27004  0.37092  0.30932  1.0000
  H   H1734     1.0  0.36930  0.22861  0.10617  1.0000
  H   H1735     1.0  0.36105  0.17748  0.11469  1.0000
  C   C996      1.0  0.46180  0.11990  0.12909  1.0000
  N   N53       1.0  0.36078  0.19581  0.01243  1.0000
  H   H1736     1.0  0.41887  0.12848  0.03734  1.0000
  C   C997      1.0  0.36712  0.05153  0.06022  1.0000
  H   H1737     1.0  0.33856  0.13749  0.27667  1.0000
  H   H1738     1.0  0.46985  0.13950  0.08776  1.0000
  H   H1739     1.0  0.48361  0.00620  0.30907  1.0000
  H   H1740     1.0  0.39231  0.24420  0.06913  1.0000
  H   H1741     1.0  0.33511  0.16089  0.24240  1.0000
  H   H1742     1.0  0.39574  0.04960  0.02732  1.0000
  C   C998      1.0  0.42746  0.06005  0.08120  1.0000
  C   C999      1.0  0.36893  0.22617  0.09077  1.0000
  C   C1000     1.0  0.37247  0.25944  0.06640  1.0000
  H   H1743     1.0  0.36529  0.26153  0.06003  1.0000
  H   H1744     1.0  0.35301  0.20419  0.11332  1.0000
  H   H1745     1.0  0.25423  0.38835  0.29404  1.0000
  H   H1746     1.0  0.31694  0.07417  0.01029  1.0000
  H   H1747     1.0  0.39422  0.02084  0.09888  1.0000
  C   C1001     1.0  0.39072  0.22173  0.01771  1.0000
  H   H1748     1.0  0.36023  0.30561  0.24017  1.0000
  H   H1749     1.0  0.43434  0.06783  0.07717  1.0000
  H   H1750     1.0  0.39621  0.23014  0.04054  1.0000
  C   C1002     1.0  0.36919  0.20207  0.09375  1.0000
  H   H1751     1.0  0.37812  0.26756  0.05338  1.0000
  H   H1752     1.0  0.38498  0.24037  0.09538  1.0000
  H   H1753     1.0  0.45047  0.00092  0.03265  1.0000
  C   C1003     1.0  0.46554  0.14132  0.12096  1.0000
  H   H1754     1.0  0.35639  0.12266  0.08692  1.0000
  H   H1755     1.0  0.36457  0.16727  0.17834  1.0000
  H   H1756     1.0  0.37489  0.02724  0.09395  1.0000
  C   C1004     1.0  0.28496  0.04158  0.02755  1.0000
  C   C1005     1.0  0.35369  0.02936  0.10013  1.0000
  N   N54       1.0  0.37723  0.23586  0.07316  1.0000
  H   H1757     1.0  0.37716  0.19187  0.09500  1.0000
  H   H1758     1.0  0.32628  0.23340  0.07182  1.0000
  C   C1006     1.0  0.37967  0.22605  0.05419  1.0000
  H   H1759     1.0  0.46953  0.14405  0.13205  1.0000
  H   H1760     1.0  0.39297  0.20414  0.02360  1.0000
  H   H1761     1.0  0.44672  0.99870  0.00965  1.0000
  H   H1762     1.0  0.38048  0.17258  0.99113  1.0000
  C   C1007     1.0  0.28733  0.47434  0.21749  1.0000
  H   H1763     1.0  0.33448  0.12312  0.17892  1.0000
  C   C1008     1.0  0.32963  0.29138  0.04673  1.0000
  C   C1009     1.0  0.38710  0.23391  0.08084  1.0000
  H   H1764     1.0  0.36691  0.19943  0.08022  1.0000
  C   C1010     1.0  0.32736  0.24944  0.06472  1.0000
  H   H1765     1.0  0.29364  0.44931  0.31478  1.0000
  C   C1011     1.0  0.36449  0.11413  0.08933  1.0000
  H   H1766     1.0  0.35021  0.17825  0.03685  1.0000
  H   H1767     1.0  0.40960  0.21785  0.07218  1.0000
  H   H1768     1.0  0.37091  0.08631  0.06321  1.0000
  H   H1769     1.0  0.35718  0.20662  0.16474  1.0000
  H   H1770     1.0  0.40925  0.19512  0.09412  1.0000
  H   H1771     1.0  0.36607  0.11958  0.10207  1.0000
  H   H1772     1.0  0.46895  0.10654  0.12805  1.0000
  C   C1012     1.0  0.35027  0.20547  0.04836  1.0000
  N   N55       1.0  0.36528  0.05751  0.08114  1.0000
  H   H1773     1.0  0.37294  0.08248  0.10072  1.0000
  H   H1774     1.0  0.35142  0.17422  0.17307  1.0000
  H   H1775     1.0  0.24148  0.03973  0.23095  1.0000
  C   C1013     1.0  0.40495  0.21158  0.08801  1.0000
  H   H1776     1.0  0.37230  0.22921  0.04817  1.0000
  H   H1777     1.0  0.40446  0.22181  0.09888  1.0000
  H   H1778     1.0  0.35873  0.08660  0.10928  1.0000
  H   H1779     1.0  0.32362  0.16831  0.99165  1.0000
  Fe  Fe112     1.0  0.32547  0.24893  0.99401  1.0000
  H   H1780     1.0  0.24927  0.04951  0.25064  1.0000
  H   H1781     1.0  0.34855  0.14183  0.18204  1.0000
  H   H1782     1.0  0.33040  0.30775  0.03979  1.0000
  C   C1014     1.0  0.39382  0.21102  0.08659  1.0000
  H   H1783     1.0  0.38987  0.20282  0.10227  1.0000
  H   H1784     1.0  0.38827  0.09627  0.07961  1.0000
  C   C1015     1.0  0.39491  0.10327  0.07024  1.0000
  H   H1785     1.0  0.24800  0.45607  0.26799  1.0000
  H   H1786     1.0  0.34786  0.20698  0.18948  1.0000
  H   H1787     1.0  0.38215  0.20837  0.05849  1.0000
  C   C1016     1.0  0.35579  0.19872  0.18170  1.0000
  H   H1788     1.0  0.33724  0.14770  0.20197  1.0000
  H   H1789     1.0  0.37032  0.28488  0.21744  1.0000
  C   C1017     1.0  0.35615  0.17507  0.18387  1.0000
  C   C1018     1.0  0.35442  0.23641  0.99746  1.0000
  H   H1790     1.0  0.45865  0.15478  0.11839  1.0000
  C   C1019     1.0  0.34529  0.13702  0.19928  1.0000
  H   H1791     1.0  0.36566  0.13020  0.18782  1.0000
  H   H1792     1.0  0.27972  0.08218  0.12074  1.0000
  C   C1020     1.0  0.32719  0.25772  0.04332  1.0000
  H   H1793     1.0  0.38641  0.25084  0.02852  1.0000
  C   C1021     1.0  0.34404  0.11376  0.20287  1.0000
  H   H1794     1.0  0.37961  0.09742  0.18915  1.0000
  H   H1795     1.0  0.36203  0.20050  0.18865  1.0000
  H   H1796     1.0  0.32472  0.00755  0.07220  1.0000
  H   H1797     1.0  0.34209  0.20486  0.08100  1.0000
  C   C1022     1.0  0.38860  0.23350  0.03544  1.0000
  C   C1023     1.0  0.35091  0.19515  0.02990  1.0000
  H   H1798     1.0  0.27685  0.09719  0.09547  1.0000
  H   H1799     1.0  0.24036  0.39629  0.30363  1.0000
  C   C1024     1.0  0.32845  0.27871  0.03421  1.0000
  H   H1800     1.0  0.35705  0.09031  0.07246  1.0000
  C   C1025     1.0  0.39728  0.10629  0.04820  1.0000
  H   H1801     1.0  0.37329  0.26302  0.18975  1.0000
  C   C1026     1.0  0.35154  0.16458  0.20702  1.0000
  C   C1027     1.0  0.27492  0.08395  0.10908  1.0000
  H   H1802     1.0  0.26636  0.08822  0.11671  1.0000
  H   H1803     1.0  0.48319  0.09711  0.18656  1.0000
  H   H1804     1.0  0.34311  0.17348  0.21053  1.0000
  C   C1028     1.0  0.36373  0.12991  0.20492  1.0000
  N   N56       1.0  0.35217  0.14074  0.21169  1.0000
  H   H1805     1.0  0.34290  0.10539  0.21967  1.0000
  H   H1806     1.0  0.29305  0.05092  0.10673  1.0000
  H   H1807     1.0  0.31047  0.04205  0.09622  1.0000
  H   H1808     1.0  0.37044  0.11850  0.07463  1.0000
  H   H1809     1.0  0.38709  0.14490  0.02051  1.0000
  C   C1029     1.0  0.34284  0.19632  0.06850  1.0000
  H   H1810     1.0  0.33481  0.19825  0.06560  1.0000
  H   H1811     1.0  0.28534  0.06267  0.05743  1.0000
  C   C1030     1.0  0.33988  0.47890  0.27286  1.0000
  C   C1031     1.0  0.30441  0.03407  0.07273  1.0000
  H   H1812     1.0  0.36117  0.15494  0.00585  1.0000
  C   C1032     1.0  0.36466  0.08126  0.07702  1.0000
  H   H1813     1.0  0.32689  0.11953  0.20574  1.0000
  C   C1033     1.0  0.38093  0.17757  0.00506  1.0000
  H   H1814     1.0  0.37417  0.05723  0.04914  1.0000
  H   H1815     1.0  0.35569  0.16831  0.21737  1.0000
  H   H1816     1.0  0.36913  0.13892  0.20701  1.0000
  H   H1817     1.0  0.38831  0.26397  0.20444  1.0000
  H   H1818     1.0  0.32832  0.28528  0.01771  1.0000
  C   C1034     1.0  0.27720  0.06308  0.10169  1.0000
  C   C1035     1.0  0.34092  0.49304  0.28375  1.0000
  H   H1819     1.0  0.27431  0.05085  0.11547  1.0000
  H   H1820     1.0  0.34356  0.20284  0.02361  1.0000
  H   H1821     1.0  0.35808  0.20291  0.05222  1.0000
  H   H1822     1.0  0.38450  0.10640  0.20690  1.0000
  H   H1823     1.0  0.33103  0.13969  0.23683  1.0000
  H   H1824     1.0  0.35395  0.05658  0.11113  1.0000
  S   S219      1.0  0.32523  0.24106  0.02905  1.0000
  C   C1036     1.0  0.28932  0.05556  0.09292  1.0000
  H   H1825     1.0  0.37133  0.18443  0.03436  1.0000
  S   S220      1.0  0.27873  0.00786  0.15152  1.0000
  C   C1037     1.0  0.36750  0.10640  0.21632  1.0000
  H   H1826     1.0  0.27869  0.04114  0.06852  1.0000
  C   C1038     1.0  0.25092  0.42527  0.30504  1.0000
  H   H1827     1.0  0.35340  0.13736  0.24369  1.0000
  H   H1828     1.0  0.29236  0.06968  0.08269  1.0000
  H   H1829     1.0  0.35087  0.05313  0.05746  1.0000
  S   S221      1.0  0.38972  0.09721  0.03610  1.0000
  C   C1039     1.0  0.34830  0.13361  0.23522  1.0000
  H   H1830     1.0  0.34920  0.11600  0.24004  1.0000
  H   H1831     1.0  0.27243  0.06597  0.08971  1.0000
  H   H1832     1.0  0.36921  0.03384  0.06202  1.0000
  H   H1833     1.0  0.40035  0.03557  0.00606  1.0000
  C   C1040     1.0  0.40582  0.11582  0.03637  1.0000
  H   H1834     1.0  0.41997  0.07242  0.08336  1.0000
  H   H1835     1.0  0.43620  0.06914  0.03840  1.0000
  C   C1041     1.0  0.35496  0.05281  0.09554  1.0000
  H   H1836     1.0  0.29155  0.48370  0.29318  1.0000
  C   C1042     1.0  0.33441  0.11326  0.19513  1.0000
  C   C1043     1.0  0.33650  0.14330  0.24446  1.0000
  H   H1837     1.0  0.37033  0.21817  0.99210  1.0000
  H   H1838     1.0  0.47591  0.15733  0.09407  1.0000
  H   H1839     1.0  0.31507  0.47145  0.29859  1.0000
  C   C1044     1.0  0.43760  0.08459  0.99803  1.0000
  C   C1045     1.0  0.43388  0.01550  0.03112  1.0000
  C   C1046     1.0  0.32576  0.15163  0.00063  1.0000
  C   C1047     1.0  0.44555  0.01076  0.30302  1.0000
  H   H1840     1.0  0.42903  0.01328  0.30230  1.0000
  H   H1841     1.0  0.41884  0.03761  0.00247  1.0000
  H   H1842     1.0  0.32584  0.03517  0.06652  1.0000
  H   H1843     1.0  0.25446  0.43494  0.31124  1.0000
  H   H1844     1.0  0.39712  0.15896  0.00353  1.0000
  H   H1845     1.0  0.28127  0.40082  0.31880  1.0000
  H   H1846     1.0  0.44489  0.07165  0.99696  1.0000
  H   H1847     1.0  0.24973  0.06470  0.19953  1.0000
  H   H1848     1.0  0.38378  0.19271  0.99956  1.0000
  H   H1849     1.0  0.39740  0.22675  0.00492  1.0000
  H   H1850     1.0  0.44311  0.04243  0.30696  1.0000
  H   H1851     1.0  0.24770  0.07554  0.27216  1.0000
  H   H1852     1.0  0.24410  0.05597  0.29607  1.0000
  H   H1853     1.0  0.45297  0.01269  0.29100  1.0000
  H   H1854     1.0  0.30617  0.48958  0.22069  1.0000
  C   C1048     1.0  0.24042  0.43960  0.29896  1.0000
  H   H1855     1.0  0.29319  0.47836  0.20321  1.0000
  H   H1856     1.0  0.29533  0.01853  0.04626  1.0000
  C   C1049     1.0  0.32331  0.49186  0.30553  1.0000
  S   S222      1.0  0.48569  0.03150  0.25727  1.0000
  H   H1857     1.0  0.34630  0.47425  0.26005  1.0000
  H   H1858     1.0  0.28746  0.37865  0.30608  1.0000
  C   C1050     1.0  0.29460  0.49421  0.25899  1.0000
  C   C1051     1.0  0.48666  0.01688  0.19293  1.0000
  H   H1859     1.0  0.26259  0.05884  0.99086  1.0000
  C   C1052     1.0  0.44402  0.99836  0.02683  1.0000
  H   H1860     1.0  0.29897  0.42588  0.38136  1.0000
  H   H1861     1.0  0.29302  0.45865  0.35716  1.0000
  C   C1053     1.0  0.47563  0.04790  0.44473  1.0000
  Fe  Fe113     1.0  0.27603  0.40522  0.40620  1.0000
  S   S223      1.0  0.26430  0.41503  0.43441  1.0000
  S   S224      1.0  0.29092  0.38037  0.40988  1.0000
  C   C1054     1.0  0.29754  0.45530  0.34161  1.0000
  S   S225      1.0  0.24960  0.44717  0.40164  1.0000
  Fe  Fe114     1.0  0.26312  0.44830  0.41472  1.0000
  H   H1862     1.0  0.24423  0.37422  0.50392  1.0000
  Fe  Fe115     1.0  0.25193  0.41276  0.41904  1.0000
  C   C1055     1.0  0.30711  0.43576  0.34309  1.0000
  C   C1056     1.0  0.25769  0.46876  0.33035  1.0000
  S   S226      1.0  0.26383  0.40011  0.39233  1.0000
  C   C1057     1.0  0.26904  0.36776  0.47274  1.0000
  H   H1863     1.0  0.26184  0.36596  0.44039  1.0000
  H   H1864     1.0  0.24034  0.44762  0.49073  1.0000
  S   S227      1.0  0.23871  0.39708  0.44041  1.0000
  H   H1865     1.0  0.24073  0.11940  0.45714  1.0000
  C   C1058     1.0  0.27531  0.34186  0.39988  1.0000
  H   H1866     1.0  0.24299  0.34085  0.49418  1.0000
  H   H1867     1.0  0.28076  0.37377  0.33352  1.0000
  C   C1059     1.0  0.26024  0.39465  0.32795  1.0000
  C   C1060     1.0  0.26774  0.35072  0.44433  1.0000
  C   C1061     1.0  0.29531  0.38523  0.36668  1.0000
  H   H1868     1.0  0.24420  0.33321  0.43032  1.0000
  H   H1869     1.0  0.26145  0.37975  0.47171  1.0000
  C   C1062     1.0  0.29158  0.49007  0.40111  1.0000
  H   H1870     1.0  0.43484  0.02722  0.32706  1.0000
  H   H1871     1.0  0.27804  0.35552  0.40138  1.0000
  C   C1063     1.0  0.27416  0.34626  0.37709  1.0000
  H   H1872     1.0  0.29424  0.42114  0.42136  1.0000
  C   C1064     1.0  0.29852  0.37451  0.38565  1.0000
  C   C1065     1.0  0.48360  0.06846  0.39717  1.0000
  H   H1873     1.0  0.43828  0.01805  0.36052  1.0000
  H   H1874     1.0  0.43496  0.09104  0.34799  1.0000
  H   H1875     1.0  0.45874  0.01954  0.40205  1.0000
  S   S228      1.0  0.27600  0.43871  0.38781  1.0000
  C   C1066     1.0  0.44646  0.00966  0.35397  1.0000
  H   H1876     1.0  0.26219  0.40659  0.33407  1.0000
  H   H1877     1.0  0.24430  0.38562  0.39954  1.0000
  N   N57       1.0  0.31339  0.43334  0.35937  1.0000
  C   C1067     1.0  0.46873  0.03671  0.46513  1.0000
  H   H1878     1.0  0.24011  0.36670  0.33463  1.0000
  H   H1879     1.0  0.27025  0.36440  0.48906  1.0000
  N   N58       1.0  0.26498  0.33264  0.43885  1.0000
  H   H1880     1.0  0.47338  0.02132  0.47265  1.0000
  H   H1881     1.0  0.30204  0.44977  0.38280  1.0000
  H   H1882     1.0  0.34251  0.38844  0.35145  1.0000
  C   C1068     1.0  0.31003  0.42020  0.40059  1.0000
  H   H1883     1.0  0.24065  0.39122  0.35059  1.0000
  H   H1884     1.0  0.32017  0.45644  0.38294  1.0000
  H   H1885     1.0  0.26165  0.34138  0.47893  1.0000
  H   H1886     1.0  0.45666  0.04162  0.34597  1.0000
  H   H1887     1.0  0.47045  0.06345  0.43891  1.0000
  H   H1888     1.0  0.31709  0.39884  0.36551  1.0000
  H   H1889     1.0  0.43759  0.05191  0.35989  1.0000
  H   H1890     1.0  0.32172  0.34238  0.36607  1.0000
  H   H1891     1.0  0.26586  0.28622  0.44732  1.0000
  H   H1892     1.0  0.43481  0.06073  0.33388  1.0000
  C   C1069     1.0  0.30195  0.42490  0.42066  1.0000
  H   H1893     1.0  0.32823  0.46592  0.64280  1.0000
  C   C1070     1.0  0.24704  0.32102  0.44363  1.0000
  H   H1894     1.0  0.28795  0.39719  0.36680  1.0000
  H   H1895     1.0  0.28198  0.26065  0.43485  1.0000
  H   H1896     1.0  0.30057  0.44201  0.42119  1.0000
  C   C1071     1.0  0.27278  0.29273  0.43692  1.0000
  H   H1897     1.0  0.31050  0.35062  0.39997  1.0000
  C   C1072     1.0  0.31134  0.36536  0.34715  1.0000
  H   H1898     1.0  0.27210  0.29631  0.42026  1.0000
  H   H1899     1.0  0.31759  0.42387  0.40073  1.0000
  C   C1073     1.0  0.28972  0.45151  0.33100  1.0000
  C   C1074     1.0  0.30175  0.38071  0.34740  1.0000
  S   S229      1.0  0.26408  0.44310  0.34139  1.0000
  C   C1075     1.0  0.47145  0.03447  0.41835  1.0000
  H   H1900     1.0  0.24845  0.33574  0.51721  1.0000
  H   H1901     1.0  0.32645  0.40957  0.37109  1.0000
  H   H1902     1.0  0.31532  0.48432  0.64496  1.0000
  C   C1076     1.0  0.31435  0.35433  0.36619  1.0000
  C   C1077     1.0  0.33148  0.47118  0.35806  1.0000
  C   C1078     1.0  0.24130  0.42249  0.35192  1.0000
  C   C1079     1.0  0.28273  0.27498  0.43924  1.0000
  H   H1903     1.0  0.26170  0.32750  0.41101  1.0000
  C   C1080     1.0  0.26853  0.34715  0.46764  1.0000
  C   C1081     1.0  0.24901  0.48067  0.34228  1.0000
  H   H1904     1.0  0.46572  0.02582  0.43065  1.0000
  C   C1082     1.0  0.26461  0.33916  0.41573  1.0000
  H   H1905     1.0  0.24786  0.41549  0.36056  1.0000
  H   H1906     1.0  0.48123  0.02903  0.38719  1.0000
  H   H1907     1.0  0.44849  0.07951  0.35102  1.0000
  C   C1083     1.0  0.44261  0.08071  0.34168  1.0000
  H   H1908     1.0  0.46175  0.03347  0.46172  1.0000
  H   H1909     1.0  0.25495  0.31937  0.46816  1.0000
  H   H1910     1.0  0.28994  0.28033  0.42864  1.0000
  H   H1911     1.0  0.31149  0.40275  0.40136  1.0000
  H   H1912     1.0  0.27353  0.48251  0.45735  1.0000
  C   C1084     1.0  0.27547  0.48064  0.42515  1.0000
  H   H1913     1.0  0.45959  0.04247  0.49581  1.0000
  H   H1914     1.0  0.24912  0.34559  0.45567  1.0000
  H   H1915     1.0  0.27188  0.33265  0.37423  1.0000
  H   H1916     1.0  0.24517  0.43905  0.46589  1.0000
  H   H1917     1.0  0.45944  0.06623  0.47500  1.0000
  H   H1918     1.0  0.29931  0.38908  0.33277  1.0000
  C   C1085     1.0  0.46451  0.05078  0.48140  1.0000
  H   H1919     1.0  0.26808  0.36113  0.37350  1.0000
  C   C1086     1.0  0.46182  0.01107  0.32299  1.0000
  S   S230      1.0  0.26295  0.47439  0.42993  1.0000
  C   C1087     1.0  0.32544  0.45310  0.36777  1.0000
  H   H1920     1.0  0.25440  0.35852  0.32888  1.0000
  C   C1088     1.0  0.47031  0.00510  0.33650  1.0000
  C   C1089     1.0  0.30801  0.35899  0.38536  1.0000
  C   C1090     1.0  0.28207  0.48310  0.40489  1.0000
  C   C1091     1.0  0.47484  0.02283  0.39983  1.0000
  H   H1921     1.0  0.47120  0.05399  0.48593  1.0000
  C   C1092     1.0  0.46545  0.02538  0.38997  1.0000
  H   H1922     1.0  0.24485  0.38469  0.62879  1.0000
  H   H1923     1.0  0.28665  0.43698  0.34012  1.0000
  C   C1093     1.0  0.30570  0.43310  0.38062  1.0000
  C   C1094     1.0  0.27341  0.31269  0.44361  1.0000
  H   H1924     1.0  0.28373  0.27036  0.45581  1.0000
  C   C1095     1.0  0.31866  0.45214  0.35299  1.0000
  H   H1925     1.0  0.46801  0.01566  0.37778  1.0000
  N   N59       1.0  0.45075  0.02221  0.33247  1.0000
  H   H1926     1.0  0.45130  0.00878  0.36533  1.0000
  H   H1927     1.0  0.26339  0.49462  0.64746  1.0000
  H   H1928     1.0  0.46273  0.04239  0.38234  1.0000
  H   H1929     1.0  0.24261  0.43813  0.34172  1.0000
  H   H1930     1.0  0.33712  0.46847  0.34303  1.0000
  H   H1931     1.0  0.27591  0.33517  0.47054  1.0000
  H   H1932     1.0  0.24622  0.47423  0.35885  1.0000
  H   H1933     1.0  0.33143  0.43804  0.37088  1.0000
  H   H1934     1.0  0.46670  0.05081  0.41320  1.0000
  H   H1935     1.0  0.47126  0.01919  0.34082  1.0000
  H   H1936     1.0  0.30501  0.41486  0.43474  1.0000
  Fe  Fe116     1.0  0.26269  0.43470  0.37620  1.0000
  H   H1937     1.0  0.27580  0.37444  0.46166  1.0000
  C   C1096     1.0  0.25412  0.32987  0.45245  1.0000
  H   H1938     1.0  0.27560  0.35375  0.43473  1.0000
  C   C1097     1.0  0.32899  0.40883  0.33830  1.0000
  H   H1939     1.0  0.28166  0.32723  0.40228  1.0000
  H   H1940     1.0  0.27309  0.30765  0.46088  1.0000
  H   H1941     1.0  0.28151  0.31610  0.43652  1.0000
  C   C1098     1.0  0.27860  0.48439  0.44169  1.0000
  H   H1942     1.0  0.25135  0.30636  0.43773  1.0000
  H   H1943     1.0  0.27970  0.48020  0.39205  1.0000
  H   H1944     1.0  0.28193  0.34833  0.36628  1.0000
  H   H1945     1.0  0.48019  0.00330  0.44614  1.0000
  H   H1946     1.0  0.25869  0.35454  0.41279  1.0000
  H   H1947     1.0  0.47716  0.07855  0.40677  1.0000
  H   H1948     1.0  0.31255  0.46740  0.35202  1.0000
  H   H1949     1.0  0.33607  0.47193  0.36915  1.0000
  H   H1950     1.0  0.25933  0.38110  0.34183  1.0000
  C   C1099     1.0  0.28828  0.49054  0.43809  1.0000
  C   C1100     1.0  0.24090  0.40678  0.33907  1.0000
  C   C1101     1.0  0.32251  0.47754  0.65185  1.0000
  H   H1951     1.0  0.25083  0.36231  0.61625  1.0000
  C   C1102     1.0  0.44088  0.05854  0.34307  1.0000
  N   N60       1.0  0.48037  0.03549  0.42742  1.0000
  H   H1952     1.0  0.29658  0.49225  0.38543  1.0000
  C   C1103     1.0  0.32139  0.41224  0.35971  1.0000
  H   H1953     1.0  0.44555  0.08843  0.32498  1.0000
  H   H1954     1.0  0.30412  0.42095  0.34599  1.0000
  H   H1955     1.0  0.48198  0.05236  0.44932  1.0000
  H   H1956     1.0  0.32370  0.45302  0.33679  1.0000
  C   C1104     1.0  0.45154  0.04362  0.33484  1.0000
  H   H1957     1.0  0.28285  0.46533  0.33014  1.0000
  C   C1105     1.0  0.24117  0.34275  0.51067  1.0000
  H   H1958     1.0  0.30043  0.46994  0.33210  1.0000
  H   H1959     1.0  0.48024  0.06551  0.38517  1.0000
  H   H1960     1.0  0.47771  0.00543  0.40570  1.0000
  H   H1961     1.0  0.25891  0.35883  0.64596  1.0000
  H   H1962     1.0  0.32585  0.48683  0.35490  1.0000
  H   H1963     1.0  0.33347  0.37411  0.34847  1.0000
  H   H1964     1.0  0.23955  0.30252  0.47347  1.0000
  H   H1965     1.0  0.34246  0.38561  0.32567  1.0000
  H   H1966     1.0  0.32635  0.49085  0.65043  1.0000
  S   S231      1.0  0.31981  0.35965  0.32345  1.0000
  H   H1967     1.0  0.29065  0.49331  0.45100  1.0000
  C   C1106     1.0  0.33736  0.38796  0.34127  1.0000
  H   H1968     1.0  0.33327  0.42205  0.33080  1.0000
  H   H1969     1.0  0.31227  0.43739  0.32694  1.0000
  C   C1107     1.0  0.48602  0.01300  0.43577  1.0000
  H   H1970     1.0  0.32451  0.40758  0.32724  1.0000
  C   C1108     1.0  0.29468  0.49385  0.41774  1.0000
  C   C1109     1.0  0.24576  0.36716  0.63095  1.0000
  C   C1110     1.0  0.25094  0.35502  0.64959  1.0000
  H   H1971     1.0  0.25201  0.33771  0.65040  1.0000
  H   H1972     1.0  0.23782  0.36351  0.63350  1.0000
  C   C1111     1.0  0.23738  0.36640  0.51161  1.0000
  C   C1112     1.0  0.23814  0.44744  0.47609  1.0000
  C   C1113     1.0  0.48127  0.99537  0.32451  1.0000
  H   H1973     1.0  0.23817  0.40519  0.48099  1.0000
  C   C1114     1.0  0.23777  0.37847  0.40940  1.0000
  C   C1115     1.0  0.24738  0.36642  0.32176  1.0000
  H   H1974     1.0  0.47988  0.01774  0.68659  1.0000
  H   H1975     1.0  0.48158  0.05501  0.67850  1.0000
  S   S232      1.0  0.24248  0.44670  0.71989  1.0000
  H   H1976     1.0  0.23773  0.45623  0.78892  1.0000
  H   H1977     1.0  0.27544  0.37638  0.68510  1.0000
  S   S233      1.0  0.32444  0.24750  0.93717  1.0000
  C   C1116     1.0  0.31874  0.43038  0.71293  1.0000
  C   C1117     1.0  0.29761  0.42015  0.68946  1.0000
  H   H1978     1.0  0.24908  0.05385  0.94199  1.0000
  C   C1118     1.0  0.31940  0.46678  0.67512  1.0000
  Fe  Fe117     1.0  0.31858  0.27539  0.95283  1.0000
  S   S234      1.0  0.30918  0.30691  0.93748  1.0000
  Fe  Fe118     1.0  0.33872  0.24119  0.95120  1.0000
  S   S235      1.0  0.35481  0.23572  0.92914  1.0000
  H   H1979     1.0  0.31307  0.36522  0.86717  1.0000
  C   C1119     1.0  0.47265  0.02088  0.69930  1.0000
  H   H1980     1.0  0.24548  0.00856  0.94768  1.0000
  Fe  Fe119     1.0  0.29176  0.38604  0.78738  1.0000
  S   S236      1.0  0.30827  0.37681  0.79330  1.0000
  S   S237      1.0  0.28965  0.38758  0.75513  1.0000
  Fe  Fe120     1.0  0.28174  0.39573  0.83013  1.0000
  S   S238      1.0  0.29730  0.38785  0.83993  1.0000
  S   S239      1.0  0.26665  0.40404  0.85364  1.0000
  Fe  Fe121     1.0  0.30327  0.40577  0.80726  1.0000
  S   S240      1.0  0.31536  0.42544  0.80202  1.0000
  Fe  Fe122     1.0  0.30105  0.35950  0.82543  1.0000
  S   S241      1.0  0.31009  0.32706  0.83969  1.0000
  S   S242      1.0  0.28726  0.41666  0.79885  1.0000
  S   S243      1.0  0.28493  0.36585  0.81807  1.0000
  C   C1120     1.0  0.46642  0.00310  0.70324  1.0000
  H   H1981     1.0  0.26164  0.48985  0.74426  1.0000
  Fe  Fe123     1.0  0.24016  0.41487  0.71922  1.0000
  C   C1121     1.0  0.29465  0.44236  0.73260  1.0000
  C   C1122     1.0  0.25937  0.35680  0.68532  1.0000
  S   S244      1.0  0.26606  0.03990  0.84145  1.0000
  H   H1982     1.0  0.24855  0.32011  0.72863  1.0000
  C   C1123     1.0  0.48586  0.05195  0.76571  1.0000
  Fe  Fe124     1.0  0.30991  0.10831  0.94076  1.0000
  S   S245      1.0  0.31815  0.07718  0.93090  1.0000
  S   S246      1.0  0.31145  0.14029  0.91913  1.0000
  Fe  Fe125     1.0  0.30325  0.06603  0.95032  1.0000
  S   S247      1.0  0.29733  0.04295  0.93936  1.0000
  Fe  Fe126     1.0  0.32359  0.06754  0.96140  1.0000
  H   H1983     1.0  0.48027  0.06124  0.75596  1.0000
  S   S248      1.0  0.29451  0.09808  0.95795  1.0000
  H   H1984     1.0  0.27396  0.12240  0.91823  1.0000
  Fe  Fe127     1.0  0.40593  0.09307  0.95991  1.0000
  H   H1985     1.0  0.46913  0.02824  0.74991  1.0000
  S   S249      1.0  0.42016  0.06669  0.95182  1.0000
  H   H1986     1.0  0.30135  0.47025  0.81940  1.0000
  H   H1987     1.0  0.32941  0.34842  0.89905  1.0000
  S   S250      1.0  0.39734  0.17492  0.95285  1.0000
  H   H1988     1.0  0.32361  0.14408  0.84559  1.0000
  H   H1989     1.0  0.30021  0.40678  0.87696  1.0000
  Fe  Fe128     1.0  0.38232  0.11151  0.96306  1.0000
  S   S251      1.0  0.36751  0.11821  0.95084  1.0000
  C   C1124     1.0  0.27962  0.13319  0.91375  1.0000
  S   S252      1.0  0.39676  0.12021  0.93919  1.0000
  C   C1125     1.0  0.42331  0.06147  0.92630  1.0000
  C   C1126     1.0  0.42102  0.07086  0.89016  1.0000
  C   C1127     1.0  0.41867  0.07576  0.91015  1.0000
  H   H1990     1.0  0.41742  0.08196  0.87771  1.0000
  H   H1991     1.0  0.41330  0.09059  0.91304  1.0000
  C   C1128     1.0  0.46345  0.00283  0.68304  1.0000
  C   C1129     1.0  0.34505  0.08914  0.95004  1.0000
  C   C1130     1.0  0.35118  0.10418  0.94684  1.0000
  C   C1131     1.0  0.36010  0.09877  0.95574  1.0000
  C   C1132     1.0  0.24980  0.32717  0.69407  1.0000
  C   C1133     1.0  0.24734  0.04117  0.93650  1.0000
  H   H1992     1.0  0.33824  0.09343  0.94288  1.0000
  H   H1993     1.0  0.34897  0.12009  0.93743  1.0000
  C   C1134     1.0  0.26443  0.02619  0.72521  1.0000
  H   H1994     1.0  0.28291  0.45341  0.75889  1.0000
  C   C1135     1.0  0.27167  0.06380  0.90049  1.0000
  C   C1136     1.0  0.27917  0.04456  0.89966  1.0000
  C   C1137     1.0  0.28702  0.03837  0.91166  1.0000
  C   C1138     1.0  0.28756  0.05160  0.92414  1.0000
  C   C1139     1.0  0.28027  0.07116  0.92446  1.0000
  C   C1140     1.0  0.27228  0.07715  0.91279  1.0000
  H   H1995     1.0  0.27887  0.03442  0.88987  1.0000
  H   H1996     1.0  0.29275  0.02334  0.91114  1.0000
  H   H1997     1.0  0.28062  0.08140  0.93410  1.0000
  H   H1998     1.0  0.26648  0.09207  0.91345  1.0000
  C   C1141     1.0  0.43293  0.03771  0.90215  1.0000
  C   C1142     1.0  0.27174  0.04932  0.74835  1.0000
  C   C1143     1.0  0.42814  0.05180  0.88610  1.0000
  C   C1144     1.0  0.24511  0.38598  0.82966  1.0000
  C   C1145     1.0  0.31769  0.44263  0.77703  1.0000
  C   C1146     1.0  0.32805  0.44556  0.76759  1.0000
  C   C1147     1.0  0.33012  0.45960  0.74794  1.0000
  C   C1148     1.0  0.32177  0.47169  0.73811  1.0000
  C   C1149     1.0  0.31135  0.46923  0.74780  1.0000
  C   C1150     1.0  0.30935  0.45417  0.76691  1.0000
  H   H1999     1.0  0.33453  0.43670  0.77533  1.0000
  H   H2000     1.0  0.33820  0.46132  0.74047  1.0000
  H   H2001     1.0  0.30491  0.47872  0.74035  1.0000
  H   H2002     1.0  0.30134  0.45195  0.77415  1.0000
  C   C1151     1.0  0.36588  0.21810  0.93827  1.0000
  C   C1152     1.0  0.37284  0.22608  0.94474  1.0000
  C   C1153     1.0  0.38251  0.21281  0.94907  1.0000
  C   C1154     1.0  0.38527  0.19146  0.94703  1.0000
  C   C1155     1.0  0.37829  0.18342  0.94074  1.0000
  C   C1156     1.0  0.36868  0.19680  0.93612  1.0000
  H   H2003     1.0  0.37090  0.24271  0.94572  1.0000
  H   H2004     1.0  0.36613  0.19019  0.98068  1.0000
  H   H2005     1.0  0.26043  0.37325  0.83886  1.0000
  Fe  Fe129     1.0  0.31721  0.22850  0.96813  1.0000
  C   C1157     1.0  0.30905  0.31139  0.91058  1.0000
  C   C1158     1.0  0.30171  0.32883  0.90189  1.0000
  C   C1159     1.0  0.30183  0.33355  0.88021  1.0000
  C   C1160     1.0  0.30939  0.32100  0.86706  1.0000
  C   C1161     1.0  0.31662  0.30337  0.87579  1.0000
  C   C1162     1.0  0.31646  0.29859  0.89748  1.0000
  H   H2006     1.0  0.29597  0.33882  0.91193  1.0000
  H   H2007     1.0  0.29612  0.34698  0.87369  1.0000
  H   H2008     1.0  0.32249  0.29361  0.86568  1.0000
  H   H2009     1.0  0.32230  0.28543  0.90389  1.0000
  H   H2010     1.0  0.25578  0.32058  0.68105  1.0000
  H   H2011     1.0  0.36269  0.16100  0.96726  1.0000
  C   C1163     1.0  0.30829  0.18750  0.95969  1.0000
  C   C1164     1.0  0.30261  0.17111  0.96719  1.0000
  C   C1165     1.0  0.30382  0.15634  0.95494  1.0000
  C   C1166     1.0  0.31046  0.15826  0.93479  1.0000
  C   C1167     1.0  0.31613  0.17471  0.92718  1.0000
  C   C1168     1.0  0.31518  0.18912  0.93978  1.0000
  C   C1169     1.0  0.33031  0.37048  0.82548  1.0000
  H   H2012     1.0  0.29943  0.14368  0.96096  1.0000
  H   H2013     1.0  0.32138  0.17608  0.91171  1.0000
  H   H2014     1.0  0.31972  0.20152  0.93407  1.0000
  C   C1170     1.0  0.25398  0.47434  0.85577  1.0000
  C   C1171     1.0  0.25719  0.46829  0.83628  1.0000
  C   C1172     1.0  0.26175  0.44678  0.83530  1.0000
  C   C1173     1.0  0.26256  0.43127  0.85396  1.0000
  C   C1174     1.0  0.25928  0.43736  0.87338  1.0000
  C   C1175     1.0  0.25525  0.45893  0.87423  1.0000
  H   H2015     1.0  0.25619  0.48018  0.82200  1.0000
  H   H2016     1.0  0.26418  0.44205  0.82030  1.0000
  H   H2017     1.0  0.25987  0.42535  0.88781  1.0000
  H   H2018     1.0  0.30956  0.03850  0.88917  1.0000
  C   C1176     1.0  0.25658  0.38696  0.74914  1.0000
  C   C1177     1.0  0.26298  0.39941  0.73341  1.0000
  C   C1178     1.0  0.27306  0.39950  0.73554  1.0000
  C   C1179     1.0  0.27679  0.38743  0.75356  1.0000
  C   C1180     1.0  0.27036  0.37517  0.76959  1.0000
  C   C1181     1.0  0.26027  0.37474  0.76726  1.0000
  H   H2019     1.0  0.26025  0.40897  0.71942  1.0000
  H   H2020     1.0  0.27785  0.40938  0.72333  1.0000
  H   H2021     1.0  0.27326  0.36567  0.78349  1.0000
  H   H2022     1.0  0.25534  0.36511  0.77951  1.0000
  H   H2023     1.0  0.23981  0.04606  0.72279  1.0000
  C   C1182     1.0  0.46650  0.02694  0.73613  1.0000
  C   C1183     1.0  0.26783  0.01292  0.69165  1.0000
  H   H2024     1.0  0.48118  0.04765  0.72581  1.0000
  C   C1184     1.0  0.45770  0.04716  0.73170  1.0000
  H   H2025     1.0  0.29349  0.10776  0.91449  1.0000
  H   H2026     1.0  0.25107  0.42310  0.76702  1.0000
  H   H2027     1.0  0.45072  0.04720  0.76502  1.0000
  H   H2028     1.0  0.33434  0.39282  0.85433  1.0000
  H   H2029     1.0  0.30357  0.46552  0.71219  1.0000
  C   C1185     1.0  0.26058  0.03500  0.97668  1.0000
  S   S253      1.0  0.45882  0.00773  0.86754  1.0000
  H   H2030     1.0  0.24286  0.42527  0.84641  1.0000
  H   H2031     1.0  0.28521  0.07983  0.82991  1.0000
  S   S254      1.0  0.43047  0.04569  0.86116  1.0000
  H   H2032     1.0  0.31411  0.37042  0.90322  1.0000
  H   H2033     1.0  0.25896  0.36231  0.81837  1.0000
  H   H2034     1.0  0.43803  0.09140  0.96425  1.0000
  H   H2035     1.0  0.29995  0.43514  0.74391  1.0000
  S   S255      1.0  0.24951  0.41515  0.68611  1.0000
  H   H2036     1.0  0.28391  0.09400  0.86063  1.0000
  H   H2037     1.0  0.45474  0.04780  0.71771  1.0000
  H   H2038     1.0  0.27697  0.27952  0.96814  1.0000
  H   H2039     1.0  0.46755  0.03593  0.69238  1.0000
  H   H2040     1.0  0.34320  0.31950  0.91385  1.0000
  N   N61       1.0  0.30079  0.10537  0.87080  1.0000
  C   C1186     1.0  0.25934  0.02303  0.70860  1.0000
  H   H2041     1.0  0.27466  0.04682  0.97454  1.0000
  C   C1187     1.0  0.33769  0.41330  0.71687  1.0000
  H   H2042     1.0  0.25216  0.35414  0.84534  1.0000
  C   C1188     1.0  0.23904  0.05630  0.73372  1.0000
  H   H2043     1.0  0.28870  0.47419  0.73983  1.0000
  H   H2044     1.0  0.35399  0.23587  0.98142  1.0000
  C   C1189     1.0  0.25152  0.43789  0.77081  1.0000
  C   C1190     1.0  0.34221  0.31074  0.90294  1.0000
  H   H2045     1.0  0.38792  0.21913  0.95378  1.0000
  H   H2046     1.0  0.28665  0.10721  0.82166  1.0000
  H   H2047     1.0  0.39537  0.03339  0.88479  1.0000
  H   H2048     1.0  0.37763  0.04320  0.89145  1.0000
  H   H2049     1.0  0.32371  0.03633  0.87969  1.0000
  H   H2050     1.0  0.34525  0.40279  0.71050  1.0000
  H   H2051     1.0  0.32381  0.33533  0.88706  1.0000
  N   N62       1.0  0.23948  0.42347  0.80654  1.0000
  C   C1191     1.0  0.26328  0.35868  0.70422  1.0000
  S   S256      1.0  0.32475  0.48810  0.71284  1.0000
  H   H2052     1.0  0.31406  0.16917  0.84615  1.0000
  H   H2053     1.0  0.46080  0.06170  0.72930  1.0000
  H   H2054     1.0  0.25371  0.39958  0.79900  1.0000
  H   H2055     1.0  0.47033  0.06708  0.69638  1.0000
  N   N63       1.0  0.38796  0.06952  0.90465  1.0000
  C   C1192     1.0  0.39411  0.05328  0.92004  1.0000
  C   C1193     1.0  0.39365  0.06816  0.88210  1.0000
  C   C1194     1.0  0.38765  0.09152  0.90734  1.0000
  C   C1195     1.0  0.37663  0.06703  0.90902  1.0000
  C   C1196     1.0  0.37522  0.04506  0.90806  1.0000
  C   C1197     1.0  0.38908  0.05232  0.94381  1.0000
  C   C1198     1.0  0.38225  0.11082  0.89194  1.0000
  C   C1199     1.0  0.40011  0.04588  0.87793  1.0000
  H   H2056     1.0  0.23895  0.08494  0.70839  1.0000
  C   C1200     1.0  0.36356  0.04328  0.91612  1.0000
  C   C1201     1.0  0.39621  0.03567  0.95754  1.0000
  H   H2057     1.0  0.40226  0.05620  0.91688  1.0000
  H   H2058     1.0  0.39537  0.03679  0.91788  1.0000
  H   H2059     1.0  0.38789  0.07456  0.87150  1.0000
  H   H2060     1.0  0.39959  0.07856  0.87598  1.0000
  H   H2061     1.0  0.39589  0.09329  0.90585  1.0000
  H   H2062     1.0  0.38323  0.09377  0.92336  1.0000
  H   H2063     1.0  0.37213  0.07074  0.92459  1.0000
  H   H2064     1.0  0.37231  0.07903  0.89743  1.0000
  H   H2065     1.0  0.37993  0.03160  0.91781  1.0000
  C   C1202     1.0  0.29547  0.39878  0.68935  1.0000
  H   H2066     1.0  0.38798  0.06785  0.94796  1.0000
  H   H2067     1.0  0.38125  0.04774  0.94814  1.0000
  H   H2068     1.0  0.37350  0.11210  0.89592  1.0000
  H   H2069     1.0  0.38534  0.10938  0.87527  1.0000
  H   H2070     1.0  0.40726  0.04089  0.88494  1.0000
  S   S257      1.0  0.33331  0.27040  0.96521  1.0000
  N   N64       1.0  0.31024  0.43660  0.70030  1.0000
  C   C1203     1.0  0.33480  0.36059  0.80607  1.0000
  H   H2071     1.0  0.28439  0.10621  0.88730  1.0000
  H   H2072     1.0  0.36103  0.04321  0.93324  1.0000
  H   H2073     1.0  0.35829  0.05684  0.90752  1.0000
  N   N65       1.0  0.26028  0.00901  0.95455  1.0000
  H   H2074     1.0  0.36983  0.07401  0.97479  1.0000
  H   H2075     1.0  0.26868  0.06375  0.73699  1.0000
  H   H2076     1.0  0.25278  0.46356  0.88930  1.0000
  H   H2077     1.0  0.38018  0.14541  0.88240  1.0000
  H   H2078     1.0  0.26396  0.01085  0.67997  1.0000
  H   H2079     1.0  0.33300  0.38149  0.89562  1.0000
  H   H2080     1.0  0.30618  0.14292  0.83947  1.0000
  H   H2081     1.0  0.39743  0.01950  0.95449  1.0000
  H   H2082     1.0  0.29084  0.42988  0.73180  1.0000
  C   C1204     1.0  0.34642  0.39537  0.87842  1.0000
  N   N66       1.0  0.25686  0.03348  0.74435  1.0000
  H   H2083     1.0  0.34062  0.34489  0.84257  1.0000
  H   H2084     1.0  0.33412  0.38406  0.82308  1.0000
  C   C1205     1.0  0.29362  0.46526  0.82420  1.0000
  C   C1206     1.0  0.29376  0.44824  0.84472  1.0000
  H   H2085     1.0  0.27699  0.47845  0.83595  1.0000
  H   H2086     1.0  0.25825  0.04096  0.77260  1.0000
  C   C1207     1.0  0.29031  0.11644  0.88262  1.0000
  C   C1208     1.0  0.27471  0.05698  0.76492  1.0000
  H   H2087     1.0  0.29950  0.15037  0.86427  1.0000
  C   C1209     1.0  0.30405  0.08322  0.88379  1.0000
  H   H2088     1.0  0.38038  0.16701  0.93897  1.0000
  H   H2089     1.0  0.29817  0.39937  0.90533  1.0000
  C   C1210     1.0  0.35685  0.06299  0.97091  1.0000
  H   H2090     1.0  0.31755  0.38947  0.85529  1.0000
  H   H2091     1.0  0.34855  0.39580  0.89306  1.0000
  Fe  Fe130     1.0  0.44516  0.02081  0.85117  1.0000
  H   H2092     1.0  0.31393  0.40617  0.69138  1.0000
  H   H2093     1.0  0.26437  0.06638  0.96259  1.0000
  H   H2094     1.0  0.34938  0.29765  0.90055  1.0000
  H   H2095     1.0  0.27912  0.04005  0.73975  1.0000
  H   H2096     1.0  0.32675  0.46134  0.68145  1.0000
  H   H2097     1.0  0.29297  0.45737  0.81231  1.0000
  H   H2098     1.0  0.30746  0.45443  0.66953  1.0000
  H   H2099     1.0  0.29446  0.45497  0.85748  1.0000
  H   H2100     1.0  0.28639  0.44181  0.84975  1.0000
  H   H2101     1.0  0.30070  0.43476  0.84220  1.0000
  C   C1211     1.0  0.40405  0.04657  0.85429  1.0000
  C   C1212     1.0  0.24849  0.40560  0.81303  1.0000
  H   H2102     1.0  0.31725  0.39613  0.88898  1.0000
  H   H2103     1.0  0.34355  0.35449  0.80398  1.0000
  H   H2104     1.0  0.46277  0.01286  0.74193  1.0000
  H   H2105     1.0  0.30540  0.08409  0.89900  1.0000
  C   C1213     1.0  0.43051  0.04254  0.92219  1.0000
  C   C1214     1.0  0.24396  0.01937  0.77854  1.0000
  H   H2106     1.0  0.40901  0.05873  0.84676  1.0000
  C   C1215     1.0  0.30710  0.41661  0.70000  1.0000
  H   H2107     1.0  0.25830  0.37297  0.71019  1.0000
  S   S258      1.0  0.34002  0.04995  0.96616  1.0000
  S   S259      1.0  0.25557  0.01446  0.88885  1.0000
  H   H2108     1.0  0.32140  0.07541  0.87154  1.0000
  H   H2109     1.0  0.24432  0.35505  0.72238  1.0000
  N   N67       1.0  0.29248  0.25325  0.91434  1.0000
  C   C1216     1.0  0.28799  0.26479  0.89500  1.0000
  C   C1217     1.0  0.28910  0.23208  0.92314  1.0000
  C   C1218     1.0  0.28749  0.26675  0.93075  1.0000
  C   C1219     1.0  0.30447  0.24999  0.91009  1.0000
  C   C1220     1.0  0.31085  0.24689  0.88768  1.0000
  C   C1221     1.0  0.28898  0.28852  0.88660  1.0000
  C   C1222     1.0  0.28992  0.25673  0.95299  1.0000
  C   C1223     1.0  0.29291  0.21583  0.90862  1.0000
  C   C1224     1.0  0.28765  0.19661  0.91830  1.0000
  C   C1225     1.0  0.32282  0.23971  0.88674  1.0000
  C   C1226     1.0  0.28767  0.29691  0.86379  1.0000
  C   C1227     1.0  0.28565  0.27302  0.96711  1.0000
  H   H2110     1.0  0.27935  0.26473  0.89835  1.0000
  H   H2111     1.0  0.29169  0.25639  0.88183  1.0000
  H   H2112     1.0  0.29222  0.22334  0.93756  1.0000
  H   H2113     1.0  0.28024  0.23489  0.92814  1.0000
  H   H2114     1.0  0.27865  0.27108  0.93276  1.0000
  H   H2115     1.0  0.29019  0.28218  0.92548  1.0000
  H   H2116     1.0  0.30674  0.26386  0.91253  1.0000
  H   H2117     1.0  0.30770  0.23609  0.92189  1.0000
  H   H2118     1.0  0.30955  0.26220  0.87590  1.0000
  H   H2119     1.0  0.30845  0.23488  0.88252  1.0000
  H   H2120     1.0  0.28269  0.29879  0.89639  1.0000
  H   H2121     1.0  0.29679  0.29047  0.88741  1.0000
  H   H2122     1.0  0.29863  0.25111  0.95194  1.0000
  H   H2123     1.0  0.28601  0.24304  0.96100  1.0000
  H   H2124     1.0  0.29101  0.22292  0.89286  1.0000
  H   H2125     1.0  0.30164  0.20958  0.90676  1.0000
  H   H2126     1.0  0.28890  0.18930  0.93456  1.0000
  H   H2127     1.0  0.27896  0.20155  0.91881  1.0000
  H   H2128     1.0  0.29124  0.18425  0.90866  1.0000
  H   H2129     1.0  0.32579  0.25189  0.89056  1.0000
  H   H2130     1.0  0.32466  0.22416  0.89793  1.0000
  H   H2131     1.0  0.32711  0.23768  0.87056  1.0000
  H   H2132     1.0  0.27994  0.29503  0.86224  1.0000
  H   H2133     1.0  0.28788  0.31419  0.85882  1.0000
  H   H2134     1.0  0.29431  0.28828  0.85308  1.0000
  H   H2135     1.0  0.27756  0.46436  0.70078  1.0000
  C   C1228     1.0  0.36296  0.07817  0.96783  1.0000
  H   H2136     1.0  0.26997  0.01085  0.73031  1.0000
  C   C1229     1.0  0.44820  0.04756  0.75053  1.0000
  H   H2137     1.0  0.34520  0.36256  0.88979  1.0000
  C   C1230     1.0  0.28579  0.45957  0.74178  1.0000
  Fe  Fe131     1.0  0.25733  0.04809  0.87278  1.0000
  C   C1231     1.0  0.27998  0.49151  0.79288  1.0000
  H   H2138     1.0  0.25381  0.41154  0.81913  1.0000
  H   H2139     1.0  0.27744  0.04328  0.77733  1.0000
  H   H2140     1.0  0.40907  0.03073  0.85184  1.0000
  H   H2141     1.0  0.29748  0.07456  0.88830  1.0000
  H   H2142     1.0  0.43837  0.02293  0.89922  1.0000
  H   H2143     1.0  0.34516  0.37060  0.85252  1.0000
  C   C1232     1.0  0.26319  0.43711  0.76964  1.0000
  H   H2144     1.0  0.24888  0.45117  0.75797  1.0000
  S   S260      1.0  0.24606  0.06608  0.80360  1.0000
  H   H2145     1.0  0.31389  0.06732  0.85780  1.0000
  H   H2146     1.0  0.27992  0.00701  0.81613  1.0000
  H   H2147     1.0  0.29730  0.16973  0.98261  1.0000
  H   H2148     1.0  0.39278  0.13176  0.88944  1.0000
  C   C1233     1.0  0.31593  0.15212  0.85444  1.0000
  C   C1234     1.0  0.25478  0.36786  0.83321  1.0000
  C   C1235     1.0  0.31418  0.44777  0.67784  1.0000
  H   H2149     1.0  0.32731  0.34159  0.84831  1.0000
  H   H2150     1.0  0.33284  0.42360  0.68732  1.0000
  H   H2151     1.0  0.31160  0.11618  0.88224  1.0000
  C   C1236     1.0  0.29047  0.09066  0.82871  1.0000
  H   H2152     1.0  0.31591  0.42123  0.72910  1.0000
  H   H2153     1.0  0.24921  0.01307  0.79010  1.0000
  H   H2154     1.0  0.44204  0.06240  0.74731  1.0000
  Fe  Fe132     1.0  0.39658  0.14019  0.96117  1.0000
  H   H2155     1.0  0.29598  0.13348  0.89978  1.0000
  H   H2156     1.0  0.26281  0.34462  0.71750  1.0000
  S   S261      1.0  0.45565  0.02932  0.81908  1.0000
  H   H2157     1.0  0.32166  0.37683  0.82619  1.0000
  H   H2158     1.0  0.26659  0.03776  0.94282  1.0000
  C   C1237     1.0  0.25277  0.29056  0.71849  1.0000
  C   C1238     1.0  0.34090  0.32585  0.88173  1.0000
  H   H2159     1.0  0.30520  0.40682  0.71632  1.0000
  S   S262      1.0  0.31024  0.25692  0.98296  1.0000
  H   H2160     1.0  0.24438  0.28936  0.72083  1.0000
  H   H2161     1.0  0.30367  0.48771  0.78657  1.0000
  C   C1239     1.0  0.30152  0.39324  0.89059  1.0000
  H   H2162     1.0  0.29517  0.45921  0.69999  1.0000
  H   H2163     1.0  0.31384  0.47921  0.68329  1.0000
  H   H2164     1.0  0.27652  0.14827  0.90309  1.0000
  C   C1240     1.0  0.31341  0.38337  0.88894  1.0000
  H   H2165     1.0  0.33094  0.34725  0.80763  1.0000
  H   H2166     1.0  0.29581  0.12058  0.84134  1.0000
  H   H2167     1.0  0.32840  0.40021  0.70436  1.0000
  H   H2168     1.0  0.28025  0.34758  0.69178  1.0000
  H   H2169     1.0  0.26401  0.45205  0.77274  1.0000
  S   S263      1.0  0.33202  0.21927  0.98071  1.0000
  H   H2170     1.0  0.28015  0.13717  0.92831  1.0000
  H   H2171     1.0  0.33316  0.37295  0.79178  1.0000
  H   H2172     1.0  0.24509  0.01541  0.74718  1.0000
  H   H2173     1.0  0.27901  0.46393  0.73391  1.0000
  C   C1241     1.0  0.34781  0.06859  0.96219  1.0000
  C   C1242     1.0  0.31434  0.06882  0.87346  1.0000
  Fe  Fe133     1.0  0.25085  0.44794  0.68604  1.0000
  H   H2174     1.0  0.33517  0.30341  0.91039  1.0000
  N   N68       1.0  0.47590  0.02327  0.71813  1.0000
  H   H2175     1.0  0.27413  0.01695  0.95874  1.0000
  H   H2176     1.0  0.38070  0.13480  0.90972  1.0000
  H   H2177     1.0  0.26647  0.42314  0.78123  1.0000
  S   S264      1.0  0.24387  0.38737  0.74619  1.0000
  C   C1243     1.0  0.29929  0.10434  0.84977  1.0000
  H   H2178     1.0  0.34154  0.41130  0.87258  1.0000
  C   C1244     1.0  0.29194  0.08945  0.85068  1.0000
  H   H2179     1.0  0.28692  0.26514  0.98328  1.0000
  C   C1245     1.0  0.25348  0.31393  0.71455  1.0000
  H   H2180     1.0  0.31702  0.04670  0.90304  1.0000
  H   H2181     1.0  0.40408  0.03990  0.95430  1.0000
  H   H2182     1.0  0.24876  0.44734  0.80049  1.0000
  H   H2183     1.0  0.30711  0.09937  0.83920  1.0000
  H   H2184     1.0  0.26958  0.03780  0.71649  1.0000
  H   H2185     1.0  0.34800  0.33304  0.87492  1.0000
  H   H2186     1.0  0.48223  0.08425  0.70620  1.0000
  H   H2187     1.0  0.29536  0.07247  0.85718  1.0000
  H   H2188     1.0  0.33935  0.42900  0.71615  1.0000
  H   H2189     1.0  0.47139  0.01426  0.89753  1.0000
  H   H2190     1.0  0.29825  0.08555  0.81819  1.0000
  H   H2191     1.0  0.25198  0.04204  0.97750  1.0000
  C   C1246     1.0  0.48333  0.00257  0.72564  1.0000
  C   C1247     1.0  0.30089  0.45185  0.71045  1.0000
  H   H2192     1.0  0.25938  0.37271  0.67420  1.0000
  C   C1248     1.0  0.24393  0.36113  0.67054  1.0000
  H   H2193     1.0  0.24001  0.37819  0.70394  1.0000
  H   H2194     1.0  0.31689  0.10985  0.85712  1.0000
  C   C1249     1.0  0.38413  0.13192  0.89352  1.0000
  H   H2195     1.0  0.28821  0.40177  0.68311  1.0000
  H   H2196     1.0  0.26785  0.01870  0.76505  1.0000
  H   H2197     1.0  0.43417  0.03146  0.93458  1.0000
  H   H2198     1.0  0.35390  0.39210  0.86639  1.0000
  H   H2199     1.0  0.29926  0.42902  0.67282  1.0000
  H   H2200     1.0  0.36351  0.19071  0.93048  1.0000
  C   C1250     1.0  0.48461  0.07819  0.69142  1.0000
  C   C1251     1.0  0.25538  0.49214  0.73552  1.0000
  H   H2201     1.0  0.27363  0.02327  0.68329  1.0000
  H   H2202     1.0  0.28990  0.28642  0.96086  1.0000
  S   S265      1.0  0.30944  0.05379  0.98019  1.0000
  C   C1252     1.0  0.26621  0.00121  0.93461  1.0000
  H   H2203     1.0  0.26793  0.43557  0.75360  1.0000
  C   C1253     1.0  0.24417  0.44196  0.79228  1.0000
  H   H2204     1.0  0.32041  0.44489  0.71531  1.0000
  S   S266      1.0  0.31673  0.09971  0.96940  1.0000
  H   H2205     1.0  0.34066  0.31599  0.87105  1.0000
  H   H2206     1.0  0.29715  0.38105  0.89108  1.0000
  H   H2207     1.0  0.27426  0.48093  0.80126  1.0000
  C   C1254     1.0  0.48195  0.04107  0.71187  1.0000
  H   H2208     1.0  0.44460  0.03354  0.75345  1.0000
  C   C1255     1.0  0.31624  0.04624  0.88722  1.0000
  H   H2209     1.0  0.28121  0.06579  0.75728  1.0000
  S   S267      1.0  0.26135  0.07156  0.88668  1.0000
  H   H2210     1.0  0.47369  0.04814  0.79420  1.0000
  N   N69       1.0  0.32969  0.36224  0.86569  1.0000
  C   C1256     1.0  0.33049  0.34335  0.88415  1.0000
  C   C1257     1.0  0.31834  0.37502  0.86834  1.0000
  C   C1258     1.0  0.33215  0.35362  0.84596  1.0000
  C   C1259     1.0  0.33737  0.37628  0.86289  1.0000
  C   C1260     1.0  0.34016  0.37791  0.88317  1.0000
  H   H2211     1.0  0.24012  0.45240  0.83130  1.0000
  C   C1261     1.0  0.24893  0.01940  0.95255  1.0000
  H   H2212     1.0  0.28722  0.48034  0.78649  1.0000
  H   H2213     1.0  0.25518  0.03872  0.70052  1.0000
  C   C1262     1.0  0.24995  0.05539  0.73815  1.0000
  H   H2214     1.0  0.33476  0.40577  0.73364  1.0000
  H   H2215     1.0  0.23968  0.37955  0.82449  1.0000
  H   H2216     1.0  0.39240  0.03520  0.97446  1.0000
  C   C1263     1.0  0.26580  0.02474  0.95721  1.0000
  H   H2217     1.0  0.25262  0.04000  0.92089  1.0000
  C   C1264     1.0  0.30943  0.11738  0.86708  1.0000
  H   H2218     1.0  0.24811  0.06463  0.75067  1.0000
  H   H2219     1.0  0.28675  0.13131  0.87224  1.0000
  H   H2220     1.0  0.31678  0.15156  0.87052  1.0000
  H   H2221     1.0  0.25441  0.06501  0.72394  1.0000
  H   H2222     1.0  0.29416  0.38868  0.70558  1.0000
  C   C1265     1.0  0.27578  0.47834  0.68861  1.0000
  C   C1266     1.0  0.32947  0.41632  0.70385  1.0000
  H   H2223     1.0  0.26772  0.06793  0.77253  1.0000
  Fe  Fe134     1.0  0.24976  0.04688  0.83478  1.0000
  Fe  Fe135     1.0  0.26295  0.00700  0.85689  1.0000
  C   C1267     1.0  0.25055  0.01655  0.75629  1.0000
  C   C1268     1.0  0.26348  0.03492  0.75857  1.0000
  C   C1269     1.0  0.47900  0.06026  0.69374  1.0000
  S   S268      1.0  0.26768  0.45275  0.67470  1.0000
  H   H2224     1.0  0.27722  0.36328  0.71142  1.0000
  H   H2225     1.0  0.31992  0.43619  0.66869  1.0000
  H   H2226     1.0  0.36259  0.02807  0.91389  1.0000
  H   H2227     1.0  0.24048  0.03645  0.77869  1.0000
  H   H2228     1.0  0.24791  0.48933  0.74707  1.0000
  H   H2229     1.0  0.25804  0.48019  0.72541  1.0000
  H   H2230     1.0  0.48241  0.09167  0.67833  1.0000
  H   H2231     1.0  0.34915  0.17655  0.96986  1.0000
  H   H2232     1.0  0.28617  0.49172  0.83895  1.0000
  Fe  Fe136     1.0  0.24020  0.02303  0.87805  1.0000
  Fe  Fe137     1.0  0.46927  0.01356  0.83508  1.0000
  C   C1270     1.0  0.29065  0.12229  0.90308  1.0000
  H   H2233     1.0  0.24104  0.39041  0.84506  1.0000
  S   S269      1.0  0.40740  0.11416  0.97934  1.0000
  H   H2234     1.0  0.29021  0.42934  0.69794  1.0000
  S   S270      1.0  0.24746  0.01317  0.84725  1.0000
  H   H2235     1.0  0.26568  0.34524  0.67698  1.0000
  H   H2236     1.0  0.33406  0.14066  0.97170  1.0000
  C   C1271     1.0  0.30696  0.14133  0.85580  1.0000
  S   S271      1.0  0.24115  0.05749  0.86493  1.0000
  S   S272      1.0  0.30612  0.20610  0.97535  1.0000
  H   H2237     1.0  0.28357  0.00690  0.77808  1.0000
  C   C1272     1.0  0.48212  0.04444  0.78737  1.0000
  H   H2238     1.0  0.25599  0.00039  0.75844  1.0000
  S   S273      1.0  0.48477  0.02408  0.82751  1.0000
  C   C1273     1.0  0.28431  0.48476  0.82754  1.0000
  H   H2239     1.0  0.45812  0.01822  0.67742  1.0000
  H   H2240     1.0  0.39723  0.05039  0.84654  1.0000
  C   C1274     1.0  0.27006  0.47743  0.67451  1.0000
  H   H2241     1.0  0.30229  0.38994  0.67914  1.0000
  H   H2242     1.0  0.45890  0.00574  0.71525  1.0000
  C   C1275     1.0  0.27477  0.36162  0.69761  1.0000
  H   H2243     1.0  0.32035  0.13840  0.98030  1.0000
  C   C1276     1.0  0.24103  0.36046  0.70795  1.0000
  H   H2244     1.0  0.26706  0.01501  0.92106  1.0000
  H   H2245     1.0  0.25368  0.01229  0.71573  1.0000
  C   C1277     1.0  0.35476  0.16344  0.97809  1.0000
  H   H2246     1.0  0.26194  0.31398  0.71301  1.0000
  H   H2247     1.0  0.23888  0.40503  0.78488  1.0000
  H   H2248     1.0  0.25570  0.28128  0.73296  1.0000
  H   H2249     1.0  0.35900  0.04705  0.98027  1.0000
  C   C1278     1.0  0.26591  0.05281  0.97607  1.0000
  H   H2250     1.0  0.35186  0.14839  0.98196  1.0000
  H   H2251     1.0  0.44539  0.10619  0.97156  1.0000
  H   H2252     1.0  0.47074  0.99990  0.67048  1.0000
  C   C1279     1.0  0.47727  0.99895  0.90081  1.0000
  H   H2253     1.0  0.24373  0.02186  0.96809  1.0000
  S   S274      1.0  0.39138  0.08276  0.98223  1.0000
  C   C1280     1.0  0.43801  0.09985  0.97637  1.0000
  H   H2254     1.0  0.48120  0.99975  0.91298  1.0000
  H   H2255     1.0  0.48193  0.99956  0.75950  1.0000
  H   H2256     1.0  0.27214  0.99689  0.69884  1.0000
  H   H2257     1.0  0.43105  0.11359  0.97691  1.0000
  S   S275      1.0  0.38174  0.13280  0.98386  1.0000
  Fe  Fe138     1.0  0.30215  0.08679  0.98598  1.0000
  H   H2258     1.0  0.35269  0.20232  0.98701  1.0000
  N   N70       1.0  0.24860  0.35109  0.68993  1.0000
  H   H2259     1.0  0.24212  0.37895  0.66800  1.0000
  H   H2260     1.0  0.25775  0.28332  0.70500  1.0000
  H   H2261     1.0  0.25506  0.99653  0.98790  1.0000
  C   C1281     1.0  0.32770  0.13665  0.98577  1.0000
  H   H2262     1.0  0.36446  0.25988  0.98518  1.0000
  H   H2263     1.0  0.24223  0.32329  0.69396  1.0000
  Fe  Fe139     1.0  0.45619  0.99628  0.81614  1.0000
  C   C1282     1.0  0.48545  0.99566  0.88046  1.0000
  H   H2264     1.0  0.28293  0.99620  0.93680  1.0000
  H   H2265     1.0  0.48105  0.99514  0.86902  1.0000
  H   H2266     1.0  0.26184  0.49440  0.77894  1.0000
  Fe  Fe140     1.0  0.25102  0.54684  0.26735  1.0000
  C   C1283     1.0  0.33151  0.62115  0.29816  1.0000
  H   H2267     1.0  0.37282  0.60694  0.26571  1.0000
  Fe  Fe141     1.0  0.26571  0.53874  0.22569  1.0000
  S   S276      1.0  0.26500  0.57361  0.21174  1.0000
  H   H2268     1.0  0.27804  0.88461  0.20721  1.0000
  Fe  Fe142     1.0  0.26718  0.57421  0.24335  1.0000
  S   S277      1.0  0.28054  0.58747  0.24549  1.0000
  C   C1284     1.0  0.24593  0.63609  0.15518  1.0000
  Fe  Fe143     1.0  0.24754  0.57771  0.22662  1.0000
  S   S278      1.0  0.26880  0.53901  0.25654  1.0000
  H   H2269     1.0  0.25015  0.62493  0.16738  1.0000
  H   H2270     1.0  0.25284  0.81391  0.30600  1.0000
  H   H2271     1.0  0.36139  0.61374  0.25378  1.0000
  H   H2272     1.0  0.31682  0.49716  0.31789  1.0000
  C   C1285     1.0  0.29132  0.89879  0.30765  1.0000
  C   C1286     1.0  0.45633  0.95030  0.28944  1.0000
  C   C1287     1.0  0.25744  0.82310  0.29173  1.0000
  H   H2273     1.0  0.28976  0.49893  0.24690  1.0000
  H   H2274     1.0  0.24151  0.49612  0.23854  1.0000
  H   H2275     1.0  0.35051  0.63243  0.28261  1.0000
  H   H2276     1.0  0.29300  0.94108  0.30393  1.0000
  H   H2277     1.0  0.27465  0.91382  0.30794  1.0000
  H   H2278     1.0  0.43205  0.92805  0.30776  1.0000
  C   C1288     1.0  0.27261  0.89981  0.21056  1.0000
  C   C1289     1.0  0.29054  0.88076  0.29859  1.0000
  S   S279      1.0  0.33481  0.51789  0.31263  1.0000
  S   S280      1.0  0.27622  0.51513  0.20660  1.0000
  H   H2279     1.0  0.29469  0.52361  0.22027  1.0000
  H   H2280     1.0  0.27354  0.91184  0.25696  1.0000
  H   H2281     1.0  0.24858  0.62942  0.14075  1.0000
  C   C1290     1.0  0.24528  0.84849  0.22963  1.0000
  H   H2282     1.0  0.25129  0.96037  0.00655  1.0000
  H   H2283     1.0  0.26214  0.81201  0.28120  1.0000
  C   C1291     1.0  0.33270  0.49969  0.30008  1.0000
  H   H2284     1.0  0.29377  0.97581  0.11857  1.0000
  H   H2285     1.0  0.29516  0.91022  0.29441  1.0000
  H   H2286     1.0  0.28136  0.93873  0.28119  1.0000
  H   H2287     1.0  0.28022  0.97474  0.25864  1.0000
  C   C1292     1.0  0.47022  0.97636  0.28601  1.0000
  H   H2288     1.0  0.36298  0.58776  0.30114  1.0000
  C   C1293     1.0  0.26710  0.92300  0.26454  1.0000
  C   C1294     1.0  0.28187  0.58222  0.27170  1.0000
  C   C1295     1.0  0.29121  0.58406  0.27608  1.0000
  C   C1296     1.0  0.29225  0.57990  0.29709  1.0000
  C   C1297     1.0  0.28379  0.57474  0.31371  1.0000
  C   C1298     1.0  0.27447  0.57306  0.30922  1.0000
  C   C1299     1.0  0.27359  0.57635  0.28831  1.0000
  H   H2289     1.0  0.29757  0.58885  0.26323  1.0000
  H   H2290     1.0  0.28283  0.96106  0.31446  1.0000
  H   H2291     1.0  0.31792  0.49583  0.24292  1.0000
  H   H2292     1.0  0.26636  0.57495  0.28506  1.0000
  S   S281      1.0  0.26304  0.88841  0.29544  1.0000
  H   H2293     1.0  0.44656  0.99380  0.31159  1.0000
  H   H2294     1.0  0.24462  0.96352  0.29220  1.0000
  C   C1300     1.0  0.45799  0.96669  0.27154  1.0000
  H   H2295     1.0  0.48551  0.90480  0.21690  1.0000
  H   H2296     1.0  0.23846  0.88374  0.27563  1.0000
  S   S282      1.0  0.23823  0.98269  0.21222  1.0000
  H   H2297     1.0  0.26891  0.90838  0.19684  1.0000
  C   C1301     1.0  0.29606  0.55494  0.18739  1.0000
  C   C1302     1.0  0.33587  0.59994  0.31269  1.0000
  N   N71       1.0  0.30519  0.52407  0.23959  1.0000
  C   C1303     1.0  0.35777  0.62014  0.28530  1.0000
  H   H2298     1.0  0.29943  0.58146  0.30042  1.0000
  C   C1304     1.0  0.30899  0.54116  0.24454  1.0000
  C   C1305     1.0  0.25599  0.85521  0.26114  1.0000
  H   H2299     1.0  0.45377  0.96948  0.25915  1.0000
  C   C1306     1.0  0.30224  0.55065  0.20460  1.0000
  C   C1307     1.0  0.31586  0.53338  0.26151  1.0000
  H   H2300     1.0  0.47545  0.98665  0.28486  1.0000
  H   H2301     1.0  0.36179  0.62604  0.29422  1.0000
  H   H2302     1.0  0.34460  0.63088  0.31856  1.0000
  C   C1308     1.0  0.46162  0.94680  0.30566  1.0000
  C   C1309     1.0  0.32145  0.55057  0.26144  1.0000
  H   H2303     1.0  0.29035  0.54501  0.23320  1.0000
  C   C1310     1.0  0.24746  0.50923  0.31105  1.0000
  H   H2304     1.0  0.30420  0.50560  0.27172  1.0000
  H   H2305     1.0  0.29233  0.52479  0.26723  1.0000
  H   H2306     1.0  0.30206  0.55373  0.24988  1.0000
  H   H2307     1.0  0.31385  0.54953  0.23004  1.0000
  C   C1311     1.0  0.31308  0.49730  0.21427  1.0000
  H   H2308     1.0  0.28639  0.86910  0.31105  1.0000
  S   S283      1.0  0.24814  0.54255  0.23783  1.0000
  C   C1312     1.0  0.29767  0.53524  0.22491  1.0000
  H   H2309     1.0  0.30164  0.56627  0.20833  1.0000
  H   H2310     1.0  0.31076  0.54421  0.19814  1.0000
  H   H2311     1.0  0.32205  0.51880  0.25884  1.0000
  H   H2312     1.0  0.31073  0.52977  0.27753  1.0000
  N   N72       1.0  0.34658  0.59759  0.31746  1.0000
  H   H2313     1.0  0.33137  0.63533  0.30386  1.0000
  C   C1313     1.0  0.32008  0.62228  0.29708  1.0000
  H   H2314     1.0  0.26161  0.84426  0.25117  1.0000
  C   C1314     1.0  0.24100  0.86629  0.24248  1.0000
  H   H2315     1.0  0.26198  0.86893  0.22063  1.0000
  H   H2316     1.0  0.29149  0.96390  0.09969  1.0000
  H   H2317     1.0  0.23936  0.82924  0.21608  1.0000
  C   C1315     1.0  0.26406  0.89541  0.23060  1.0000
  H   H2318     1.0  0.32603  0.54471  0.27412  1.0000
  H   H2319     1.0  0.32710  0.55426  0.24609  1.0000
  H   H2320     1.0  0.31553  0.56540  0.26443  1.0000
  H   H2321     1.0  0.48128  0.91492  0.24074  1.0000
  C   C1316     1.0  0.26071  0.91575  0.28405  1.0000
  C   C1317     1.0  0.25626  0.95415  0.99246  1.0000
  H   H2322     1.0  0.26995  0.95016  0.23933  1.0000
  H   H2323     1.0  0.30097  0.99313  0.08158  1.0000
  Fe  Fe144     1.0  0.25009  0.96536  0.18843  1.0000
  C   C1318     1.0  0.26509  0.94467  0.25457  1.0000
  H   H2324     1.0  0.48447  0.97922  0.22556  1.0000
  H   H2325     1.0  0.45086  0.94043  0.29079  1.0000
  H   H2326     1.0  0.32144  0.51668  0.22155  1.0000
  H   H2327     1.0  0.29866  0.87217  0.29204  1.0000
  C   C1319     1.0  0.25695  0.95924  0.26451  1.0000
  H   H2328     1.0  0.24986  0.85472  0.21370  1.0000
  C   C1320     1.0  0.29906  0.51290  0.26005  1.0000
  H   H2329     1.0  0.24812  0.65185  0.15159  1.0000
  C   C1321     1.0  0.24976  0.84131  0.28048  1.0000
  C   C1322     1.0  0.25087  0.95218  0.28452  1.0000
  H   H2330     1.0  0.48580  0.94312  0.20884  1.0000
  H   H2331     1.0  0.27062  0.95784  0.29305  1.0000
  C   C1323     1.0  0.24387  0.89034  0.26098  1.0000
  C   C1324     1.0  0.27940  0.95242  0.28896  1.0000
  H   H2332     1.0  0.26295  0.82953  0.29674  1.0000
  H   H2333     1.0  0.28757  0.56216  0.19308  1.0000
  H   H2334     1.0  0.29658  0.53984  0.18276  1.0000
  H   H2335     1.0  0.24059  0.91611  0.23298  1.0000
  H   H2336     1.0  0.26817  0.88683  0.24369  1.0000
  H   H2337     1.0  0.46621  0.85968  0.31568  1.0000
  N   N73       1.0  0.24937  0.87353  0.24815  1.0000
  H   H2338     1.0  0.25930  0.91113  0.23390  1.0000
  C   C1325     1.0  0.46873  0.95954  0.30377  1.0000
  H   H2339     1.0  0.33639  0.62204  0.28184  1.0000
  S   S284      1.0  0.24854  0.93298  0.18708  1.0000
  C   C1326     1.0  0.25673  0.88224  0.22810  1.0000
  H   H2340     1.0  0.24775  0.92475  0.30939  1.0000
  C   C1327     1.0  0.28937  0.97866  0.10594  1.0000
  H   H2341     1.0  0.27057  0.50986  0.31789  1.0000
  S   S285      1.0  0.26446  0.96843  0.19743  1.0000
  H   H2342     1.0  0.26460  0.94775  0.99453  1.0000
  H   H2343     1.0  0.31714  0.63746  0.28635  1.0000
  H   H2344     1.0  0.28613  0.88740  0.28566  1.0000
  H   H2345     1.0  0.29941  0.56627  0.17326  1.0000
  S   S286      1.0  0.24957  0.58232  0.25692  1.0000
  C   C1328     1.0  0.25264  0.93032  0.29419  1.0000
  C   C1329     1.0  0.28016  0.90980  0.31879  1.0000
  H   H2346     1.0  0.42180  0.91876  0.30249  1.0000
  H   H2347     1.0  0.31472  0.62188  0.31298  1.0000
  H   H2348     1.0  0.27989  0.49832  0.28284  1.0000
  S   S287      1.0  0.24115  0.53462  0.29910  1.0000
  H   H2349     1.0  0.25219  0.89239  0.21602  1.0000
  H   H2350     1.0  0.47282  0.95673  0.31628  1.0000
  H   H2351     1.0  0.24129  0.55978  0.19616  1.0000
  H   H2352     1.0  0.24978  0.89499  0.26663  1.0000
  C   C1330     1.0  0.35527  0.59799  0.29759  1.0000
  H   H2353     1.0  0.27737  0.91006  0.21266  1.0000
  C   C1331     1.0  0.46475  0.98003  0.26999  1.0000
  H   H2354     1.0  0.26118  0.86134  0.26737  1.0000
  C   C1332     1.0  0.25612  0.49722  0.29922  1.0000
  H   H2355     1.0  0.33607  0.58716  0.30482  1.0000
  H   H2356     1.0  0.24475  0.85102  0.29207  1.0000
  H   H2357     1.0  0.24458  0.83382  0.27578  1.0000
  H   H2358     1.0  0.25054  0.83441  0.23760  1.0000
  H   H2359     1.0  0.36710  0.63456  0.25560  1.0000
  C   C1333     1.0  0.31474  0.50853  0.23014  1.0000
  H   H2360     1.0  0.31167  0.50901  0.19952  1.0000
  C   C1334     1.0  0.36523  0.61866  0.26380  1.0000
  H   H2361     1.0  0.25886  0.50341  0.28258  1.0000
  H   H2362     1.0  0.35311  0.55688  0.30797  1.0000
  H   H2363     1.0  0.31972  0.60869  0.29094  1.0000
  C   C1335     1.0  0.28380  0.97069  0.27266  1.0000
  H   H2364     1.0  0.28067  0.98195  0.11296  1.0000
  H   H2365     1.0  0.44242  0.98229  0.03515  1.0000
  H   H2366     1.0  0.28174  0.98520  0.27929  1.0000
  H   H2367     1.0  0.29259  0.96589  0.26746  1.0000
  C   C1336     1.0  0.28418  0.94608  0.30890  1.0000
  H   H2368     1.0  0.23950  0.51743  0.21570  1.0000
  H   H2369     1.0  0.29664  0.89159  0.31896  1.0000
  H   H2370     1.0  0.35341  0.59064  0.28643  1.0000
  C   C1337     1.0  0.42468  0.92175  0.31511  1.0000
  H   H2371     1.0  0.24272  0.93472  0.25737  1.0000
  S   S288      1.0  0.25427  0.98618  0.25177  1.0000
  H   H2372     1.0  0.26318  0.49595  0.24516  1.0000
  H   H2373     1.0  0.25313  0.94080  0.99126  1.0000
  Fe  Fe145     1.0  0.25267  0.98826  0.21899  1.0000
  H   H2374     1.0  0.23761  0.89879  0.19791  1.0000
  H   H2375     1.0  0.34815  0.49902  0.27930  1.0000
  S   S289      1.0  0.25030  0.99418  0.16165  1.0000
  H   H2376     1.0  0.44372  0.88947  0.64356  1.0000
  S   S290      1.0  0.30646  0.50276  0.41363  1.0000
  Fe  Fe146     1.0  0.36722  0.67601  0.58615  1.0000
  S   S291      1.0  0.37448  0.66081  0.61452  1.0000
  S   S292      1.0  0.37452  0.66563  0.55493  1.0000
  Fe  Fe147     1.0  0.35015  0.70655  0.60967  1.0000
  H   H2377     1.0  0.26027  0.77219  0.39622  1.0000
  S   S293      1.0  0.33634  0.73383  0.60384  1.0000
  Fe  Fe148     1.0  0.37208  0.69428  0.61922  1.0000
  S   S294      1.0  0.38597  0.70382  0.62535  1.0000
  Fe  Fe149     1.0  0.35762  0.66153  0.63301  1.0000
  H   H2378     1.0  0.45342  0.97675  0.34884  1.0000
  S   S295      1.0  0.36628  0.70926  0.58912  1.0000
  S   S296      1.0  0.35058  0.67446  0.60431  1.0000
  Fe  Fe150     1.0  0.34909  0.66370  0.46616  1.0000
  S   S297      1.0  0.36401  0.64485  0.44888  1.0000
  S   S298      1.0  0.34345  0.65965  0.50163  1.0000
  Fe  Fe151     1.0  0.34312  0.69124  0.42550  1.0000
  S   S299      1.0  0.35754  0.67463  0.40531  1.0000
  S   S300      1.0  0.33252  0.71926  0.40885  1.0000
  Fe  Fe152     1.0  0.35364  0.64429  0.42743  1.0000
  S   S301      1.0  0.35429  0.61402  0.41629  1.0000
  Fe  Fe153     1.0  0.36627  0.67721  0.42840  1.0000
  S   S302      1.0  0.38125  0.69109  0.41673  1.0000
  S   S303      1.0  0.33859  0.66104  0.44637  1.0000
  S   S304      1.0  0.35199  0.69574  0.44700  1.0000
  C   C1338     1.0  0.35315  0.61183  0.59703  1.0000
  C   C1339     1.0  0.40542  0.69754  0.47400  1.0000
  Fe  Fe154     1.0  0.24862  0.85424  0.36880  1.0000
  S   S305      1.0  0.25718  0.84138  0.39567  1.0000
  H   H2379     1.0  0.28631  0.81743  0.46383  1.0000
  S   S306      1.0  0.48461  0.92863  0.34745  1.0000
  S   S307      1.0  0.32682  0.89479  0.56658  1.0000
  Fe  Fe155     1.0  0.33435  0.84467  0.60927  1.0000
  S   S308      1.0  0.34386  0.84888  0.57608  1.0000
  C   C1340     1.0  0.39607  0.74995  0.63888  1.0000
  Fe  Fe156     1.0  0.34208  0.88270  0.57822  1.0000
  S   S309      1.0  0.35502  0.90140  0.56457  1.0000
  Fe  Fe157     1.0  0.32791  0.86029  0.56743  1.0000
  S   S310      1.0  0.32569  0.84371  0.54453  1.0000
  S   S311      1.0  0.31847  0.85398  0.60073  1.0000
  Fe  Fe158     1.0  0.31721  0.87341  0.43609  1.0000
  S   S312      1.0  0.32087  0.88413  0.40077  1.0000
  S   S313      1.0  0.31497  0.89623  0.45690  1.0000
  Fe  Fe159     1.0  0.31946  0.82731  0.43500  1.0000
  S   S314      1.0  0.32335  0.83409  0.39962  1.0000
  S   S315      1.0  0.31970  0.79468  0.45670  1.0000
  Fe  Fe160     1.0  0.33372  0.85426  0.40166  1.0000
  S   S316      1.0  0.35000  0.85271  0.38048  1.0000
  Fe  Fe161     1.0  0.31009  0.86310  0.40171  1.0000
  S   S317      1.0  0.30009  0.87270  0.37711  1.0000
  S   S318      1.0  0.33100  0.84521  0.43678  1.0000
  S   S319      1.0  0.30525  0.85481  0.43720  1.0000
  C   C1341     1.0  0.27293  0.51355  0.33079  1.0000
  S   S320      1.0  0.47475  0.88498  0.36655  1.0000
  Fe  Fe162     1.0  0.46867  0.89557  0.39728  1.0000
  S   S321      1.0  0.45750  0.87922  0.42544  1.0000
  H   H2380     1.0  0.41241  0.68705  0.46573  1.0000
  C   C1342     1.0  0.30909  0.88752  0.65461  1.0000
  S   S322      1.0  0.39723  0.83167  0.60925  1.0000
  C   C1343     1.0  0.25120  0.93574  0.36348  1.0000
  C   C1344     1.0  0.25579  0.56427  0.36529  1.0000
  S   S323      1.0  0.41636  0.85124  0.61418  1.0000
  H   H2381     1.0  0.37310  0.86528  0.54217  1.0000
  Fe  Fe163     1.0  0.39855  0.85656  0.62421  1.0000
  H   H2382     1.0  0.26227  0.52213  0.40628  1.0000
  Fe  Fe164     1.0  0.41509  0.82416  0.60178  1.0000
  S   S324      1.0  0.42481  0.81882  0.56958  1.0000
  C   C1345     1.0  0.29338  0.56000  0.49847  1.0000
  S   S325      1.0  0.41670  0.79988  0.63208  1.0000
  Fe  Fe165     1.0  0.41635  0.80988  0.43642  1.0000
  S   S326      1.0  0.40667  0.83750  0.45097  1.0000
  S   S327      1.0  0.43339  0.81147  0.41856  1.0000
  Fe  Fe166     1.0  0.39747  0.78664  0.44949  1.0000
  S   S328      1.0  0.38677  0.81362  0.46429  1.0000
  S   S329      1.0  0.38814  0.76014  0.45815  1.0000
  Fe  Fe167     1.0  0.39412  0.83549  0.43591  1.0000
  S   S330      1.0  0.38544  0.86588  0.41805  1.0000
  Fe  Fe168     1.0  0.40047  0.81246  0.47787  1.0000
  S   S331      1.0  0.39593  0.81167  0.51276  1.0000
  S   S332      1.0  0.40396  0.80904  0.41973  1.0000
  S   S333      1.0  0.41095  0.78457  0.46460  1.0000
  C   C1346     1.0  0.41748  0.81458  0.55356  1.0000
  C   C1347     1.0  0.42155  0.81615  0.53174  1.0000
  C   C1348     1.0  0.41525  0.81444  0.51882  1.0000
  C   C1349     1.0  0.40485  0.81144  0.52777  1.0000
  C   C1350     1.0  0.40109  0.80890  0.54958  1.0000
  C   C1351     1.0  0.40738  0.81021  0.56242  1.0000
  H   H2383     1.0  0.42944  0.81925  0.52475  1.0000
  H   H2384     1.0  0.41829  0.81617  0.50197  1.0000
  H   H2385     1.0  0.39319  0.80604  0.55660  1.0000
  H   H2386     1.0  0.40438  0.80770  0.57924  1.0000
  C   C1352     1.0  0.45107  0.85988  0.42369  1.0000
  C   C1353     1.0  0.44160  0.85644  0.43838  1.0000
  C   C1354     1.0  0.43609  0.84175  0.43702  1.0000
  C   C1355     1.0  0.44011  0.82994  0.42119  1.0000
  C   C1356     1.0  0.44975  0.83291  0.40690  1.0000
  C   C1357     1.0  0.45515  0.84790  0.40803  1.0000
  H   H2387     1.0  0.43845  0.86536  0.45075  1.0000
  H   H2388     1.0  0.42881  0.83938  0.44839  1.0000
  H   H2389     1.0  0.45302  0.82369  0.39477  1.0000
  H   H2390     1.0  0.46253  0.85006  0.39687  1.0000
  H   H2391     1.0  0.28475  0.79387  0.48447  1.0000
  H   H2392     1.0  0.34017  0.94761  0.50499  1.0000
  C   C1358     1.0  0.24382  0.50088  0.33254  1.0000
  H   H2393     1.0  0.25619  0.60749  0.35677  1.0000
  C   C1359     1.0  0.33263  0.52228  0.42098  1.0000
  Fe  Fe169     1.0  0.46910  0.91953  0.35192  1.0000
  H   H2394     1.0  0.24390  0.53716  0.36838  1.0000
  C   C1360     1.0  0.35924  0.85681  0.39220  1.0000
  C   C1361     1.0  0.36307  0.84111  0.40863  1.0000
  C   C1362     1.0  0.37134  0.84351  0.41628  1.0000
  C   C1363     1.0  0.37540  0.86210  0.40823  1.0000
  C   C1364     1.0  0.37135  0.87806  0.39227  1.0000
  C   C1365     1.0  0.36343  0.87523  0.38400  1.0000
  H   H2395     1.0  0.35983  0.82690  0.41503  1.0000
  H   H2396     1.0  0.37456  0.83102  0.42838  1.0000
  H   H2397     1.0  0.37448  0.89244  0.38599  1.0000
  H   H2398     1.0  0.36053  0.88733  0.37123  1.0000
  C   C1366     1.0  0.36331  0.89935  0.58155  1.0000
  C   C1367     1.0  0.36493  0.88134  0.59790  1.0000
  Fe  Fe170     1.0  0.41652  0.82797  0.64530  1.0000
  C   C1368     1.0  0.37891  0.89399  0.60437  1.0000
  C   C1369     1.0  0.37674  0.91270  0.58908  1.0000
  C   C1370     1.0  0.36916  0.91512  0.57733  1.0000
  H   H2399     1.0  0.38121  0.92498  0.58577  1.0000
  H   H2400     1.0  0.36787  0.92919  0.56487  1.0000
  C   C1371     1.0  0.32180  0.85911  0.52118  1.0000
  C   C1372     1.0  0.32071  0.88133  0.51571  1.0000
  C   C1373     1.0  0.31840  0.89286  0.49605  1.0000
  C   C1374     1.0  0.31718  0.88213  0.48196  1.0000
  C   C1375     1.0  0.31790  0.86003  0.48784  1.0000
  C   C1376     1.0  0.32013  0.84861  0.50746  1.0000
  H   H2401     1.0  0.32173  0.88956  0.52652  1.0000
  H   H2402     1.0  0.31766  0.91003  0.49165  1.0000
  H   H2403     1.0  0.31662  0.85173  0.47737  1.0000
  H   H2404     1.0  0.32049  0.83161  0.51206  1.0000
  C   C1377     1.0  0.26872  0.85133  0.39070  1.0000
  C   C1378     1.0  0.27416  0.85788  0.36997  1.0000
  C   C1379     1.0  0.28382  0.86415  0.36615  1.0000
  C   C1380     1.0  0.28802  0.86435  0.38292  1.0000
  C   C1381     1.0  0.28252  0.85815  0.40367  1.0000
  C   C1382     1.0  0.27288  0.85157  0.40755  1.0000
  H   H2405     1.0  0.27107  0.85748  0.35689  1.0000
  H   H2406     1.0  0.28822  0.86835  0.35016  1.0000
  H   H2407     1.0  0.28567  0.85843  0.41669  1.0000
  H   H2408     1.0  0.26866  0.84660  0.42361  1.0000
  C   C1383     1.0  0.28491  0.87754  0.60797  1.0000
  C   C1384     1.0  0.38257  0.71179  0.42713  1.0000
  C   C1385     1.0  0.37596  0.71648  0.44603  1.0000
  C   C1386     1.0  0.37753  0.73209  0.45460  1.0000
  C   C1387     1.0  0.38578  0.74310  0.44461  1.0000
  C   C1388     1.0  0.39227  0.73885  0.42541  1.0000
  C   C1389     1.0  0.39069  0.72317  0.41678  1.0000
  H   H2409     1.0  0.36977  0.70774  0.45436  1.0000
  H   H2410     1.0  0.37245  0.73528  0.46940  1.0000
  H   H2411     1.0  0.39868  0.74716  0.41754  1.0000
  H   H2412     1.0  0.39589  0.71961  0.40218  1.0000
  C   C1390     1.0  0.32818  0.73984  0.42272  1.0000
  C   C1391     1.0  0.32533  0.76095  0.41181  1.0000
  C   C1392     1.0  0.32250  0.77776  0.42237  1.0000
  C   C1393     1.0  0.32242  0.77358  0.44382  1.0000
  C   C1394     1.0  0.32484  0.75237  0.45496  1.0000
  C   C1395     1.0  0.32780  0.73550  0.44438  1.0000
  H   H2413     1.0  0.32563  0.76431  0.39507  1.0000
  H   H2414     1.0  0.32041  0.79394  0.41389  1.0000
  H   H2415     1.0  0.32468  0.74900  0.47165  1.0000
  H   H2416     1.0  0.32974  0.71914  0.45301  1.0000
  H   H2417     1.0  0.34043  0.55544  0.32591  1.0000
  C   C1396     1.0  0.44559  0.98669  0.35489  1.0000
  H   H2418     1.0  0.26358  0.56882  0.35812  1.0000
  H   H2419     1.0  0.34291  0.88563  0.64496  1.0000
  H   H2420     1.0  0.34748  0.63760  0.35593  1.0000
  C   C1397     1.0  0.26225  0.77921  0.40741  1.0000
  C   C1398     1.0  0.28128  0.82898  0.63844  1.0000
  H   H2421     1.0  0.37366  0.70914  0.34951  1.0000
  H   H2422     1.0  0.36307  0.60739  0.32807  1.0000
  C   C1399     1.0  0.32749  0.62356  0.64518  1.0000
  C   C1400     1.0  0.36572  0.66417  0.54030  1.0000
  C   C1401     1.0  0.36991  0.65645  0.52167  1.0000
  C   C1402     1.0  0.36318  0.65595  0.50917  1.0000
  C   C1403     1.0  0.35214  0.66206  0.51585  1.0000
  C   C1404     1.0  0.34792  0.66922  0.53478  1.0000
  C   C1405     1.0  0.35468  0.67068  0.54675  1.0000
  H   H2423     1.0  0.37837  0.65066  0.51697  1.0000
  H   H2424     1.0  0.36650  0.65011  0.49476  1.0000
  H   H2425     1.0  0.33937  0.67408  0.53996  1.0000
  H   H2426     1.0  0.35132  0.67686  0.56092  1.0000
  C   C1406     1.0  0.33706  0.75617  0.61198  1.0000
  H   H2427     1.0  0.30875  0.80256  0.35484  1.0000
  C   C1407     1.0  0.35535  0.61192  0.33898  1.0000
  S   S334      1.0  0.30493  0.90972  0.61581  1.0000
  C   C1408     1.0  0.34892  0.57609  0.33237  1.0000
  C   C1409     1.0  0.44732  0.78386  0.59876  1.0000
  H   H2428     1.0  0.41805  0.83543  0.38194  1.0000
  S   S335      1.0  0.35577  0.69365  0.64015  1.0000
  H   H2429     1.0  0.31708  0.61440  0.43574  1.0000
  C   C1410     1.0  0.32919  0.61996  0.38965  1.0000
  C   C1411     1.0  0.33619  0.62455  0.39929  1.0000
  C   C1412     1.0  0.34506  0.60895  0.40448  1.0000
  H   H2430     1.0  0.48259  0.78314  0.57509  1.0000
  H   H2431     1.0  0.33853  0.61538  0.34192  1.0000
  H   H2432     1.0  0.33479  0.64028  0.40250  1.0000
  H   H2433     1.0  0.42063  0.85764  0.49482  1.0000
  C   C1413     1.0  0.27098  0.54713  0.39524  1.0000
  H   H2434     1.0  0.41845  0.93399  0.32263  1.0000
  C   C1414     1.0  0.43863  0.90742  0.38740  1.0000
  H   H2435     1.0  0.41726  0.74744  0.49665  1.0000
  H   H2436     1.0  0.43351  0.98455  0.38431  1.0000
  H   H2437     1.0  0.40360  0.75227  0.63985  1.0000
  H   H2438     1.0  0.27628  0.80415  0.63087  1.0000
  H   H2439     1.0  0.33851  0.79660  0.38386  1.0000
  C   C1415     1.0  0.33164  0.79435  0.61072  1.0000
  H   H2440     1.0  0.27525  0.90784  0.59433  1.0000
  H   H2441     1.0  0.38597  0.79740  0.36355  1.0000
  H   H2442     1.0  0.41588  0.64608  0.50451  1.0000
  H   H2443     1.0  0.48363  0.80210  0.58883  1.0000
  H   H2444     1.0  0.34902  0.81103  0.37504  1.0000
  S   S336      1.0  0.46220  0.92979  0.38262  1.0000
  C   C1416     1.0  0.35388  0.53545  0.33807  1.0000
  C   C1417     1.0  0.28165  0.88158  0.63064  1.0000
  H   H2445     1.0  0.28631  0.61421  0.42062  1.0000
  H   H2446     1.0  0.43983  0.98720  0.34563  1.0000
  N   N74       1.0  0.35335  0.88680  0.49128  1.0000
  C   C1418     1.0  0.35002  0.88041  0.47465  1.0000
  C   C1419     1.0  0.35327  0.86866  0.51056  1.0000
  C   C1420     1.0  0.34503  0.90589  0.49752  1.0000
  C   C1421     1.0  0.36406  0.89295  0.48378  1.0000
  C   C1422     1.0  0.37258  0.88131  0.46742  1.0000
  C   C1423     1.0  0.34744  0.89856  0.45550  1.0000
  C   C1424     1.0  0.34622  0.91349  0.51633  1.0000
  C   C1425     1.0  0.36107  0.84714  0.50767  1.0000
  C   C1426     1.0  0.35909  0.82957  0.52740  1.0000
  C   C1427     1.0  0.38360  0.88507  0.46571  1.0000
  C   C1428     1.0  0.34646  0.88952  0.43781  1.0000
  C   C1429     1.0  0.33845  0.93469  0.51907  1.0000
  H   H2447     1.0  0.34273  0.87365  0.48181  1.0000
  H   H2448     1.0  0.35616  0.86738  0.46833  1.0000
  H   H2449     1.0  0.35540  0.87292  0.52344  1.0000
  H   H2450     1.0  0.34504  0.86564  0.51696  1.0000
  H   H2451     1.0  0.33693  0.90255  0.50150  1.0000
  H   H2452     1.0  0.34503  0.91998  0.48402  1.0000
  H   H2453     1.0  0.36316  0.91033  0.47627  1.0000
  H   H2454     1.0  0.36756  0.89080  0.49759  1.0000
  H   H2455     1.0  0.37060  0.88763  0.45163  1.0000
  H   H2456     1.0  0.37317  0.86382  0.47127  1.0000
  H   H2457     1.0  0.33967  0.90942  0.46025  1.0000
  H   H2458     1.0  0.35368  0.90814  0.44918  1.0000
  H   H2459     1.0  0.35441  0.91567  0.51417  1.0000
  H   H2460     1.0  0.34438  0.90166  0.53123  1.0000
  H   H2461     1.0  0.36022  0.84162  0.49432  1.0000
  H   H2462     1.0  0.36941  0.84870  0.50515  1.0000
  H   H2463     1.0  0.35073  0.82766  0.53116  1.0000
  H   H2464     1.0  0.36459  0.81415  0.52489  1.0000
  H   H2465     1.0  0.36053  0.83367  0.54102  1.0000
  H   H2466     1.0  0.38634  0.87721  0.48065  1.0000
  H   H2467     1.0  0.38943  0.87806  0.45284  1.0000
  H   H2468     1.0  0.38345  0.90247  0.46202  1.0000
  H   H2469     1.0  0.34447  0.90278  0.42439  1.0000
  H   H2470     1.0  0.35406  0.87880  0.43203  1.0000
  H   H2471     1.0  0.34001  0.88041  0.44351  1.0000
  S   S337      1.0  0.24697  0.88922  0.35446  1.0000
  H   H2472     1.0  0.33927  0.93924  0.53311  1.0000
  N   N75       1.0  0.34194  0.77998  0.51256  1.0000
  C   C1430     1.0  0.33061  0.78149  0.52502  1.0000
  C   C1431     1.0  0.34926  0.77857  0.52667  1.0000
  C   C1432     1.0  0.34234  0.80050  0.49591  1.0000
  C   C1433     1.0  0.34568  0.76173  0.50123  1.0000
  C   C1434     1.0  0.34389  0.73941  0.51415  1.0000
  C   C1435     1.0  0.32212  0.78414  0.51222  1.0000
  C   C1436     1.0  0.35363  0.80374  0.48336  1.0000
  C   C1437     1.0  0.34703  0.76546  0.54970  1.0000
  C   C1438     1.0  0.35539  0.76569  0.56116  1.0000
  C   C1439     1.0  0.34671  0.72379  0.49952  1.0000
  C   C1440     1.0  0.31110  0.78404  0.52669  1.0000
  C   C1441     1.0  0.35288  0.82401  0.46593  1.0000
  H   H2473     1.0  0.32820  0.79526  0.53301  1.0000
  H   H2474     1.0  0.32986  0.76715  0.53802  1.0000
  H   H2475     1.0  0.35771  0.77241  0.51919  1.0000
  H   H2476     1.0  0.34886  0.79489  0.52854  1.0000
  H   H2477     1.0  0.33850  0.81459  0.50330  1.0000
  H   H2478     1.0  0.33774  0.80177  0.48398  1.0000
  H   H2479     1.0  0.34174  0.76573  0.48767  1.0000
  H   H2480     1.0  0.35437  0.75954  0.49424  1.0000
  H   H2481     1.0  0.33548  0.73985  0.52260  1.0000
  H   H2482     1.0  0.34912  0.73273  0.52561  1.0000
  H   H2483     1.0  0.32146  0.79957  0.50049  1.0000
  H   H2484     1.0  0.32409  0.77098  0.50373  1.0000
  H   H2485     1.0  0.35818  0.79017  0.47577  1.0000
  H   H2486     1.0  0.35829  0.80543  0.49385  1.0000
  H   H2487     1.0  0.33917  0.77266  0.55870  1.0000
  H   H2488     1.0  0.34711  0.74863  0.55049  1.0000
  H   H2489     1.0  0.35469  0.78219  0.56288  1.0000
  H   H2490     1.0  0.35413  0.75530  0.57718  1.0000
  H   H2491     1.0  0.36356  0.75965  0.55253  1.0000
  H   H2492     1.0  0.34477  0.70828  0.50872  1.0000
  H   H2493     1.0  0.34202  0.72990  0.48700  1.0000
  H   H2494     1.0  0.35535  0.72099  0.49205  1.0000
  H   H2495     1.0  0.31110  0.76859  0.53841  1.0000
  H   H2496     1.0  0.30865  0.79740  0.53511  1.0000
  H   H2497     1.0  0.30520  0.78618  0.51709  1.0000
  H   H2498     1.0  0.36084  0.82802  0.45955  1.0000
  H   H2499     1.0  0.35017  0.82139  0.45291  1.0000
  H   H2500     1.0  0.34722  0.83776  0.47201  1.0000
  C   C1442     1.0  0.33095  0.77630  0.60474  1.0000
  Fe  Fe171     1.0  0.47834  0.93599  0.37960  1.0000
  C   C1443     1.0  0.37653  0.74288  0.63756  1.0000
  C   C1444     1.0  0.39834  0.89024  0.54498  1.0000
  C   C1445     1.0  0.38344  0.89653  0.52708  1.0000
  C   C1446     1.0  0.38101  0.79960  0.37930  1.0000
  C   C1447     1.0  0.38511  0.91969  0.51747  1.0000
  C   C1448     1.0  0.37596  0.93348  0.50704  1.0000
  H   H2501     1.0  0.29742  0.79479  0.46647  1.0000
  H   H2502     1.0  0.35692  0.57314  0.33589  1.0000
  H   H2503     1.0  0.39272  0.89808  0.55760  1.0000
  H   H2504     1.0  0.40165  0.90328  0.53306  1.0000
  H   H2505     1.0  0.37612  0.89843  0.53976  1.0000
  N   N76       1.0  0.27976  0.92921  0.32664  1.0000
  N   N77       1.0  0.39239  0.88004  0.53580  1.0000
  H   H2506     1.0  0.38525  0.92722  0.53016  1.0000
  H   H2507     1.0  0.39266  0.92019  0.50553  1.0000
  H   H2508     1.0  0.36824  0.93398  0.51878  1.0000
  H   H2509     1.0  0.37719  0.95010  0.50072  1.0000
  H   H2510     1.0  0.37560  0.92704  0.49379  1.0000
  C   C1449     1.0  0.36892  0.71344  0.36465  1.0000
  H   H2511     1.0  0.24755  0.50971  0.41187  1.0000
  H   H2512     1.0  0.40048  0.89285  0.48989  1.0000
  H   H2513     1.0  0.45457  0.83788  0.60802  1.0000
  H   H2514     1.0  0.31113  0.81445  0.64362  1.0000
  H   H2515     1.0  0.35965  0.61394  0.51823  1.0000
  C   C1450     1.0  0.42175  0.74962  0.50720  1.0000
  H   H2516     1.0  0.31266  0.54626  0.47218  1.0000
  H   H2517     1.0  0.25203  0.58172  0.39087  1.0000
  H   H2518     1.0  0.40548  0.85478  0.52641  1.0000
  H   H2519     1.0  0.33912  0.64241  0.57058  1.0000
  C   C1451     1.0  0.36483  0.60000  0.59770  1.0000
  H   H2520     1.0  0.26623  0.82846  0.63213  1.0000
  H   H2521     1.0  0.43483  0.85149  0.37728  1.0000
  H   H2522     1.0  0.31033  0.60549  0.46238  1.0000
  H   H2523     1.0  0.28778  0.81690  0.64508  1.0000
  H   H2524     1.0  0.30024  0.86460  0.63959  1.0000
  C   C1452     1.0  0.38826  0.69682  0.50056  1.0000
  C   C1453     1.0  0.38658  0.71014  0.51722  1.0000
  C   C1454     1.0  0.37533  0.72413  0.52061  1.0000
  H   H2525     1.0  0.38512  0.70764  0.48693  1.0000
  H   H2526     1.0  0.38268  0.68583  0.50803  1.0000
  H   H2527     1.0  0.40038  0.70532  0.46215  1.0000
  H   H2528     1.0  0.38306  0.67784  0.47653  1.0000
  H   H2529     1.0  0.39228  0.72069  0.51274  1.0000
  H   H2530     1.0  0.37409  0.73625  0.50594  1.0000
  H   H2531     1.0  0.36928  0.71412  0.52540  1.0000
  H   H2532     1.0  0.37420  0.73259  0.53336  1.0000
  H   H2533     1.0  0.42324  0.71411  0.45105  1.0000
  N   N78       1.0  0.28897  0.78786  0.41389  1.0000
  C   C1455     1.0  0.29236  0.80106  0.39207  1.0000
  C   C1456     1.0  0.27732  0.78765  0.41754  1.0000
  C   C1457     1.0  0.29004  0.79898  0.42970  1.0000
  C   C1458     1.0  0.29563  0.76527  0.41751  1.0000
  C   C1459     1.0  0.30048  0.75476  0.39809  1.0000
  C   C1460     1.0  0.30337  0.80683  0.38728  1.0000
  C   C1461     1.0  0.28537  0.78994  0.45324  1.0000
  C   C1462     1.0  0.27425  0.77798  0.40225  1.0000
  H   H2534     1.0  0.24756  0.92587  0.37853  1.0000
  C   C1463     1.0  0.30418  0.73053  0.40499  1.0000
  C   C1464     1.0  0.46836  0.80846  0.57998  1.0000
  C   C1465     1.0  0.28867  0.79967  0.46783  1.0000
  H   H2535     1.0  0.28645  0.81646  0.38949  1.0000
  H   H2536     1.0  0.29233  0.79323  0.37960  1.0000
  H   H2537     1.0  0.27451  0.77821  0.43355  1.0000
  H   H2538     1.0  0.27240  0.80426  0.41697  1.0000
  H   H2539     1.0  0.28617  0.81624  0.42615  1.0000
  H   H2540     1.0  0.29859  0.79845  0.42851  1.0000
  H   H2541     1.0  0.30254  0.76440  0.42412  1.0000
  H   H2542     1.0  0.29092  0.75448  0.42998  1.0000
  H   H2543     1.0  0.30752  0.76122  0.38825  1.0000
  H   H2544     1.0  0.29484  0.75771  0.38782  1.0000
  H   H2545     1.0  0.30283  0.81956  0.39551  1.0000
  H   H2546     1.0  0.30936  0.79270  0.39269  1.0000
  H   H2547     1.0  0.28812  0.77228  0.45748  1.0000
  H   H2548     1.0  0.27653  0.79403  0.45648  1.0000
  H   H2549     1.0  0.40283  0.71922  0.63049  1.0000
  H   H2550     1.0  0.36078  0.71070  0.36732  1.0000
  C   C1466     1.0  0.45135  0.87252  0.33565  1.0000
  H   H2551     1.0  0.34579  0.53641  0.62840  1.0000
  H   H2552     1.0  0.30147  0.82935  0.35753  1.0000
  Fe  Fe172     1.0  0.30035  0.55870  0.34850  1.0000
  C   C1467     1.0  0.46277  0.79626  0.60154  1.0000
  C   C1468     1.0  0.26825  0.93849  0.33558  1.0000
  H   H2553     1.0  0.25925  0.53900  0.33565  1.0000
  H   H2554     1.0  0.43661  0.91509  0.34260  1.0000
  H   H2555     1.0  0.43292  0.88910  0.32305  1.0000
  C   C1469     1.0  0.34429  0.77211  0.63172  1.0000
  C   C1470     1.0  0.34877  0.55627  0.32463  1.0000
  H   H2556     1.0  0.38124  0.89089  0.51514  1.0000
  H   H2557     1.0  0.27303  0.88928  0.63294  1.0000
  H   H2558     1.0  0.43834  0.92670  0.40883  1.0000
  H   H2559     1.0  0.36024  0.86942  0.60153  1.0000
  C   C1471     1.0  0.41625  0.72606  0.45712  1.0000
  S   S338      1.0  0.45880  0.92701  0.32842  1.0000
  H   H2560     1.0  0.33010  0.93308  0.52164  1.0000
  H   H2561     1.0  0.41920  0.73879  0.46002  1.0000
  N   N79       1.0  0.39940  0.68431  0.49319  1.0000
  C   C1472     1.0  0.30692  0.55894  0.46387  1.0000
  H   H2562     1.0  0.42525  0.76394  0.49945  1.0000
  H   H2563     1.0  0.30573  0.57767  0.48674  1.0000
  H   H2564     1.0  0.25777  0.79610  0.40587  1.0000
  C   C1473     1.0  0.30734  0.81522  0.36371  1.0000
  H   H2565     1.0  0.27706  0.89734  0.33199  1.0000
  C   C1474     1.0  0.34541  0.80014  0.37087  1.0000
  H   H2566     1.0  0.34852  0.76869  0.36571  1.0000
  C   C1475     1.0  0.38673  0.76505  0.64409  1.0000
  C   C1476     1.0  0.35305  0.61045  0.55191  1.0000
  C   C1477     1.0  0.24685  0.53462  0.38298  1.0000
  H   H2567     1.0  0.36523  0.58530  0.61040  1.0000
  H   H2568     1.0  0.35295  0.52158  0.33312  1.0000
  H   H2569     1.0  0.30040  0.92268  0.36672  1.0000
  C   C1478     1.0  0.41319  0.88756  0.56283  1.0000
  H   H2570     1.0  0.34556  0.76485  0.40912  1.0000
  H   H2571     1.0  0.35225  0.78434  0.44200  1.0000
  C   C1479     1.0  0.40949  0.71559  0.47761  1.0000
  H   H2572     1.0  0.40272  0.72832  0.48272  1.0000
  H   H2573     1.0  0.38754  0.69918  0.53261  1.0000
  H   H2574     1.0  0.41142  0.73351  0.44491  1.0000
  C   C1480     1.0  0.41359  0.85182  0.37610  1.0000
  H   H2575     1.0  0.25223  0.56599  0.35168  1.0000
  H   H2576     1.0  0.45044  0.86463  0.36932  1.0000
  C   C1481     1.0  0.35344  0.77890  0.36751  1.0000
  H   H2577     1.0  0.35441  0.73765  0.38970  1.0000
  C   C1482     1.0  0.29204  0.93091  0.37230  1.0000
  H   H2578     1.0  0.34997  0.53434  0.35503  1.0000
  S   S339      1.0  0.25336  0.84417  0.33789  1.0000
  C   C1483     1.0  0.40697  0.73358  0.57633  1.0000
  H   H2579     1.0  0.41378  0.88470  0.37365  1.0000
  H   H2580     1.0  0.26875  0.51166  0.37416  1.0000
  H   H2581     1.0  0.40510  0.86248  0.56793  1.0000
  C   C1484     1.0  0.39842  0.66499  0.48680  1.0000
  H   H2582     1.0  0.40755  0.89445  0.57602  1.0000
  H   H2583     1.0  0.39526  0.65340  0.50098  1.0000
  C   C1485     1.0  0.35312  0.77029  0.40588  1.0000
  C   C1486     1.0  0.35232  0.76709  0.44453  1.0000
  H   H2584     1.0  0.35061  0.78750  0.40642  1.0000
  C   C1487     1.0  0.34578  0.61470  0.32894  1.0000
  H   H2585     1.0  0.38305  0.87124  0.56729  1.0000
  H   H2586     1.0  0.44846  0.79989  0.56499  1.0000
  C   C1488     1.0  0.36841  0.73686  0.36371  1.0000
  H   H2587     1.0  0.38048  0.81616  0.38061  1.0000
  C   C1489     1.0  0.28936  0.59958  0.41402  1.0000
  H   H2588     1.0  0.35893  0.78236  0.35185  1.0000
  H   H2589     1.0  0.35852  0.74123  0.42843  1.0000
  H   H2590     1.0  0.36478  0.74658  0.35023  1.0000
  H   H2591     1.0  0.44572  0.76305  0.64095  1.0000
  H   H2592     1.0  0.40027  0.66691  0.52499  1.0000
  C   C1490     1.0  0.40514  0.67622  0.51113  1.0000
  H   H2593     1.0  0.30163  0.60168  0.43964  1.0000
  N   N80       1.0  0.35971  0.76704  0.38446  1.0000
  C   C1491     1.0  0.36201  0.74340  0.38483  1.0000
  C   C1492     1.0  0.35844  0.75858  0.42479  1.0000
  H   H2594     1.0  0.34401  0.76489  0.44886  1.0000
  H   H2595     1.0  0.35626  0.75810  0.45775  1.0000
  C   C1493     1.0  0.39136  0.66966  0.47054  1.0000
  H   H2596     1.0  0.40595  0.68971  0.51676  1.0000
  H   H2597     1.0  0.41456  0.70950  0.48941  1.0000
  C   C1494     1.0  0.40780  0.87513  0.55448  1.0000
  C   C1495     1.0  0.38746  0.86382  0.55361  1.0000
  H   H2598     1.0  0.36673  0.73382  0.39686  1.0000
  H   H2599     1.0  0.37283  0.70287  0.37752  1.0000
  H   H2600     1.0  0.40315  0.72505  0.59207  1.0000
  S   S340      1.0  0.30204  0.56005  0.38014  1.0000
  S   S341      1.0  0.38916  0.89043  0.61742  1.0000
  H   H2601     1.0  0.41951  0.89484  0.33760  1.0000
  H   H2602     1.0  0.27816  0.94863  0.36027  1.0000
  C   C1496     1.0  0.33370  0.63761  0.58576  1.0000
  S   S342      1.0  0.48022  0.96812  0.38191  1.0000
  C   C1497     1.0  0.37299  0.87831  0.60881  1.0000
  H   H2603     1.0  0.27314  0.53480  0.35819  1.0000
  H   H2604     1.0  0.35495  0.59910  0.35357  1.0000
  H   H2605     1.0  0.32666  0.51473  0.41883  1.0000
  C   C1498     1.0  0.34669  0.58857  0.40017  1.0000
  H   H2606     1.0  0.39469  0.67984  0.45546  1.0000
  H   H2607     1.0  0.41679  0.76722  0.59469  1.0000
  H   H2608     1.0  0.42147  0.66940  0.49173  1.0000
  C   C1499     1.0  0.41642  0.66179  0.50635  1.0000
  H   H2609     1.0  0.42474  0.74648  0.58093  1.0000
  C   C1500     1.0  0.44986  0.77437  0.64313  1.0000
  H   H2610     1.0  0.44815  0.75194  0.57842  1.0000
  H   H2611     1.0  0.24686  0.93672  0.35126  1.0000
  C   C1501     1.0  0.33558  0.63293  0.64576  1.0000
  H   H2612     1.0  0.40519  0.85353  0.38510  1.0000
  H   H2613     1.0  0.32698  0.80980  0.60489  1.0000
  C   C1502     1.0  0.41851  0.86856  0.37927  1.0000
  C   C1503     1.0  0.48045  0.80026  0.57602  1.0000
  C   C1504     1.0  0.33962  0.58390  0.39072  1.0000
  H   H2614     1.0  0.35416  0.59055  0.53018  1.0000
  C   C1505     1.0  0.41689  0.75182  0.59112  1.0000
  H   H2615     1.0  0.37673  0.73887  0.36036  1.0000
  H   H2616     1.0  0.36671  0.76069  0.42162  1.0000
  H   H2617     1.0  0.40637  0.65618  0.47964  1.0000
  H   H2618     1.0  0.44066  0.95925  0.37770  1.0000
  H   H2619     1.0  0.27053  0.56383  0.38603  1.0000
  S   S343      1.0  0.33424  0.87737  0.61249  1.0000
  H   H2620     1.0  0.37733  0.74585  0.57700  1.0000
  H   H2621     1.0  0.29334  0.86907  0.60403  1.0000
  H   H2622     1.0  0.31631  0.83372  0.65008  1.0000
  C   C1506     1.0  0.43301  0.89041  0.38616  1.0000
  H   H2623     1.0  0.37442  0.77309  0.36274  1.0000
  H   H2624     1.0  0.35350  0.57634  0.40415  1.0000
  H   H2625     1.0  0.33531  0.55289  0.64417  1.0000
  H   H2626     1.0  0.32178  0.63243  0.63552  1.0000
  H   H2627     1.0  0.39062  0.71507  0.58184  1.0000
  H   H2628     1.0  0.43136  0.86176  0.35258  1.0000
  H   H2629     1.0  0.29839  0.54547  0.50655  1.0000
  C   C1507     1.0  0.37025  0.77359  0.37937  1.0000
  N   N81       1.0  0.31271  0.57060  0.44329  1.0000
  C   C1508     1.0  0.32644  0.60741  0.45899  1.0000
  H   H2630     1.0  0.38564  0.74933  0.59194  1.0000
  H   H2631     1.0  0.41585  0.73975  0.60616  1.0000
  H   H2632     1.0  0.42014  0.87654  0.56881  1.0000
  H   H2633     1.0  0.31246  0.54615  0.42771  1.0000
  H   H2634     1.0  0.36610  0.80861  0.36985  1.0000
  C   C1509     1.0  0.40795  0.75506  0.57978  1.0000
  H   H2635     1.0  0.32979  0.59785  0.32774  1.0000
  H   H2636     1.0  0.34870  0.73877  0.63064  1.0000
  H   H2637     1.0  0.46636  0.77883  0.60294  1.0000
  C   C1510     1.0  0.35427  0.84387  0.65113  1.0000
  H   H2638     1.0  0.41514  0.72347  0.57288  1.0000
  C   C1511     1.0  0.41439  0.75277  0.52841  1.0000
  H   H2639     1.0  0.41067  0.85726  0.48154  1.0000
  H   H2640     1.0  0.39883  0.64047  0.45866  1.0000
  H   H2641     1.0  0.41729  0.64981  0.53950  1.0000
  N   N82       1.0  0.40102  0.73494  0.55975  1.0000
  C   C1512     1.0  0.38278  0.75573  0.57707  1.0000
  H   H2642     1.0  0.42345  0.67246  0.52614  1.0000
  C   C1513     1.0  0.26304  0.52391  0.34523  1.0000
  H   H2643     1.0  0.28075  0.55068  0.41438  1.0000
  Fe  Fe173     1.0  0.31820  0.56714  0.36404  1.0000
  H   H2644     1.0  0.37086  0.62914  0.58991  1.0000
  C   C1514     1.0  0.39598  0.71574  0.56596  1.0000
  H   H2645     1.0  0.24048  0.57910  0.38380  1.0000
  H   H2646     1.0  0.43375  0.90238  0.42170  1.0000
  H   H2647     1.0  0.34945  0.77043  0.64220  1.0000
  H   H2648     1.0  0.35644  0.64545  0.33105  1.0000
  H   H2649     1.0  0.46572  0.84989  0.34358  1.0000
  H   H2650     1.0  0.32152  0.66621  0.57905  1.0000
  C   C1515     1.0  0.39078  0.64897  0.46566  1.0000
  C   C1516     1.0  0.37972  0.85328  0.54843  1.0000
  H   H2651     1.0  0.40965  0.76671  0.56482  1.0000
  H   H2652     1.0  0.37170  0.82684  0.56353  1.0000
  C   C1517     1.0  0.42208  0.65737  0.52441  1.0000
  H   H2653     1.0  0.26685  0.92474  0.36981  1.0000
  H   H2654     1.0  0.33613  0.53168  0.40550  1.0000
  H   H2655     1.0  0.33909  0.50936  0.42681  1.0000
  H   H2656     1.0  0.37469  0.86392  0.62066  1.0000
  H   H2657     1.0  0.39072  0.71728  0.55516  1.0000
  C   C1518     1.0  0.44146  0.97546  0.37756  1.0000
  H   H2658     1.0  0.27815  0.76078  0.40387  1.0000
  H   H2659     1.0  0.44711  0.97375  0.38759  1.0000
  C   C1519     1.0  0.36982  0.79619  0.38200  1.0000
  H   H2660     1.0  0.34534  0.62068  0.54865  1.0000
  H   H2661     1.0  0.37575  0.76177  0.38895  1.0000
  H   H2662     1.0  0.36537  0.79866  0.39788  1.0000
  H   H2663     1.0  0.38726  0.63828  0.48019  1.0000
  C   C1520     1.0  0.39218  0.75473  0.55751  1.0000
  H   H2664     1.0  0.36882  0.77796  0.58981  1.0000
  C   C1521     1.0  0.40856  0.73412  0.53858  1.0000
  H   H2665     1.0  0.41776  0.86620  0.39655  1.0000
  C   C1522     1.0  0.42697  0.90091  0.33140  1.0000
  H   H2666     1.0  0.33433  0.60469  0.44802  1.0000
  H   H2667     1.0  0.45062  0.86267  0.57463  1.0000
  C   C1523     1.0  0.30030  0.57274  0.48005  1.0000
  H   H2668     1.0  0.38565  0.65284  0.45409  1.0000
  C   C1524     1.0  0.39972  0.86840  0.51920  1.0000
  H   H2669     1.0  0.41365  0.85401  0.35916  1.0000
  H   H2670     1.0  0.40356  0.65969  0.57621  1.0000
  H   H2671     1.0  0.40038  0.76251  0.58945  1.0000
  C   C1525     1.0  0.40600  0.88200  0.49985  1.0000
  S   S344      1.0  0.30700  0.52343  0.35238  1.0000
  H   H2672     1.0  0.44060  0.84147  0.61972  1.0000
  H   H2673     1.0  0.32790  0.58024  0.43271  1.0000
  H   H2674     1.0  0.29494  0.58719  0.47288  1.0000
  H   H2675     1.0  0.33542  0.64395  0.59778  1.0000
  C   C1526     1.0  0.36436  0.82300  0.62247  1.0000
  H   H2676     1.0  0.27643  0.78663  0.38563  1.0000
  H   H2677     1.0  0.34105  0.56820  0.38749  1.0000
  C   C1527     1.0  0.37472  0.83843  0.56811  1.0000
  H   H2678     1.0  0.43819  0.92126  0.37376  1.0000
  H   H2679     1.0  0.39521  0.86089  0.51276  1.0000
  H   H2680     1.0  0.38872  0.75600  0.54384  1.0000
  H   H2681     1.0  0.39372  0.85044  0.55953  1.0000
  C   C1528     1.0  0.37626  0.77848  0.57736  1.0000
  H   H2682     1.0  0.41022  0.89155  0.50450  1.0000
  C   C1529     1.0  0.26300  0.92547  0.35696  1.0000
  H   H2683     1.0  0.25962  0.77019  0.42372  1.0000
  C   C1530     1.0  0.37081  0.61416  0.60226  1.0000
  N   N83       1.0  0.25731  0.54141  0.37772  1.0000
  H   H2684     1.0  0.35360  0.62711  0.58524  1.0000
  H   H2685     1.0  0.33117  0.60763  0.58307  1.0000
  H   H2686     1.0  0.40422  0.73319  0.52705  1.0000
  H   H2687     1.0  0.41503  0.71949  0.53980  1.0000
  H   H2688     1.0  0.34312  0.57595  0.34782  1.0000
  H   H2689     1.0  0.27708  0.49846  0.33984  1.0000
  H   H2690     1.0  0.28895  0.90856  0.59229  1.0000
  C   C1531     1.0  0.31795  0.60263  0.45081  1.0000
  H   H2691     1.0  0.28891  0.57007  0.51012  1.0000
  S   S345      1.0  0.31576  0.56860  0.33172  1.0000
  H   H2692     1.0  0.37409  0.78650  0.56189  1.0000
  H   H2693     1.0  0.46811  0.99318  0.35113  1.0000
  H   H2694     1.0  0.41395  0.86744  0.54241  1.0000
  H   H2695     1.0  0.29486  0.91627  0.33625  1.0000
  H   H2696     1.0  0.24306  0.61618  0.37207  1.0000
  H   H2697     1.0  0.36758  0.80657  0.61952  1.0000
  H   H2698     1.0  0.27965  0.86824  0.60608  1.0000
  C   C1532     1.0  0.35109  0.59257  0.57188  1.0000
  H   H2699     1.0  0.38056  0.82922  0.57803  1.0000
  H   H2700     1.0  0.38401  0.84358  0.53653  1.0000
  H   H2701     1.0  0.39524  0.76952  0.55346  1.0000
  H   H2702     1.0  0.38084  0.78790  0.58126  1.0000
  H   H2703     1.0  0.29215  0.94391  0.37954  1.0000
  H   H2704     1.0  0.43693  0.77368  0.57327  1.0000
  H   H2705     1.0  0.28753  0.55514  0.49282  1.0000
  H   H2706     1.0  0.42994  0.64627  0.52102  1.0000
  H   H2707     1.0  0.29722  0.72299  0.41264  1.0000
  C   C1533     1.0  0.38587  0.72755  0.63281  1.0000
  S   S346      1.0  0.28431  0.57154  0.34018  1.0000
  H   H2708     1.0  0.41828  0.87785  0.47157  1.0000
  H   H2709     1.0  0.34579  0.58407  0.56876  1.0000
  C   C1534     1.0  0.33779  0.54725  0.62915  1.0000
  H   H2710     1.0  0.46563  0.80696  0.56654  1.0000
  H   H2711     1.0  0.46534  0.80085  0.61375  1.0000
  H   H2712     1.0  0.42431  0.89637  0.39174  1.0000
  H   H2713     1.0  0.27327  0.53010  0.42679  1.0000
  H   H2714     1.0  0.42364  0.91479  0.35821  1.0000
  C   C1535     1.0  0.32747  0.53665  0.43687  1.0000
  H   H2715     1.0  0.43847  0.78615  0.60333  1.0000
  H   H2716     1.0  0.41609  0.90062  0.55011  1.0000
  H   H2717     1.0  0.40989  0.69186  0.57573  1.0000
  H   H2718     1.0  0.32707  0.59709  0.47482  1.0000
  C   C1536     1.0  0.45082  0.78383  0.57490  1.0000
  C   C1537     1.0  0.40379  0.69355  0.56675  1.0000
  H   H2719     1.0  0.38494  0.78824  0.39183  1.0000
  S   S347      1.0  0.32645  0.53235  0.36858  1.0000
  C   C1538     1.0  0.33084  0.59965  0.38527  1.0000
  H   H2720     1.0  0.28575  0.89399  0.63083  1.0000
  C   C1539     1.0  0.44718  0.87842  0.35753  1.0000
  C   C1540     1.0  0.28634  0.94026  0.35394  1.0000
  C   C1541     1.0  0.41439  0.86777  0.48615  1.0000
  C   C1542     1.0  0.44576  0.76858  0.56951  1.0000
  C   C1543     1.0  0.26068  0.53925  0.39789  1.0000
  N   N84       1.0  0.34631  0.59964  0.59251  1.0000
  H   H2721     1.0  0.36790  0.84789  0.57760  1.0000
  C   C1544     1.0  0.27298  0.54642  0.41665  1.0000
  H   H2722     1.0  0.42533  0.92480  0.40761  1.0000
  C   C1545     1.0  0.43632  0.86217  0.65391  1.0000
  H   H2723     1.0  0.32478  0.56861  0.46001  1.0000
  H   H2724     1.0  0.36699  0.61828  0.61789  1.0000
  C   C1546     1.0  0.32232  0.64856  0.58335  1.0000
  H   H2725     1.0  0.28463  0.83508  0.62161  1.0000
  H   H2726     1.0  0.32962  0.57576  0.61122  1.0000
  H   H2727     1.0  0.32040  0.64364  0.57063  1.0000
  H   H2728     1.0  0.33200  0.53804  0.62920  1.0000
  H   H2729     1.0  0.32455  0.52626  0.45217  1.0000
  H   H2730     1.0  0.28249  0.59449  0.41213  1.0000
  H   H2731     1.0  0.43647  0.86556  0.58579  1.0000
  H   H2732     1.0  0.28785  0.91921  0.38462  1.0000
  H   H2733     1.0  0.32246  0.63233  0.38549  1.0000
  H   H2734     1.0  0.44901  0.80826  0.63589  1.0000
  H   H2735     1.0  0.36252  0.53452  0.33597  1.0000
  H   H2736     1.0  0.29786  0.84444  0.63063  1.0000
  C   C1547     1.0  0.26596  0.52767  0.36441  1.0000
  H   H2737     1.0  0.31495  0.82023  0.36111  1.0000
  H   H2738     1.0  0.45958  0.77808  0.57052  1.0000
  C   C1548     1.0  0.43071  0.90465  0.34967  1.0000
  C   C1549     1.0  0.33791  0.56623  0.61021  1.0000
  H   H2739     1.0  0.33001  0.61024  0.60896  1.0000
  H   H2740     1.0  0.37918  0.60557  0.60247  1.0000
  H   H2741     1.0  0.36916  0.59573  0.58235  1.0000
  C   C1550     1.0  0.31819  0.55459  0.42939  1.0000
  H   H2742     1.0  0.32142  0.56301  0.41309  1.0000
  H   H2743     1.0  0.29786  0.56720  0.42185  1.0000
  H   H2744     1.0  0.33383  0.54335  0.43864  1.0000
  C   C1551     1.0  0.44658  0.84059  0.60468  1.0000
  S   S348      1.0  0.33870  0.81455  0.63285  1.0000
  H   H2745     1.0  0.34690  0.84733  0.64520  1.0000
  C   C1552     1.0  0.28363  0.89865  0.59160  1.0000
  H   H2746     1.0  0.25024  0.95208  0.36586  1.0000
  H   H2747     1.0  0.44715  0.90011  0.38755  1.0000
  H   H2748     1.0  0.31653  0.64445  0.59840  1.0000
  H   H2749     1.0  0.25409  0.54740  0.40910  1.0000
  H   H2750     1.0  0.44839  0.76882  0.55235  1.0000
  C   C1553     1.0  0.44443  0.86229  0.58951  1.0000
  H   H2751     1.0  0.40785  0.69136  0.55057  1.0000
  H   H2752     1.0  0.30944  0.72659  0.41629  1.0000
  H   H2753     1.0  0.35768  0.83079  0.61432  1.0000
  H   H2754     1.0  0.29461  0.60340  0.39816  1.0000
  S   S349      1.0  0.48428  0.90275  0.39725  1.0000
  C   C1554     1.0  0.30291  0.90522  0.64341  1.0000
  H   H2755     1.0  0.34941  0.61655  0.61245  1.0000
  H   H2756     1.0  0.33605  0.64893  0.63671  1.0000
  H   H2757     1.0  0.43690  0.82339  0.59784  1.0000
  H   H2758     1.0  0.34347  0.58429  0.62568  1.0000
  H   H2759     1.0  0.34032  0.55963  0.59579  1.0000
  H   H2760     1.0  0.30165  0.55022  0.46090  1.0000
  Fe  Fe174     1.0  0.32260  0.53307  0.33783  1.0000
  H   H2761     1.0  0.39455  0.67554  0.59415  1.0000
  H   H2762     1.0  0.26659  0.55798  0.42475  1.0000
  C   C1555     1.0  0.34386  0.75416  0.62520  1.0000
  S   S350      1.0  0.32186  0.59532  0.37234  1.0000
  H   H2763     1.0  0.37081  0.83203  0.61572  1.0000
  C   C1556     1.0  0.24811  0.60393  0.36307  1.0000
  H   H2764     1.0  0.40864  0.76822  0.52552  1.0000
  H   H2765     1.0  0.42836  0.73540  0.50949  1.0000
  H   H2766     1.0  0.32427  0.62442  0.46033  1.0000
  C   C1557     1.0  0.29546  0.58154  0.42868  1.0000
  H   H2767     1.0  0.28984  0.57798  0.44410  1.0000
  C   C1558     1.0  0.43043  0.86606  0.36781  1.0000
  H   H2768     1.0  0.44459  0.87512  0.59695  1.0000
  H   H2769     1.0  0.28386  0.90872  0.35559  1.0000
  H   H2770     1.0  0.43527  0.87574  0.39818  1.0000
  H   H2771     1.0  0.36688  0.59139  0.53430  1.0000
  H   H2772     1.0  0.32577  0.77799  0.59434  1.0000
  C   C1559     1.0  0.43366  0.91582  0.40764  1.0000
  H   H2773     1.0  0.29061  0.95230  0.34247  1.0000
  Fe  Fe175     1.0  0.31906  0.88716  0.60102  1.0000
  C   C1560     1.0  0.24681  0.51131  0.39550  1.0000
  C   C1561     1.0  0.34573  0.57981  0.61003  1.0000
  S   S351      1.0  0.31750  0.59062  0.65302  1.0000
  H   H2774     1.0  0.35802  0.62051  0.55351  1.0000
  H   H2775     1.0  0.26927  0.52786  0.64434  1.0000
  H   H2776     1.0  0.44860  0.82576  0.57850  1.0000
  Fe  Fe176     1.0  0.31011  0.52555  0.38255  1.0000
  H   H2777     1.0  0.45111  0.89143  0.35653  1.0000
  H   H2778     1.0  0.35581  0.80960  0.65319  1.0000
  C   C1562     1.0  0.44558  0.82221  0.59584  1.0000
  H   H2779     1.0  0.35871  0.58057  0.57275  1.0000
  H   H2780     1.0  0.24060  0.54489  0.39280  1.0000
  H   H2781     1.0  0.36963  0.77261  0.64800  1.0000
  C   C1563     1.0  0.33508  0.61292  0.59275  1.0000
  H   H2782     1.0  0.46673  0.82579  0.57977  1.0000
  C   C1564     1.0  0.30514  0.58810  0.43163  1.0000
  C   C1565     1.0  0.32119  0.57956  0.44680  1.0000
  H   H2783     1.0  0.30961  0.59517  0.41582  1.0000
  C   C1566     1.0  0.35880  0.60089  0.53255  1.0000
  H   H2784     1.0  0.30872  0.72366  0.39103  1.0000
  C   C1567     1.0  0.39793  0.67533  0.57722  1.0000
  H   H2785     1.0  0.39141  0.67677  0.56936  1.0000
  N   N85       1.0  0.43525  0.88501  0.36481  1.0000
  H   H2786     1.0  0.41953  0.75344  0.53845  1.0000
  H   H2787     1.0  0.35365  0.56866  0.60942  1.0000
  H   H2788     1.0  0.34765  0.81656  0.33771  1.0000
  H   H2789     1.0  0.43763  0.80145  0.63328  1.0000
  C   C1568     1.0  0.33818  0.79223  0.62448  1.0000
  C   C1569     1.0  0.24872  0.58163  0.37754  1.0000
  H   H2790     1.0  0.28587  0.89533  0.57552  1.0000
  H   H2791     1.0  0.44969  0.88699  0.32307  1.0000
  C   C1570     1.0  0.28635  0.92246  0.34318  1.0000
  H   H2792     1.0  0.36166  0.62942  0.35377  1.0000
  N   N86       1.0  0.45076  0.79996  0.60600  1.0000
  H   H2793     1.0  0.27801  0.53673  0.38705  1.0000
  H   H2794     1.0  0.26362  0.90883  0.35599  1.0000
  H   H2795     1.0  0.33528  0.82704  0.35417  1.0000
  H   H2796     1.0  0.45056  0.76727  0.60671  1.0000
  H   H2797     1.0  0.43181  0.86753  0.64165  1.0000
  C   C1571     1.0  0.34109  0.81208  0.35110  1.0000
  H   H2798     1.0  0.28771  0.64097  0.65112  1.0000
  H   H2799     1.0  0.26727  0.95503  0.33757  1.0000
  H   H2800     1.0  0.35868  0.85630  0.64107  1.0000
  H   H2801     1.0  0.27850  0.52460  0.32361  1.0000
  C   C1572     1.0  0.35519  0.63240  0.34525  1.0000
  C   C1573     1.0  0.39560  0.73117  0.63365  1.0000
  Fe  Fe177     1.0  0.39878  0.80890  0.64026  1.0000
  H   H2802     1.0  0.36896  0.74032  0.63709  1.0000
  H   H2803     1.0  0.45859  0.76819  0.63886  1.0000
  C   C1574     1.0  0.36071  0.82188  0.64621  1.0000
  C   C1575     1.0  0.44648  0.79708  0.62961  1.0000
  H   H2804     1.0  0.33697  0.80207  0.34675  1.0000
  H   H2805     1.0  0.24456  0.60505  0.34963  1.0000
  H   H2806     1.0  0.48628  0.92870  0.65134  1.0000
  H   H2807     1.0  0.36799  0.81630  0.65248  1.0000
  H   H2808     1.0  0.25742  0.51298  0.35074  1.0000
  C   C1576     1.0  0.27271  0.81730  0.63954  1.0000
  H   H2809     1.0  0.25342  0.49956  0.38815  1.0000
  C   C1577     1.0  0.37695  0.76132  0.64355  1.0000
  H   H2810     1.0  0.31543  0.87685  0.64628  1.0000
  C   C1578     1.0  0.46343  0.86420  0.33126  1.0000
  H   H2811     1.0  0.28973  0.93234  0.64587  1.0000
  H   H2812     1.0  0.46750  0.87685  0.33085  1.0000
  H   H2813     1.0  0.26788  0.56925  0.32185  1.0000
  H   H2814     1.0  0.44775  0.85989  0.33449  1.0000
  H   H2815     1.0  0.48425  0.80963  0.56081  1.0000
  H   H2816     1.0  0.48726  0.99297  0.33393  1.0000
  C   C1579     1.0  0.27672  0.84700  0.65111  1.0000
  C   C1580     1.0  0.29545  0.85213  0.64432  1.0000
  H   H2817     1.0  0.26890  0.85600  0.64722  1.0000
  N   N87       1.0  0.28372  0.86240  0.64838  1.0000
  C   C1581     1.0  0.29456  0.91868  0.65444  1.0000
  S   S352      1.0  0.38689  0.78713  0.65397  1.0000
  Fe  Fe178     1.0  0.25046  0.87929  0.32374  1.0000
  H   H2818     1.0  0.26324  0.94025  0.32422  1.0000
  H   H2819     1.0  0.48134  0.97961  0.32193  1.0000
  H   H2820     1.0  0.25997  0.96669  0.90249  1.0000
  C   C1582     1.0  0.26974  0.88498  0.67370  1.0000
  H   H2821     1.0  0.40206  0.90413  0.78284  1.0000
  H   H2822     1.0  0.28325  0.62439  0.67642  1.0000
  C   C1583     1.0  0.33410  0.59156  0.66949  1.0000
  C   C1584     1.0  0.24881  0.94627  0.88689  1.0000
  C   C1585     1.0  0.33418  0.83242  0.68512  1.0000
  S   S353      1.0  0.31409  0.54845  0.70996  1.0000
  C   C1586     1.0  0.33829  0.88076  0.66127  1.0000
  H   H2823     1.0  0.27131  0.51569  0.84860  1.0000
  Fe  Fe179     1.0  0.29634  0.55393  0.72079  1.0000
  S   S354      1.0  0.28763  0.56666  0.74987  1.0000
  H   H2824     1.0  0.36620  0.82353  0.68200  1.0000
  S   S355      1.0  0.29331  0.57147  0.68895  1.0000
  Fe  Fe180     1.0  0.27556  0.95097  0.75145  1.0000
  S   S356      1.0  0.25850  0.94832  0.76418  1.0000
  C   C1587     1.0  0.24590  0.89441  0.81020  1.0000
  Fe  Fe181     1.0  0.28168  0.91192  0.73227  1.0000
  S   S357      1.0  0.26525  0.90527  0.74394  1.0000
  S   S358      1.0  0.29514  0.88932  0.71552  1.0000
  Fe  Fe182     1.0  0.25971  0.94072  0.73321  1.0000
  S   S359      1.0  0.24674  0.95191  0.71493  1.0000
  Fe  Fe183     1.0  0.26545  0.91331  0.77388  1.0000
  S   S360      1.0  0.25910  0.89627  0.80672  1.0000
  S   S361      1.0  0.27615  0.94695  0.71915  1.0000
  S   S362      1.0  0.28247  0.91647  0.76351  1.0000
  H   H2825     1.0  0.23740  0.96216  0.82199  1.0000
  H   H2826     1.0  0.28392  0.67525  0.75892  1.0000
  S   S363      1.0  0.27398  0.97534  0.85350  1.0000
  C   C1588     1.0  0.42563  0.91077  0.72011  1.0000
  H   H2827     1.0  0.27814  0.52287  0.76996  1.0000
  H   H2828     1.0  0.30088  0.65615  0.74021  1.0000
  S   S364      1.0  0.23991  0.56094  0.76254  1.0000
  H   H2829     1.0  0.44138  0.90684  0.69896  1.0000
  H   H2830     1.0  0.28663  0.64544  0.71743  1.0000
  H   H2831     1.0  0.41220  0.90951  0.69710  1.0000
  H   H2832     1.0  0.24053  0.95607  0.88943  1.0000
  H   H2833     1.0  0.27472  0.83858  0.66796  1.0000
  H   H2834     1.0  0.43811  0.88129  0.74285  1.0000
  S   S365      1.0  0.44533  0.91545  0.76417  1.0000
  C   C1589     1.0  0.24313  0.91274  0.89412  1.0000
  N   N88       1.0  0.24942  0.92773  0.87742  1.0000
  H   H2835     1.0  0.28305  0.99421  0.90031  1.0000
  H   H2836     1.0  0.24984  0.94352  0.81475  1.0000
  S   S366      1.0  0.35379  0.63221  0.65787  1.0000
  S   S367      1.0  0.47066  0.98112  0.82976  1.0000
  H   H2837     1.0  0.29572  0.61495  0.65928  1.0000
  C   C1590     1.0  0.37324  0.84067  0.70589  1.0000
  C   C1591     1.0  0.43309  0.91525  0.69804  1.0000
  Fe  Fe184     1.0  0.45909  0.97640  0.86071  1.0000
  S   S368      1.0  0.46091  0.94645  0.88620  1.0000
  C   C1592     1.0  0.29111  0.51364  0.79855  1.0000
  H   H2838     1.0  0.25007  0.57741  0.87347  1.0000
  H   H2839     1.0  0.26932  0.81025  0.65620  1.0000
  N   N89       1.0  0.30369  0.63281  0.70834  1.0000
  C   C1593     1.0  0.43493  0.85036  0.74417  1.0000
  H   H2840     1.0  0.43356  0.84197  0.73337  1.0000
  H   H2841     1.0  0.44078  0.82147  0.69582  1.0000
  H   H2842     1.0  0.45253  0.84367  0.69796  1.0000
  C   C1594     1.0  0.44790  0.93747  0.76994  1.0000
  C   C1595     1.0  0.45442  0.94982  0.75442  1.0000
  C   C1596     1.0  0.45717  0.96657  0.75898  1.0000
  C   C1597     1.0  0.45346  0.97117  0.77907  1.0000
  C   C1598     1.0  0.44682  0.95901  0.79469  1.0000
  C   C1599     1.0  0.44398  0.94219  0.79006  1.0000
  C   C1600     1.0  0.24662  0.51730  0.70626  1.0000
  H   H2843     1.0  0.28684  0.87993  0.66784  1.0000
  H   H2844     1.0  0.24598  0.60609  0.87156  1.0000
  H   H2845     1.0  0.24630  0.93285  0.92104  1.0000
  C   C1601     1.0  0.29036  0.62920  0.66490  1.0000
  H   H2846     1.0  0.24266  0.98344  0.67819  1.0000
  H   H2847     1.0  0.29368  0.61460  0.70372  1.0000
  H   H2848     1.0  0.46736  0.90841  0.91541  1.0000
  H   H2849     1.0  0.25936  0.51910  0.78753  1.0000
  H   H2850     1.0  0.24959  0.97162  0.80969  1.0000
  H   H2851     1.0  0.31189  0.57177  0.74619  1.0000
  H   H2852     1.0  0.47848  0.95392  0.77066  1.0000
  H   H2853     1.0  0.44730  0.84606  0.76126  1.0000
  C   C1602     1.0  0.30013  0.62323  0.69426  1.0000
  C   C1603     1.0  0.40922  0.88313  0.68899  1.0000
  H   H2854     1.0  0.24249  0.89292  0.84342  1.0000
  C   C1604     1.0  0.34313  0.62145  0.65782  1.0000
  H   H2855     1.0  0.25544  0.95511  0.92996  1.0000
  H   H2856     1.0  0.29407  0.82383  0.67056  1.0000
  H   H2857     1.0  0.24746  0.97714  0.97078  1.0000
  H   H2858     1.0  0.25415  0.55282  0.69974  1.0000
  H   H2859     1.0  0.26201  0.51938  0.75999  1.0000
  H   H2860     1.0  0.33407  0.83410  0.66843  1.0000
  H   H2861     1.0  0.48440  0.96178  0.78743  1.0000
  C   C1605     1.0  0.29832  0.89635  0.68780  1.0000
  C   C1606     1.0  0.29228  0.91430  0.67661  1.0000
  H   H2862     1.0  0.25933  0.89997  0.69908  1.0000
  H   H2863     1.0  0.47290  0.98573  0.90699  1.0000
  H   H2864     1.0  0.48325  0.87872  0.91357  1.0000
  C   C1607     1.0  0.30676  0.88305  0.67674  1.0000
  N   N90       1.0  0.28214  0.50175  0.80818  1.0000
  C   C1608     1.0  0.47661  0.93531  0.80301  1.0000
  H   H2865     1.0  0.31137  0.86906  0.68535  1.0000
  C   C1609     1.0  0.28046  0.97562  0.78348  1.0000
  C   C1610     1.0  0.27842  0.95726  0.79868  1.0000
  C   C1611     1.0  0.27726  0.95664  0.82013  1.0000
  C   C1612     1.0  0.27736  0.97484  0.82655  1.0000
  H   H2866     1.0  0.35199  0.87862  0.67231  1.0000
  N   N91       1.0  0.35186  0.84568  0.67388  1.0000
  H   H2867     1.0  0.27773  0.94354  0.79396  1.0000
  H   H2868     1.0  0.27586  0.94237  0.83178  1.0000
  H   H2869     1.0  0.24336  0.53335  0.66642  1.0000
  H   H2870     1.0  0.32939  0.81049  0.71493  1.0000
  C   C1613     1.0  0.28100  0.87059  0.66844  1.0000
  H   H2871     1.0  0.42538  0.87976  0.77301  1.0000
  N   N92       1.0  0.42443  0.88790  0.72891  1.0000
  H   H2872     1.0  0.26510  0.50975  0.82056  1.0000
  H   H2873     1.0  0.31961  0.64217  0.72217  1.0000
  C   C1614     1.0  0.43497  0.87421  0.73329  1.0000
  C   C1615     1.0  0.24482  0.59238  0.86672  1.0000
  C   C1616     1.0  0.25286  0.56434  0.75920  1.0000
  C   C1617     1.0  0.25983  0.56359  0.73963  1.0000
  C   C1618     1.0  0.27047  0.56443  0.73677  1.0000
  C   C1619     1.0  0.27410  0.56711  0.75318  1.0000
  C   C1620     1.0  0.26701  0.56894  0.77254  1.0000
  C   C1621     1.0  0.25643  0.56707  0.77574  1.0000
  H   H2874     1.0  0.25710  0.56161  0.72686  1.0000
  H   H2875     1.0  0.27584  0.56287  0.72183  1.0000
  H   H2876     1.0  0.26981  0.57123  0.78514  1.0000
  H   H2877     1.0  0.25103  0.56791  0.79085  1.0000
  C   C1622     1.0  0.31700  0.59769  0.72069  1.0000
  H   H2878     1.0  0.37687  0.82338  0.70661  1.0000
  C   C1623     1.0  0.48025  0.92570  0.86506  1.0000
  H   H2879     1.0  0.25382  0.95734  0.87579  1.0000
  H   H2880     1.0  0.29124  0.63954  0.75089  1.0000
  H   H2881     1.0  0.27679  0.67109  0.74182  1.0000
  C   C1624     1.0  0.44556  0.83851  0.75016  1.0000
  C   C1625     1.0  0.27695  0.51490  0.67072  1.0000
  H   H2882     1.0  0.43891  0.93268  0.80210  1.0000
  C   C1626     1.0  0.29432  0.64963  0.71635  1.0000
  H   H2883     1.0  0.28171  0.85703  0.68235  1.0000
  H   H2884     1.0  0.47858  0.86033  0.80090  1.0000
  H   H2885     1.0  0.35880  0.86342  0.70152  1.0000
  H   H2886     1.0  0.34452  0.83001  0.70499  1.0000
  H   H2887     1.0  0.35003  0.81299  0.68699  1.0000
  C   C1627     1.0  0.43294  0.93915  0.69009  1.0000
  H   H2888     1.0  0.28571  0.92453  0.68499  1.0000
  C   C1628     1.0  0.30022  0.50481  0.78113  1.0000
  H   H2889     1.0  0.31547  0.51043  0.76161  1.0000
  C   C1629     1.0  0.27760  0.98720  0.93464  1.0000
  H   H2890     1.0  0.29071  0.97030  0.91390  1.0000
  H   H2891     1.0  0.32731  0.66898  0.67811  1.0000
  H   H2892     1.0  0.32895  0.84681  0.69070  1.0000
  H   H2893     1.0  0.47126  0.98698  0.70846  1.0000
  C   C1630     1.0  0.31296  0.64275  0.69537  1.0000
  H   H2894     1.0  0.30005  0.60655  0.73438  1.0000
  Fe  Fe185     1.0  0.31255  0.51799  0.70402  1.0000
  H   H2895     1.0  0.27027  0.53095  0.80187  1.0000
  C   C1631     1.0  0.25601  0.58759  0.67025  1.0000
  H   H2896     1.0  0.25669  0.54407  0.67608  1.0000
  C   C1632     1.0  0.31790  0.65304  0.70724  1.0000
  H   H2897     1.0  0.41964  0.86314  0.72089  1.0000
  H   H2898     1.0  0.44523  0.82161  0.75804  1.0000
  H   H2899     1.0  0.42867  0.84876  0.75885  1.0000
  H   H2900     1.0  0.43079  0.90996  0.68605  1.0000
  H   H2901     1.0  0.27952  0.53333  0.83041  1.0000
  C   C1633     1.0  0.41581  0.88730  0.74883  1.0000
  C   C1634     1.0  0.28150  0.99311  0.78983  1.0000
  C   C1635     1.0  0.27208  0.52765  0.83338  1.0000
  H   H2902     1.0  0.43524  0.94538  0.70147  1.0000
  C   C1636     1.0  0.24829  0.95571  0.84256  1.0000
  C   C1637     1.0  0.34222  0.60094  0.67006  1.0000
  S   S369      1.0  0.45730  0.99242  0.78354  1.0000
  Fe  Fe186     1.0  0.31103  0.56354  0.67750  1.0000
  C   C1638     1.0  0.32838  0.65879  0.69380  1.0000
  C   C1639     1.0  0.25345  0.95977  0.91418  1.0000
  C   C1640     1.0  0.24026  0.89535  0.88684  1.0000
  Fe  Fe187     1.0  0.46460  0.89011  0.69633  1.0000
  H   H2903     1.0  0.46927  0.94670  0.80890  1.0000
  C   C1641     1.0  0.26410  0.51010  0.77522  1.0000
  H   H2904     1.0  0.32604  0.56750  0.73544  1.0000
  N   N93       1.0  0.24152  0.53994  0.69695  1.0000
  C   C1642     1.0  0.24189  0.89409  0.79325  1.0000
  H   H2905     1.0  0.43801  0.77930  0.67189  1.0000
  H   H2906     1.0  0.28799  0.53064  0.79115  1.0000
  H   H2907     1.0  0.41773  0.92183  0.71949  1.0000
  Fe  Fe188     1.0  0.47609  0.92262  0.70131  1.0000
  H   H2908     1.0  0.41126  0.89490  0.80018  1.0000
  S   S370      1.0  0.24843  0.50104  0.85743  1.0000
  H   H2909     1.0  0.31934  0.63083  0.68767  1.0000
  C   C1643     1.0  0.36240  0.84087  0.68034  1.0000
  H   H2910     1.0  0.28019  0.50038  0.75917  1.0000
  H   H2911     1.0  0.32619  0.89709  0.68415  1.0000
  C   C1644     1.0  0.24611  0.95835  0.82090  1.0000
  H   H2912     1.0  0.37844  0.85031  0.69328  1.0000
  S   S371      1.0  0.45767  0.88436  0.67109  1.0000
  H   H2913     1.0  0.40411  0.89374  0.71815  1.0000
  H   H2914     1.0  0.27331  0.89629  0.69785  1.0000
  H   H2915     1.0  0.33383  0.79864  0.69192  1.0000
  H   H2916     1.0  0.31290  0.51490  0.78787  1.0000
  H   H2917     1.0  0.27757  0.97253  0.94736  1.0000
  H   H2918     1.0  0.29723  0.50666  0.76681  1.0000
  H   H2919     1.0  0.40828  0.86638  0.69600  1.0000
  H   H2920     1.0  0.43873  0.94174  0.67474  1.0000
  C   C1645     1.0  0.36205  0.84616  0.70160  1.0000
  C   C1646     1.0  0.25234  0.94010  0.90820  1.0000
  S   S372      1.0  0.42753  0.82566  0.66721  1.0000
  C   C1647     1.0  0.27605  0.50710  0.77335  1.0000
  H   H2921     1.0  0.26931  0.90093  0.66272  1.0000
  H   H2922     1.0  0.31325  0.81045  0.66972  1.0000
  H   H2923     1.0  0.42802  0.87698  0.69978  1.0000
  C   C1648     1.0  0.47350  0.91686  0.79781  1.0000
  C   C1649     1.0  0.41128  0.89296  0.70507  1.0000
  H   H2924     1.0  0.29062  0.65391  0.67917  1.0000
  S   S373      1.0  0.45897  0.92334  0.70297  1.0000
  S   S374      1.0  0.28126  0.97746  0.75663  1.0000
  H   H2925     1.0  0.46233  0.97579  0.74691  1.0000
  C   C1650     1.0  0.29939  0.83528  0.66315  1.0000
  S   S375      1.0  0.29496  0.52220  0.71752  1.0000
  H   H2926     1.0  0.45734  0.94657  0.73878  1.0000
  H   H2927     1.0  0.26144  0.51841  0.71350  1.0000
  C   C1651     1.0  0.29619  0.63924  0.67491  1.0000
  C   C1652     1.0  0.47880  0.88672  0.82765  1.0000
  H   H2928     1.0  0.40181  0.89262  0.68372  1.0000
  H   H2929     1.0  0.34177  0.86839  0.69266  1.0000
  Fe  Fe189     1.0  0.47979  0.87738  0.72700  1.0000
  C   C1653     1.0  0.32933  0.81326  0.69796  1.0000
  H   H2930     1.0  0.29480  0.51457  0.81107  1.0000
  C   C1654     1.0  0.28253  0.98011  0.91369  1.0000
  H   H2931     1.0  0.26065  0.96448  0.95893  1.0000
  H   H2932     1.0  0.47704  0.87074  0.83616  1.0000
  H   H2933     1.0  0.30667  0.61094  0.68763  1.0000
  S   S376      1.0  0.28092  0.53881  0.66795  1.0000
  C   C1655     1.0  0.30923  0.51689  0.77439  1.0000
  H   H2934     1.0  0.24699  0.89475  0.77769  1.0000
  H   H2935     1.0  0.32618  0.91001  0.65696  1.0000
  S   S377      1.0  0.46306  0.87379  0.73066  1.0000
  H   H2936     1.0  0.35711  0.83682  0.71502  1.0000
  S   S378      1.0  0.31099  0.53248  0.67036  1.0000
  H   H2937     1.0  0.24058  0.50750  0.71416  1.0000
  H   H2938     1.0  0.33134  0.66768  0.70189  1.0000
  H   H2939     1.0  0.42489  0.94823  0.68772  1.0000
  C   C1656     1.0  0.47348  0.90862  0.90104  1.0000
  H   H2940     1.0  0.24717  0.59504  0.84922  1.0000
  H   H2941     1.0  0.24494  0.92392  0.85036  1.0000
  H   H2942     1.0  0.28650  0.68786  0.73127  1.0000
  H   H2943     1.0  0.32415  0.60483  0.71506  1.0000
  C   C1657     1.0  0.42129  0.87937  0.71351  1.0000
  S   S379      1.0  0.44450  0.98886  0.84676  1.0000
  C   C1658     1.0  0.24418  0.93658  0.85877  1.0000
  Fe  Fe190     1.0  0.29340  0.53927  0.68445  1.0000
  C   C1659     1.0  0.40909  0.89161  0.78682  1.0000
  H   H2944     1.0  0.36808  0.84961  0.66782  1.0000
  C   C1660     1.0  0.47236  0.92571  0.88370  1.0000
  H   H2945     1.0  0.34797  0.59208  0.67962  1.0000
  C   C1661     1.0  0.26269  0.54669  0.83603  1.0000
  H   H2946     1.0  0.23994  0.58480  0.68561  1.0000
  H   H2947     1.0  0.41339  0.87161  0.75404  1.0000
  N   N94       1.0  0.46992  0.90001  0.81666  1.0000
  H   H2948     1.0  0.25185  0.50919  0.69348  1.0000
  C   C1662     1.0  0.46502  0.88603  0.80957  1.0000
  C   C1663     1.0  0.46126  0.91136  0.83216  1.0000
  H   H2949     1.0  0.25823  0.58799  0.68481  1.0000
  H   H2950     1.0  0.48026  0.90974  0.78623  1.0000
  H   H2951     1.0  0.42892  0.91607  0.73080  1.0000
  C   C1664     1.0  0.45533  0.89682  0.85139  1.0000
  C   C1665     1.0  0.47246  0.87279  0.79348  1.0000
  C   C1666     1.0  0.46615  0.86115  0.78631  1.0000
  C   C1667     1.0  0.34556  0.82955  0.68823  1.0000
  C   C1668     1.0  0.44863  0.90930  0.86822  1.0000
  C   C1669     1.0  0.30679  0.61484  0.72639  1.0000
  H   H2952     1.0  0.24979  0.52620  0.73291  1.0000
  H   H2953     1.0  0.46188  0.87394  0.82320  1.0000
  H   H2954     1.0  0.45805  0.89599  0.80275  1.0000
  H   H2955     1.0  0.45511  0.92294  0.82401  1.0000
  H   H2956     1.0  0.46459  0.92111  0.83873  1.0000
  H   H2957     1.0  0.31055  0.65571  0.68203  1.0000
  S   S380      1.0  0.23766  0.50916  0.80568  1.0000
  H   H2958     1.0  0.26700  0.87362  0.70797  1.0000
  C   C1670     1.0  0.44131  0.83644  0.68449  1.0000
  H   H2959     1.0  0.26337  0.55990  0.82185  1.0000
  H   H2960     1.0  0.46102  0.88317  0.85879  1.0000
  H   H2961     1.0  0.44978  0.89049  0.84638  1.0000
  H   H2962     1.0  0.33368  0.57546  0.67839  1.0000
  H   H2963     1.0  0.25503  0.54187  0.83871  1.0000
  H   H2964     1.0  0.46005  0.87285  0.77822  1.0000
  H   H2965     1.0  0.47162  0.85142  0.77509  1.0000
  H   H2966     1.0  0.46218  0.85025  0.79999  1.0000
  C   C1671     1.0  0.31878  0.57970  0.73998  1.0000
  C   C1672     1.0  0.28460  0.67316  0.74280  1.0000
  C   C1673     1.0  0.26722  0.88888  0.69602  1.0000
  H   H2967     1.0  0.45386  0.91442  0.87519  1.0000
  H   H2968     1.0  0.44306  0.92365  0.86137  1.0000
  H   H2969     1.0  0.44391  0.89894  0.88108  1.0000
  H   H2970     1.0  0.41591  0.88322  0.67492  1.0000
  H   H2971     1.0  0.31237  0.66810  0.71074  1.0000
  H   H2972     1.0  0.30828  0.62092  0.73877  1.0000
  H   H2973     1.0  0.46706  0.92444  0.78885  1.0000
  H   H2974     1.0  0.37283  0.84428  0.72124  1.0000
  H   H2975     1.0  0.42050  0.90791  0.76385  1.0000
  H   H2976     1.0  0.24487  0.57657  0.66069  1.0000
  H   H2977     1.0  0.44386  0.96265  0.81020  1.0000
  H   H2978     1.0  0.31656  0.59036  0.70825  1.0000
  H   H2979     1.0  0.29960  0.84335  0.67537  1.0000
  H   H2980     1.0  0.27770  0.97032  0.91100  1.0000
  C   C1674     1.0  0.24690  0.57590  0.67576  1.0000
  H   H2981     1.0  0.47645  0.88295  0.77922  1.0000
  C   C1675     1.0  0.34612  0.86830  0.67600  1.0000
  Fe  Fe191     1.0  0.45846  0.90687  0.73685  1.0000
  H   H2982     1.0  0.40697  0.87567  0.79195  1.0000
  C   C1676     1.0  0.44891  0.86830  0.67109  1.0000
  S   S381      1.0  0.39859  0.83485  0.65620  1.0000
  S   S382      1.0  0.48293  0.95209  0.68433  1.0000
  H   H2983     1.0  0.45212  0.83851  0.73587  1.0000
  H   H2984     1.0  0.26262  0.55269  0.84986  1.0000
  H   H2985     1.0  0.30619  0.53420  0.76825  1.0000
  H   H2986     1.0  0.40844  0.89928  0.74573  1.0000
  H   H2987     1.0  0.25350  0.60431  0.66167  1.0000
  H   H2988     1.0  0.24747  0.88524  0.87905  1.0000
  C   C1677     1.0  0.23930  0.89321  0.83033  1.0000
  C   C1678     1.0  0.29337  0.65358  0.73848  1.0000
  H   H2989     1.0  0.47928  0.98890  0.73099  1.0000
  H   H2990     1.0  0.28367  0.49765  0.69771  1.0000
  C   C1679     1.0  0.25587  0.97177  0.97244  1.0000
  C   C1680     1.0  0.33139  0.90112  0.66827  1.0000
  H   H2991     1.0  0.26351  0.87757  0.67251  1.0000
  C   C1681     1.0  0.41852  0.89193  0.76786  1.0000
  H   H2992     1.0  0.24424  0.97072  0.84818  1.0000
  C   C1682     1.0  0.26103  0.91673  0.87137  1.0000
  C   C1683     1.0  0.26443  0.90619  0.85196  1.0000
  C   C1684     1.0  0.44794  0.84908  0.68584  1.0000
  C   C1685     1.0  0.25353  0.51492  0.72218  1.0000
  C   C1686     1.0  0.43549  0.84278  0.66846  1.0000
  H   H2993     1.0  0.24746  0.90429  0.90701  1.0000
  C   C1687     1.0  0.27596  0.89353  0.84946  1.0000
  S   S383      1.0  0.47499  0.90916  0.73587  1.0000
  H   H2994     1.0  0.33451  0.64401  0.69152  1.0000
  H   H2995     1.0  0.32094  0.81642  0.69649  1.0000
  C   C1688     1.0  0.27206  0.51750  0.81526  1.0000
  H   H2996     1.0  0.24588  0.97208  0.91470  1.0000
  H   H2997     1.0  0.26013  0.92850  0.90740  1.0000
  C   C1689     1.0  0.25027  0.55232  0.68741  1.0000
  H   H2998     1.0  0.44110  0.87405  0.71832  1.0000
  H   H2999     1.0  0.26630  0.92828  0.86771  1.0000
  H   H3000     1.0  0.26353  0.90430  0.88498  1.0000
  H   H3001     1.0  0.26388  0.91855  0.83720  1.0000
  H   H3002     1.0  0.25941  0.89511  0.85304  1.0000
  S   S384      1.0  0.48195  0.89071  0.69199  1.0000
  H   H3003     1.0  0.25695  0.95378  0.84072  1.0000
  H   H3004     1.0  0.47934  0.93863  0.85149  1.0000
  H   H3005     1.0  0.29423  0.66532  0.70487  1.0000
  C   C1690     1.0  0.24094  0.97933  0.71163  1.0000
  H   H3006     1.0  0.47923  0.89405  0.84028  1.0000
  C   C1691     1.0  0.27958  0.99305  0.81134  1.0000
  H   H3007     1.0  0.26826  0.98443  0.97709  1.0000
  H   H3008     1.0  0.31989  0.58606  0.75262  1.0000
  H   H3009     1.0  0.27822  0.88695  0.83500  1.0000
  H   H3010     1.0  0.28146  0.90402  0.84780  1.0000
  H   H3011     1.0  0.27688  0.87998  0.86324  1.0000
  H   H3012     1.0  0.45923  0.98966  0.68622  1.0000
  H   H3013     1.0  0.33643  0.91170  0.66867  1.0000
  H   H3014     1.0  0.48137  0.92925  0.81537  1.0000
  C   C1692     1.0  0.27926  0.49702  0.68677  1.0000
  H   H3015     1.0  0.24015  0.87137  0.91638  1.0000
  H   H3016     1.0  0.30309  0.64402  0.66261  1.0000
  C   C1693     1.0  0.31070  0.82274  0.65614  1.0000
  C   C1694     1.0  0.48248  0.89181  0.90000  1.0000
  C   C1695     1.0  0.26761  0.49540  0.65869  1.0000
  C   C1696     1.0  0.48298  0.94783  0.78347  1.0000
  H   H3017     1.0  0.33287  0.87118  0.66064  1.0000
  H   H3018     1.0  0.44949  0.75816  0.67593  1.0000
  C   C1697     1.0  0.44680  0.77447  0.66667  1.0000
  H   H3019     1.0  0.26313  0.57947  0.65999  1.0000
  H   H3020     1.0  0.45058  0.78570  0.67009  1.0000
  H   H3021     1.0  0.23786  0.98012  0.74449  1.0000
  H   H3022     1.0  0.23791  0.99054  0.78451  1.0000
  C   C1698     1.0  0.27104  0.51409  0.65682  1.0000
  C   C1699     1.0  0.32685  0.60271  0.65666  1.0000
  C   C1700     1.0  0.26015  0.99074  0.97362  1.0000
  H   H3023     1.0  0.26154  0.99211  0.93041  1.0000
  C   C1701     1.0  0.23948  0.99098  0.69159  1.0000
  C   C1702     1.0  0.44305  0.87468  0.65512  1.0000
  H   H3024     1.0  0.52071  0.08006  0.28040  1.0000
  H   H3025     1.0  0.72010  0.46697  0.17695  1.0000
  C   C1703     1.0  0.51891  0.06224  0.25141  1.0000
  H   H3026     1.0  0.52149  0.09724  0.20161  1.0000
  H   H3027     1.0  0.52283  0.00695  0.28033  1.0000
  C   C1704     1.0  0.52975  0.00718  0.19546  1.0000
  H   H3028     1.0  0.69343  0.48962  0.23173  1.0000
  C   C1705     1.0  0.52370  0.07898  0.23271  1.0000
  S   S385      1.0  0.50034  0.06181  0.20198  1.0000
  H   H3029     1.0  0.72140  0.47266  0.23700  1.0000
  C   C1706     1.0  0.71143  0.44317  0.28935  1.0000
  H   H3030     1.0  0.70742  0.40327  0.30997  1.0000
  H   H3031     1.0  0.51710  0.05044  0.24482  1.0000
  C   C1707     1.0  0.53590  0.02550  0.24206  1.0000
  H   H3032     1.0  0.70648  0.45596  0.24025  1.0000
  C   C1708     1.0  0.52247  0.00684  0.21494  1.0000
  H   H3033     1.0  0.50141  0.10300  0.29835  1.0000
  H   H3034     1.0  0.54146  0.04751  0.28920  1.0000
  N   N95       1.0  0.70632  0.42934  0.28239  1.0000
  H   H3035     1.0  0.53242  0.07340  0.22731  1.0000
  H   H3036     1.0  0.68800  0.40925  0.29118  1.0000
  C   C1709     1.0  0.48771  0.06301  0.31375  1.0000
  H   H3037     1.0  0.51157  0.02478  0.27013  1.0000
  H   H3038     1.0  0.55641  0.11941  0.31488  1.0000
  H   H3039     1.0  0.51093  0.07076  0.25898  1.0000
  H   H3040     1.0  0.72861  0.45158  0.29883  1.0000
  H   H3041     1.0  0.69376  0.43473  0.26563  1.0000
  C   C1710     1.0  0.69743  0.44393  0.27207  1.0000
  H   H3042     1.0  0.71847  0.42932  0.25356  1.0000
  H   H3043     1.0  0.68740  0.46678  0.23844  1.0000
  H   H3044     1.0  0.72572  0.38082  0.25093  1.0000
  H   H3045     1.0  0.54418  0.08551  0.27872  1.0000
  H   H3046     1.0  0.52352  0.03210  0.29958  1.0000
  H   H3047     1.0  0.69559  0.42298  0.31277  1.0000
  H   H3048     1.0  0.72273  0.09533  0.29741  1.0000
  C   C1711     1.0  0.51327  0.02333  0.21719  1.0000
  C   C1712     1.0  0.51138  0.04019  0.19994  1.0000
  C   C1713     1.0  0.51872  0.04054  0.18061  1.0000
  C   C1714     1.0  0.52782  0.02408  0.17836  1.0000
  C   C1715     1.0  0.54599  0.00801  0.23866  1.0000
  H   H3049     1.0  0.50775  0.02319  0.23226  1.0000
  H   H3050     1.0  0.51737  0.05364  0.16730  1.0000
  H   H3051     1.0  0.53343  0.02454  0.16330  1.0000
  C   C1716     1.0  0.69540  0.39954  0.29631  1.0000
  C   C1717     1.0  0.71431  0.41784  0.26625  1.0000
  C   C1718     1.0  0.53921  0.07903  0.29407  1.0000
  H   H3052     1.0  0.71685  0.49252  0.18419  1.0000
  H   H3053     1.0  0.70561  0.45800  0.29272  1.0000
  H   H3054     1.0  0.48832  0.03315  0.18908  1.0000
  H   H3055     1.0  0.71022  0.41126  0.25801  1.0000
  C   C1719     1.0  0.72320  0.39956  0.27447  1.0000
  H   H3056     1.0  0.54596  0.00068  0.22579  1.0000
  C   C1720     1.0  0.52818  0.06871  0.27474  1.0000
  H   H3057     1.0  0.54437  0.07262  0.30570  1.0000
  H   H3058     1.0  0.52072  0.06968  0.20685  1.0000
  H   H3059     1.0  0.53766  0.01232  0.31785  1.0000
  H   H3060     1.0  0.58798  0.03515  0.29229  1.0000
  H   H3061     1.0  0.57718  0.06360  0.31058  1.0000
  H   H3062     1.0  0.71778  0.44914  0.27628  1.0000
  H   H3063     1.0  0.50974  0.08873  0.21875  1.0000
  H   H3064     1.0  0.52946  0.05593  0.30781  1.0000
  H   H3065     1.0  0.73403  0.40023  0.24362  1.0000
  N   N96       1.0  0.52563  0.05136  0.26766  1.0000
  C   C1721     1.0  0.72195  0.44866  0.31260  1.0000
  C   C1722     1.0  0.72709  0.48061  0.23846  1.0000
  H   H3066     1.0  0.69094  0.45135  0.28404  1.0000
  H   H3067     1.0  0.51176  0.05009  0.29324  1.0000
  C   C1723     1.0  0.71610  0.43345  0.30944  1.0000
  H   H3068     1.0  0.53556  0.03708  0.22673  1.0000
  H   H3069     1.0  0.55322  0.01478  0.23415  1.0000
  C   C1724     1.0  0.51573  0.01997  0.28336  1.0000
  H   H3070     1.0  0.54240  0.04616  0.25198  1.0000
  H   H3071     1.0  0.72895  0.06749  0.30587  1.0000
  C   C1725     1.0  0.51910  0.03904  0.28670  1.0000
  H   H3072     1.0  0.71986  0.38709  0.28719  1.0000
  C   C1726     1.0  0.53467  0.06104  0.29230  1.0000
  C   C1727     1.0  0.70061  0.46238  0.25342  1.0000
  C   C1728     1.0  0.73113  0.03950  0.25638  1.0000
  H   H3073     1.0  0.71896  0.46823  0.20396  1.0000
  H   H3074     1.0  0.52901  0.01794  0.24627  1.0000
  H   H3075     1.0  0.53885  0.02452  0.27235  1.0000
  C   C1729     1.0  0.51856  0.08393  0.21388  1.0000
  C   C1730     1.0  0.49153  0.08107  0.30126  1.0000
  C   C1731     1.0  0.50816  0.01060  0.30308  1.0000
  H   H3076     1.0  0.51180  0.00564  0.31709  1.0000
  C   C1732     1.0  0.53597  0.03700  0.25914  1.0000
  C   C1733     1.0  0.70138  0.41398  0.30118  1.0000
  H   H3077     1.0  0.49374  0.00746  0.21993  1.0000
  H   H3078     1.0  0.72839  0.40599  0.28029  1.0000
  H   H3079     1.0  0.52227  0.09426  0.23777  1.0000
  C   C1734     1.0  0.54453  0.00140  0.31128  1.0000
  H   H3080     1.0  0.68733  0.37338  0.31229  1.0000
  H   H3081     1.0  0.53293  0.07842  0.26122  1.0000
  H   H3082     1.0  0.70408  0.47301  0.25844  1.0000
  H   H3083     1.0  0.55589  0.09238  0.31584  1.0000
  H   H3084     1.0  0.72175  0.41793  0.30868  1.0000
  H   H3085     1.0  0.59653  0.04916  0.29722  1.0000
  H   H3086     1.0  0.73381  0.03264  0.22596  1.0000
  H   H3087     1.0  0.70046  0.39099  0.28384  1.0000
  C   C1735     1.0  0.49878  0.08858  0.30764  1.0000
  H   H3088     1.0  0.50253  0.00127  0.19608  1.0000
  H   H3089     1.0  0.48859  0.08972  0.28716  1.0000
  C   C1736     1.0  0.69095  0.47632  0.24471  1.0000
  H   H3090     1.0  0.53265  0.09214  0.29940  1.0000
  H   H3091     1.0  0.72758  0.05672  0.25112  1.0000
  C   C1737     1.0  0.73036  0.38852  0.25686  1.0000
  C   C1738     1.0  0.72163  0.47586  0.18714  1.0000
  H   H3092     1.0  0.72458  0.03069  0.26340  1.0000
  H   H3093     1.0  0.68481  0.48346  0.25722  1.0000
  H   H3094     1.0  0.71639  0.46420  0.31431  1.0000
  H   H3095     1.0  0.73686  0.37598  0.26304  1.0000
  H   H3096     1.0  0.59503  0.02294  0.31330  1.0000
  C   C1739     1.0  0.55474  0.00300  0.31127  1.0000
  H   H3097     1.0  0.50056  0.02244  0.30615  1.0000
  C   C1740     1.0  0.49441  0.00119  0.20590  1.0000
  C   C1741     1.0  0.73680  0.49412  0.29962  1.0000
  H   H3098     1.0  0.48763  0.01209  0.17789  1.0000
  C   C1742     1.0  0.59085  0.03840  0.30481  1.0000
  C   C1743     1.0  0.73345  0.47621  0.18214  1.0000
  H   H3099     1.0  0.72552  0.00176  0.19800  1.0000
  H   H3100     1.0  0.71467  0.07560  0.30961  1.0000
  C   C1744     1.0  0.72195  0.08049  0.30973  1.0000
  C   C1745     1.0  0.69210  0.38266  0.31588  1.0000
  H   H3101     1.0  0.73532  0.48947  0.31711  1.0000
  H   H3102     1.0  0.73439  0.48645  0.19171  1.0000
  C   C1746     1.0  0.68514  0.49035  0.31877  1.0000
  H   H3103     1.0  0.73548  0.03786  0.26877  1.0000
  H   H3104     1.0  0.73565  0.48397  0.16525  1.0000
  C   C1747     1.0  0.73644  0.46857  0.24484  1.0000
  H   H3105     1.0  0.50629  0.99641  0.30057  1.0000
  C   C1748     1.0  0.58136  0.04884  0.32002  1.0000
  H   H3106     1.0  0.54632  0.99522  0.25323  1.0000
  H   H3107     1.0  0.64928  0.20750  0.32068  1.0000
  H   H3108     1.0  0.73173  0.10566  0.32048  1.0000
  H   H3109     1.0  0.72823  0.99548  0.23445  1.0000
  H   H3110     1.0  0.69109  0.45670  0.31983  1.0000
  H   H3111     1.0  0.69925  0.37136  0.32083  1.0000
  S   S386      1.0  0.58237  0.16645  0.57091  1.0000
  Fe  Fe192     1.0  0.58429  0.12284  0.47724  1.0000
  S   S387      1.0  0.57530  0.15100  0.45724  1.0000
  S   S388      1.0  0.57902  0.11066  0.51210  1.0000
  Fe  Fe193     1.0  0.60390  0.11789  0.44185  1.0000
  S   S389      1.0  0.59620  0.14517  0.41905  1.0000
  S   S390      1.0  0.62121  0.10155  0.43213  1.0000
  Fe  Fe194     1.0  0.59085  0.16220  0.44602  1.0000
  S   S391      1.0  0.59316  0.19615  0.44178  1.0000
  Fe  Fe195     1.0  0.58152  0.13094  0.43230  1.0000
  S   S392      1.0  0.57114  0.12972  0.41044  1.0000
  S   S393      1.0  0.59905  0.13536  0.46813  1.0000
  S   S394      1.0  0.58977  0.10220  0.45320  1.0000
  Fe  Fe196     1.0  0.52453  0.02113  0.38567  1.0000
  S   S395      1.0  0.51937  0.05474  0.39124  1.0000
  H   H3112     1.0  0.48875  0.09580  0.37425  1.0000
  Fe  Fe197     1.0  0.54250  0.03252  0.34835  1.0000
  S   S396      1.0  0.53869  0.06676  0.35089  1.0000
  H   H3113     1.0  0.69259  0.33252  0.46064  1.0000
  Fe  Fe198     1.0  0.53699  0.05433  0.38590  1.0000
  S   S397      1.0  0.54582  0.06140  0.40750  1.0000
  Fe  Fe199     1.0  0.52169  0.06421  0.35563  1.0000
  H   H3114     1.0  0.73376  0.41715  0.39861  1.0000
  S   S398      1.0  0.54182  0.01979  0.38293  1.0000
  S   S399      1.0  0.52572  0.03079  0.35086  1.0000
  H   H3115     1.0  0.72009  0.10539  0.39392  1.0000
  H   H3116     1.0  0.71455  0.03633  0.62789  1.0000
  H   H3117     1.0  0.67734  0.06681  0.40561  1.0000
  S   S400      1.0  0.68960  0.13418  0.57096  1.0000
  S   S401      1.0  0.70632  0.11062  0.60264  1.0000
  Fe  Fe200     1.0  0.69788  0.10077  0.58362  1.0000
  S   S402      1.0  0.70802  0.07715  0.56405  1.0000
  Fe  Fe201     1.0  0.66983  0.13295  0.44845  1.0000
  S   S403      1.0  0.67976  0.15012  0.41962  1.0000
  S   S404      1.0  0.65205  0.14301  0.45709  1.0000
  Fe  Fe202     1.0  0.68866  0.10027  0.46222  1.0000
  S   S405      1.0  0.70040  0.11371  0.43438  1.0000
  S   S406      1.0  0.69362  0.06988  0.48511  1.0000
  Fe  Fe203     1.0  0.69083  0.14544  0.44090  1.0000
  S   S407      1.0  0.70033  0.16891  0.43935  1.0000
  Fe  Fe204     1.0  0.68846  0.11713  0.41549  1.0000
  S   S408      1.0  0.69265  0.10766  0.38443  1.0000
  S   S409      1.0  0.67999  0.13178  0.47047  1.0000
  S   S410      1.0  0.67767  0.10043  0.44256  1.0000
  H   H3118     1.0  0.53146  0.12367  0.61704  1.0000
  S   S411      1.0  0.64529  0.29916  0.60543  1.0000
  Fe  Fe205     1.0  0.63451  0.24175  0.48115  1.0000
  S   S412      1.0  0.64323  0.23124  0.50777  1.0000
  S   S413      1.0  0.62782  0.21411  0.47988  1.0000
  Fe  Fe206     1.0  0.63867  0.28706  0.47090  1.0000
  S   S414      1.0  0.64691  0.27985  0.49749  1.0000
  S   S415      1.0  0.63870  0.31894  0.44743  1.0000
  Fe  Fe207     1.0  0.65521  0.24969  0.48640  1.0000
  S   S416      1.0  0.67273  0.24299  0.48505  1.0000
  Fe  Fe208     1.0  0.63419  0.26232  0.51648  1.0000
  S   S417      1.0  0.62720  0.25980  0.55119  1.0000
  S   S418      1.0  0.64765  0.25730  0.45870  1.0000
  S   S419      1.0  0.62479  0.27223  0.49110  1.0000
  Fe  Fe209     1.0  0.69461  0.39422  0.38732  1.0000
  S   S420      1.0  0.69630  0.37726  0.42027  1.0000
  S   S421      1.0  0.70242  0.37830  0.35994  1.0000
  Fe  Fe210     1.0  0.68173  0.43541  0.40019  1.0000
  S   S422      1.0  0.68243  0.42206  0.43415  1.0000
  C   C1749     1.0  0.64828  0.21234  0.33572  1.0000
  Fe  Fe211     1.0  0.69956  0.40806  0.42179  1.0000
  S   S423      1.0  0.71333  0.40897  0.43425  1.0000
  Fe  Fe212     1.0  0.67899  0.39270  0.42944  1.0000
  S   S424      1.0  0.66747  0.37644  0.45620  1.0000
  S   S425      1.0  0.69918  0.42390  0.38810  1.0000
  S   S426      1.0  0.67696  0.40712  0.39621  1.0000
  H   H3119     1.0  0.65025  0.19360  0.48391  1.0000
  H   H3120     1.0  0.69757  0.30463  0.39079  1.0000
  C   C1750     1.0  0.67066  0.05952  0.40644  1.0000
  C   C1751     1.0  0.56617  0.07127  0.65467  1.0000
  C   C1752     1.0  0.68774  0.19333  0.60669  1.0000
  C   C1753     1.0  0.64677  0.33491  0.44973  1.0000
  C   C1754     1.0  0.65110  0.34915  0.43183  1.0000
  C   C1755     1.0  0.65758  0.36191  0.43343  1.0000
  C   C1756     1.0  0.65956  0.36077  0.45305  1.0000
  C   C1757     1.0  0.65498  0.34702  0.47097  1.0000
  C   C1758     1.0  0.64867  0.33409  0.46931  1.0000
  H   H3121     1.0  0.64947  0.35020  0.41671  1.0000
  H   H3122     1.0  0.66090  0.37280  0.41961  1.0000
  H   H3123     1.0  0.65630  0.34637  0.48626  1.0000
  H   H3124     1.0  0.64500  0.32403  0.48335  1.0000
  C   C1759     1.0  0.64143  0.28688  0.58961  1.0000
  C   C1760     1.0  0.63803  0.26761  0.59815  1.0000
  C   C1761     1.0  0.63414  0.25885  0.58588  1.0000
  C   C1762     1.0  0.63371  0.26923  0.56495  1.0000
  C   C1763     1.0  0.63748  0.28811  0.55610  1.0000
  C   C1764     1.0  0.64126  0.29699  0.56848  1.0000
  H   H3125     1.0  0.63791  0.25998  0.61451  1.0000
  H   H3126     1.0  0.63122  0.24428  0.59279  1.0000
  H   H3127     1.0  0.63704  0.29635  0.54004  1.0000
  H   H3128     1.0  0.64385  0.31196  0.56184  1.0000
  C   C1765     1.0  0.71573  0.47776  0.42722  1.0000
  C   C1766     1.0  0.72450  0.46095  0.43011  1.0000
  C   C1767     1.0  0.72357  0.43975  0.43315  1.0000
  C   C1768     1.0  0.71413  0.43548  0.43173  1.0000
  C   C1769     1.0  0.70545  0.45241  0.42826  1.0000
  H   H3129     1.0  0.69934  0.48643  0.42476  1.0000
  H   H3130     1.0  0.73159  0.04773  0.62131  1.0000
  C   C1770     1.0  0.71610  0.37800  0.35384  1.0000
  H   H3131     1.0  0.63595  0.47415  0.43463  1.0000
  H   H3132     1.0  0.54633  0.15674  0.60042  1.0000
  C   C1771     1.0  0.69248  0.18979  0.45146  1.0000
  C   C1772     1.0  0.69745  0.20281  0.45688  1.0000
  C   C1773     1.0  0.69131  0.21895  0.46752  1.0000
  C   C1774     1.0  0.68019  0.22250  0.47213  1.0000
  C   C1775     1.0  0.67519  0.20991  0.46619  1.0000
  C   C1776     1.0  0.68135  0.19331  0.45608  1.0000
  H   H3133     1.0  0.70604  0.20024  0.45310  1.0000
  H   H3134     1.0  0.69516  0.22884  0.47196  1.0000
  H   H3135     1.0  0.66659  0.21299  0.46942  1.0000
  H   H3136     1.0  0.67750  0.18339  0.45167  1.0000
  C   C1777     1.0  0.70344  0.07524  0.54279  1.0000
  C   C1778     1.0  0.69512  0.09079  0.53520  1.0000
  C   C1779     1.0  0.69217  0.08963  0.51712  1.0000
  C   C1780     1.0  0.69726  0.07240  0.50725  1.0000
  C   C1781     1.0  0.70532  0.05653  0.51534  1.0000
  C   C1782     1.0  0.70854  0.05817  0.53278  1.0000
  H   H3137     1.0  0.69111  0.10385  0.54307  1.0000
  H   H3138     1.0  0.68583  0.10176  0.51110  1.0000
  H   H3139     1.0  0.70923  0.04313  0.50784  1.0000
  H   H3140     1.0  0.71495  0.04607  0.53863  1.0000
  C   C1783     1.0  0.70752  0.03640  0.39602  1.0000
  C   C1784     1.0  0.70437  0.04712  0.41256  1.0000
  C   C1785     1.0  0.69967  0.06896  0.40904  1.0000
  C   C1786     1.0  0.69787  0.08005  0.38906  1.0000
  C   C1787     1.0  0.70053  0.06912  0.37274  1.0000
  C   C1788     1.0  0.70548  0.04730  0.37615  1.0000
  H   H3141     1.0  0.70605  0.03876  0.42786  1.0000
  H   H3142     1.0  0.69770  0.07720  0.42174  1.0000
  H   H3143     1.0  0.69893  0.07757  0.35739  1.0000
  H   H3144     1.0  0.70768  0.03888  0.36346  1.0000
  H   H3145     1.0  0.56832  0.27801  0.62401  1.0000
  H   H3146     1.0  0.68733  0.03223  0.44440  1.0000
  H   H3147     1.0  0.66142  0.09827  0.56826  1.0000
  H   H3148     1.0  0.66433  0.36086  0.38543  1.0000
  C   C1789     1.0  0.69641  0.30588  0.40743  1.0000
  C   C1790     1.0  0.61536  0.47569  0.44113  1.0000
  H   H3149     1.0  0.70583  0.21961  0.62313  1.0000
  H   H3150     1.0  0.71577  0.38511  0.38330  1.0000
  H   H3151     1.0  0.54024  0.07883  0.46022  1.0000
  C   C1791     1.0  0.56451  0.11016  0.40931  1.0000
  C   C1792     1.0  0.55757  0.11574  0.39536  1.0000
  C   C1793     1.0  0.55190  0.10107  0.39432  1.0000
  C   C1794     1.0  0.55306  0.08051  0.40734  1.0000
  C   C1795     1.0  0.56006  0.07490  0.42121  1.0000
  C   C1796     1.0  0.56582  0.08947  0.42203  1.0000
  H   H3152     1.0  0.55649  0.13164  0.38536  1.0000
  H   H3153     1.0  0.54654  0.10579  0.38364  1.0000
  H   H3154     1.0  0.56107  0.05907  0.43135  1.0000
  H   H3155     1.0  0.57125  0.08472  0.43259  1.0000
  C   C1797     1.0  0.60343  0.20082  0.45096  1.0000
  C   C1798     1.0  0.60598  0.22117  0.44470  1.0000
  C   C1799     1.0  0.61367  0.22556  0.45276  1.0000
  C   C1800     1.0  0.61883  0.20962  0.46730  1.0000
  C   C1801     1.0  0.61645  0.18927  0.47309  1.0000
  C   C1802     1.0  0.60882  0.18489  0.46507  1.0000
  H   H3156     1.0  0.60190  0.23365  0.43372  1.0000
  H   H3157     1.0  0.61551  0.24126  0.44797  1.0000
  H   H3158     1.0  0.62042  0.17681  0.48418  1.0000
  H   H3159     1.0  0.60698  0.16924  0.47025  1.0000
  C   C1803     1.0  0.63006  0.11315  0.43821  1.0000
  C   C1804     1.0  0.62628  0.13187  0.44593  1.0000
  C   C1805     1.0  0.63311  0.14033  0.45214  1.0000
  C   C1806     1.0  0.64394  0.13087  0.44966  1.0000
  C   C1807     1.0  0.64795  0.11272  0.44085  1.0000
  C   C1808     1.0  0.64097  0.10373  0.43535  1.0000
  H   H3160     1.0  0.61817  0.14036  0.44652  1.0000
  H   H3161     1.0  0.63003  0.15468  0.45831  1.0000
  H   H3162     1.0  0.65635  0.10566  0.43826  1.0000
  H   H3163     1.0  0.64400  0.08964  0.42869  1.0000
  C   C1809     1.0  0.58310  0.15089  0.55307  1.0000
  C   C1810     1.0  0.57871  0.16078  0.53526  1.0000
  C   C1811     1.0  0.57814  0.14862  0.52177  1.0000
  C   C1812     1.0  0.58172  0.12637  0.52634  1.0000
  C   C1813     1.0  0.58650  0.11654  0.54367  1.0000
  C   C1814     1.0  0.58734  0.12883  0.55686  1.0000
  H   H3164     1.0  0.57549  0.17782  0.53222  1.0000
  H   H3165     1.0  0.57448  0.15633  0.50837  1.0000
  H   H3166     1.0  0.58941  0.09937  0.54703  1.0000
  H   H3167     1.0  0.59090  0.12114  0.57038  1.0000
  C   C1815     1.0  0.64226  0.41937  0.44075  1.0000
  C   C1816     1.0  0.63459  0.45792  0.44330  1.0000
  C   C1817     1.0  0.62413  0.45554  0.43922  1.0000
  C   C1818     1.0  0.63775  0.40845  0.46383  1.0000
  H   H3168     1.0  0.70761  0.47059  0.49382  1.0000
  C   C1819     1.0  0.63152  0.39200  0.46468  1.0000
  H   H3169     1.0  0.63673  0.42008  0.43089  1.0000
  H   H3170     1.0  0.72630  0.14632  0.54451  1.0000
  H   H3171     1.0  0.63277  0.45848  0.46030  1.0000
  H   H3172     1.0  0.62117  0.44199  0.45103  1.0000
  C   C1820     1.0  0.72372  0.47369  0.49169  1.0000
  H   H3173     1.0  0.64445  0.40001  0.47189  1.0000
  H   H3174     1.0  0.63240  0.42028  0.47301  1.0000
  H   H3175     1.0  0.66488  0.47009  0.46629  1.0000
  C   C1821     1.0  0.65256  0.45542  0.37605  1.0000
  H   H3176     1.0  0.54872  0.10493  0.33792  1.0000
  H   H3177     1.0  0.63639  0.38032  0.45494  1.0000
  H   H3178     1.0  0.62932  0.38309  0.48122  1.0000
  H   H3179     1.0  0.62411  0.40006  0.45881  1.0000
  C   C1822     1.0  0.66125  0.45618  0.46895  1.0000
  C   C1823     1.0  0.50256  0.07760  0.32605  1.0000
  H   H3180     1.0  0.70717  0.06307  0.63044  1.0000
  C   C1824     1.0  0.68332  0.46238  0.35066  1.0000
  H   H3181     1.0  0.62396  0.32840  0.59020  1.0000
  H   H3182     1.0  0.58555  0.29190  0.64029  1.0000
  H   H3183     1.0  0.66217  0.03590  0.42694  1.0000
  H   H3184     1.0  0.67819  0.04973  0.47325  1.0000
  H   H3185     1.0  0.66254  0.46056  0.43582  1.0000
  H   H3186     1.0  0.65233  0.46396  0.41328  1.0000
  H   H3187     1.0  0.68378  0.00707  0.45903  1.0000
  C   C1825     1.0  0.58502  0.05436  0.33748  1.0000
  C   C1826     1.0  0.61297  0.19843  0.64333  1.0000
  C   C1827     1.0  0.72254  0.37382  0.33455  1.0000
  H   H3188     1.0  0.58947  0.06729  0.32915  1.0000
  C   C1828     1.0  0.65693  0.05136  0.48411  1.0000
  H   H3189     1.0  0.59113  0.04041  0.34329  1.0000
  N   N97       1.0  0.54370  0.11696  0.47095  1.0000
  C   C1829     1.0  0.54987  0.13439  0.46042  1.0000
  C   C1830     1.0  0.55136  0.09642  0.47800  1.0000
  C   C1831     1.0  0.53902  0.11344  0.45450  1.0000
  C   C1832     1.0  0.53472  0.12255  0.48922  1.0000
  C   C1833     1.0  0.53629  0.13728  0.50189  1.0000
  C   C1834     1.0  0.54379  0.15515  0.44781  1.0000
  C   C1835     1.0  0.55760  0.09653  0.49413  1.0000
  C   C1836     1.0  0.56591  0.07561  0.49771  1.0000
  C   C1837     1.0  0.52743  0.13866  0.52173  1.0000
  C   C1838     1.0  0.54960  0.17345  0.44204  1.0000
  H   H3190     1.0  0.55719  0.12833  0.44921  1.0000
  H   H3191     1.0  0.55293  0.13888  0.47189  1.0000
  H   H3192     1.0  0.54712  0.08309  0.48552  1.0000
  H   H3193     1.0  0.55728  0.09156  0.46399  1.0000
  H   H3194     1.0  0.54521  0.11184  0.43979  1.0000
  H   H3195     1.0  0.53277  0.12766  0.44977  1.0000
  H   H3196     1.0  0.52720  0.13085  0.48370  1.0000
  H   H3197     1.0  0.53287  0.10766  0.50057  1.0000
  H   H3198     1.0  0.53604  0.15379  0.49218  1.0000
  H   H3199     1.0  0.54401  0.13166  0.50677  1.0000
  H   H3200     1.0  0.54318  0.15230  0.43275  1.0000
  H   H3201     1.0  0.53560  0.16035  0.45690  1.0000
  H   H3202     1.0  0.56192  0.10976  0.48871  1.0000
  H   H3203     1.0  0.55211  0.09777  0.50961  1.0000
  H   H3204     1.0  0.57204  0.07403  0.48294  1.0000
  H   H3205     1.0  0.56998  0.07555  0.51001  1.0000
  H   H3206     1.0  0.56210  0.06160  0.50311  1.0000
  H   H3207     1.0  0.52783  0.12278  0.53284  1.0000
  H   H3208     1.0  0.52836  0.15028  0.52980  1.0000
  H   H3209     1.0  0.51948  0.14423  0.51760  1.0000
  H   H3210     1.0  0.55764  0.16908  0.43195  1.0000
  H   H3211     1.0  0.54506  0.18799  0.43301  1.0000
  H   H3212     1.0  0.55042  0.17726  0.45645  1.0000
  C   C1839     1.0  0.70522  0.19915  0.60392  1.0000
  C   C1840     1.0  0.67268  0.35849  0.37625  1.0000
  C   C1841     1.0  0.66864  0.04316  0.42725  1.0000
  C   C1842     1.0  0.69875  0.18927  0.59834  1.0000
  N   N98       1.0  0.67402  0.24537  0.55009  1.0000
  C   C1843     1.0  0.68345  0.23537  0.53499  1.0000
  C   C1844     1.0  0.66753  0.26428  0.53748  1.0000
  C   C1845     1.0  0.67811  0.25203  0.56546  1.0000
  C   C1846     1.0  0.66702  0.22975  0.56240  1.0000
  C   C1847     1.0  0.66283  0.21965  0.54899  1.0000
  C   C1848     1.0  0.69017  0.21365  0.54457  1.0000
  C   C1849     1.0  0.66969  0.26586  0.58006  1.0000
  C   C1850     1.0  0.67299  0.28342  0.52599  1.0000
  C   C1851     1.0  0.66553  0.30184  0.51442  1.0000
  C   C1852     1.0  0.65676  0.20261  0.56301  1.0000
  C   C1853     1.0  0.69988  0.20613  0.52800  1.0000
  C   C1854     1.0  0.67495  0.27243  0.59398  1.0000
  H   H3213     1.0  0.68902  0.24641  0.52761  1.0000
  H   H3214     1.0  0.68093  0.23310  0.52155  1.0000
  H   H3215     1.0  0.66537  0.25933  0.52503  1.0000
  H   H3216     1.0  0.65977  0.27026  0.54765  1.0000
  H   H3217     1.0  0.68459  0.26080  0.55699  1.0000
  H   H3218     1.0  0.68188  0.23769  0.57614  1.0000
  H   H3219     1.0  0.67120  0.21663  0.57354  1.0000
  H   H3220     1.0  0.65981  0.23775  0.57261  1.0000
  H   H3221     1.0  0.66941  0.21187  0.53760  1.0000
  H   H3222     1.0  0.65727  0.23204  0.54004  1.0000
  H   H3223     1.0  0.69314  0.21503  0.55781  1.0000
  H   H3224     1.0  0.68544  0.20103  0.55047  1.0000
  H   H3225     1.0  0.66367  0.25683  0.59054  1.0000
  H   H3226     1.0  0.66547  0.28077  0.57096  1.0000
  H   H3227     1.0  0.67531  0.28976  0.53720  1.0000
  H   H3228     1.0  0.68024  0.27857  0.51407  1.0000
  H   H3229     1.0  0.65771  0.30621  0.52515  1.0000
  H   H3230     1.0  0.66910  0.31615  0.50847  1.0000
  H   H3231     1.0  0.66430  0.29736  0.50074  1.0000
  H   H3232     1.0  0.64955  0.20987  0.57371  1.0000
  H   H3233     1.0  0.65425  0.19516  0.55291  1.0000
  H   H3234     1.0  0.66192  0.18983  0.57256  1.0000
  H   H3235     1.0  0.70534  0.21738  0.52293  1.0000
  H   H3236     1.0  0.70428  0.19009  0.53488  1.0000
  H   H3237     1.0  0.69739  0.20505  0.51401  1.0000
  H   H3238     1.0  0.67856  0.25814  0.60483  1.0000
  H   H3239     1.0  0.68118  0.28133  0.58422  1.0000
  H   H3240     1.0  0.66886  0.28311  0.60356  1.0000
  N   N99       1.0  0.64434  0.18192  0.39498  1.0000
  C   C1855     1.0  0.63441  0.17423  0.39699  1.0000
  C   C1856     1.0  0.65387  0.16324  0.39574  1.0000
  C   C1857     1.0  0.64260  0.19166  0.41375  1.0000
  C   C1858     1.0  0.64640  0.19898  0.37525  1.0000
  C   C1859     1.0  0.64752  0.19291  0.35410  1.0000
  C   C1860     1.0  0.62388  0.19145  0.39739  1.0000
  C   C1861     1.0  0.65241  0.19799  0.41649  1.0000
  C   C1862     1.0  0.65404  0.14420  0.38644  1.0000
  C   C1863     1.0  0.66477  0.12826  0.38564  1.0000
  S   S427      1.0  0.55657  0.02166  0.32335  1.0000
  C   C1864     1.0  0.61462  0.18157  0.39866  1.0000
  C   C1865     1.0  0.64960  0.20711  0.43621  1.0000
  H   H3241     1.0  0.63322  0.16171  0.41166  1.0000
  H   H3242     1.0  0.63523  0.16617  0.38412  1.0000
  H   H3243     1.0  0.66142  0.16891  0.38810  1.0000
  H   H3244     1.0  0.65451  0.15574  0.41236  1.0000
  H   H3245     1.0  0.63976  0.18042  0.42865  1.0000
  H   H3246     1.0  0.63621  0.20649  0.41306  1.0000
  H   H3247     1.0  0.64008  0.21383  0.37623  1.0000
  H   H3248     1.0  0.65392  0.20381  0.37385  1.0000
  H   H3249     1.0  0.64061  0.18680  0.35405  1.0000
  H   H3250     1.0  0.65496  0.18070  0.35091  1.0000
  H   H3251     1.0  0.62178  0.19858  0.41143  1.0000
  H   H3252     1.0  0.62444  0.20436  0.38292  1.0000
  H   H3253     1.0  0.65520  0.21040  0.40287  1.0000
  H   H3254     1.0  0.65912  0.18395  0.41831  1.0000
  H   H3255     1.0  0.64782  0.13542  0.39660  1.0000
  H   H3256     1.0  0.65251  0.14946  0.37033  1.0000
  H   H3257     1.0  0.66456  0.11438  0.37978  1.0000
  H   H3258     1.0  0.67125  0.13593  0.37481  1.0000
  H   H3259     1.0  0.66659  0.12222  0.40160  1.0000
  C   C1866     1.0  0.52691  0.09499  0.44591  1.0000
  H   H3260     1.0  0.72345  0.12611  0.34635  1.0000
  C   C1867     1.0  0.73106  0.04918  0.40655  1.0000
  H   H3261     1.0  0.61339  0.16934  0.41359  1.0000
  H   H3262     1.0  0.60719  0.19420  0.39852  1.0000
  H   H3263     1.0  0.61613  0.17403  0.38505  1.0000
  H   H3264     1.0  0.64341  0.22218  0.43471  1.0000
  H   H3265     1.0  0.64654  0.19533  0.45022  1.0000
  H   H3266     1.0  0.65680  0.21053  0.43864  1.0000
  N   N100      1.0  0.66511  0.03973  0.46817  1.0000
  H   H3267     1.0  0.73260  0.11851  0.55232  1.0000
  H   H3268     1.0  0.73017  0.42664  0.43630  1.0000
  H   H3269     1.0  0.72950  0.42964  0.36319  1.0000
  C   C1868     1.0  0.57969  0.07659  0.59840  1.0000
  H   H3270     1.0  0.72201  0.47345  0.50876  1.0000
  H   H3271     1.0  0.53476  0.14219  0.62799  1.0000
  H   H3272     1.0  0.61770  0.48965  0.42892  1.0000
  H   H3273     1.0  0.49130  0.00221  0.36235  1.0000
  S   S428      1.0  0.70457  0.17164  0.58120  1.0000
  C   C1869     1.0  0.73096  0.44091  0.37100  1.0000
  C   C1870     1.0  0.58787  0.28417  0.62658  1.0000
  H   H3274     1.0  0.49405  0.04995  0.41837  1.0000
  H   H3275     1.0  0.72148  0.07295  0.37617  1.0000
  H   H3276     1.0  0.67592  0.03032  0.42765  1.0000
  H   H3277     1.0  0.71514  0.10834  0.36139  1.0000
  Fe  Fe213     1.0  0.69684  0.14350  0.59226  1.0000
  H   H3278     1.0  0.65396  0.99857  0.44814  1.0000
  H   H3279     1.0  0.71667  0.15230  0.36943  1.0000
  C   C1871     1.0  0.68688  0.46868  0.32883  1.0000
  C   C1872     1.0  0.68066  0.25317  0.41981  1.0000
  H   H3280     1.0  0.65511  0.45560  0.48393  1.0000
  H   H3281     1.0  0.71850  0.48015  0.34390  1.0000
  H   H3282     1.0  0.64089  0.22501  0.33772  1.0000
  H   H3283     1.0  0.56350  0.30513  0.61091  1.0000
  H   H3284     1.0  0.70200  0.00672  0.45939  1.0000
  H   H3285     1.0  0.64044  0.00325  0.46314  1.0000
  H   H3286     1.0  0.64608  0.16736  0.63330  1.0000
  N   N101      1.0  0.73180  0.09300  0.35377  1.0000
  H   H3287     1.0  0.73183  0.46430  0.43083  1.0000
  N   N102      1.0  0.55433  0.12321  0.60363  1.0000
  C   C1873     1.0  0.55010  0.12278  0.58529  1.0000
  H   H3288     1.0  0.64710  0.07541  0.51528  1.0000
  H   H3289     1.0  0.65997  0.09841  0.60599  1.0000
  C   C1874     1.0  0.56794  0.08744  0.59937  1.0000
  C   C1875     1.0  0.55690  0.13012  0.56308  1.0000
  S   S429      1.0  0.68464  0.23161  0.64633  1.0000
  C   C1876     1.0  0.55186  0.12905  0.54577  1.0000
  H   H3290     1.0  0.54204  0.13339  0.58569  1.0000
  H   H3291     1.0  0.54897  0.10646  0.58657  1.0000
  C   C1877     1.0  0.54750  0.11324  0.62377  1.0000
  H   H3292     1.0  0.69386  0.00563  0.48572  1.0000
  H   H3293     1.0  0.57119  0.11935  0.58946  1.0000
  H   H3294     1.0  0.56606  0.08703  0.58451  1.0000
  H   H3295     1.0  0.55767  0.14687  0.56051  1.0000
  H   H3296     1.0  0.56496  0.11973  0.56101  1.0000
  C   C1878     1.0  0.73085  0.17400  0.46004  1.0000
  H   H3297     1.0  0.58212  0.07656  0.61285  1.0000
  H   H3298     1.0  0.58104  0.05976  0.59703  1.0000
  H   H3299     1.0  0.54373  0.13935  0.54702  1.0000
  H   H3300     1.0  0.55678  0.13484  0.53006  1.0000
  H   H3301     1.0  0.55151  0.11228  0.54687  1.0000
  H   H3302     1.0  0.67514  0.02580  0.49091  1.0000
  C   C1879     1.0  0.55633  0.15019  0.62294  1.0000
  C   C1880     1.0  0.65179  0.43858  0.45263  1.0000
  H   H3303     1.0  0.67284  0.05147  0.39298  1.0000
  C   C1881     1.0  0.66541  0.05405  0.44638  1.0000
  S   S430      1.0  0.68422  0.09371  0.61067  1.0000
  H   H3304     1.0  0.67347  0.34994  0.36372  1.0000
  H   H3305     1.0  0.57580  0.03786  0.32650  1.0000
  C   C1882     1.0  0.73338  0.37462  0.32936  1.0000
  H   H3306     1.0  0.61168  0.26767  0.59322  1.0000
  C   C1883     1.0  0.55566  0.17399  0.62064  1.0000
  C   C1884     1.0  0.63921  0.14097  0.61138  1.0000
  C   C1885     1.0  0.72308  0.11174  0.35947  1.0000
  H   H3307     1.0  0.65514  0.12208  0.64796  1.0000
  H   H3308     1.0  0.56443  0.14141  0.62522  1.0000
  C   C1886     1.0  0.72108  0.08431  0.33153  1.0000
  H   H3309     1.0  0.71785  0.33166  0.39279  1.0000
  H   H3310     1.0  0.64897  0.05610  0.47995  1.0000
  H   H3311     1.0  0.65750  0.06488  0.44535  1.0000
  H   H3312     1.0  0.71887  0.08066  0.48163  1.0000
  H   H3313     1.0  0.57548  0.99920  0.39501  1.0000
  H   H3314     1.0  0.65995  0.15591  0.63352  1.0000
  H   H3315     1.0  0.64269  0.09009  0.49112  1.0000
  C   C1887     1.0  0.69529  0.01584  0.46958  1.0000
  S   S431      1.0  0.65490  0.24214  0.63652  1.0000
  H   H3316     1.0  0.67092  0.06483  0.44340  1.0000
  C   C1888     1.0  0.72060  0.38224  0.36822  1.0000
  C   C1889     1.0  0.67811  0.32346  0.40169  1.0000
  C   C1890     1.0  0.48836  0.04683  0.41084  1.0000
  H   H3317     1.0  0.52888  0.09217  0.47716  1.0000
  H   H3318     1.0  0.66184  0.08362  0.64974  1.0000
  C   C1891     1.0  0.64519  0.44975  0.39761  1.0000
  H   H3319     1.0  0.70960  0.43093  0.32367  1.0000
  S   S432      1.0  0.58181  0.16680  0.62747  1.0000
  C   C1892     1.0  0.62585  0.21798  0.64439  1.0000
  C   C1893     1.0  0.64949  0.08502  0.49914  1.0000
  H   H3320     1.0  0.58222  0.03304  0.37878  1.0000
  N   N103      1.0  0.58731  0.24021  0.50734  1.0000
  C   C1894     1.0  0.57798  0.23189  0.50667  1.0000
  C   C1895     1.0  0.58426  0.25299  0.52436  1.0000
  C   C1896     1.0  0.59023  0.25511  0.48629  1.0000
  C   C1897     1.0  0.59689  0.22238  0.51041  1.0000
  C   C1898     1.0  0.59544  0.20527  0.53108  1.0000
  C   C1899     1.0  0.58017  0.21741  0.49071  1.0000
  C   C1900     1.0  0.59927  0.26670  0.48392  1.0000
  C   C1901     1.0  0.57600  0.24595  0.54469  1.0000
  C   C1902     1.0  0.57534  0.25743  0.56189  1.0000
  C   C1903     1.0  0.60494  0.18638  0.53074  1.0000
  C   C1904     1.0  0.56999  0.21131  0.49053  1.0000
  C   C1905     1.0  0.60039  0.28352  0.46325  1.0000
  H   H3321     1.0  0.57125  0.24561  0.50323  1.0000
  H   H3322     1.0  0.57480  0.22218  0.52220  1.0000
  H   H3323     1.0  0.59153  0.25333  0.52920  1.0000
  H   H3324     1.0  0.58071  0.27008  0.51809  1.0000
  H   H3325     1.0  0.58306  0.26756  0.48270  1.0000
  H   H3326     1.0  0.59299  0.24637  0.47330  1.0000
  H   H3327     1.0  0.59967  0.21432  0.49689  1.0000
  H   H3328     1.0  0.60375  0.22876  0.51039  1.0000
  H   H3329     1.0  0.58825  0.19898  0.53361  1.0000
  H   H3330     1.0  0.59493  0.21211  0.54467  1.0000
  H   H3331     1.0  0.58327  0.22550  0.47435  1.0000
  H   H3332     1.0  0.58600  0.20229  0.49500  1.0000
  H   H3333     1.0  0.60704  0.25509  0.48358  1.0000
  H   H3334     1.0  0.59779  0.27494  0.49699  1.0000
  H   H3335     1.0  0.56796  0.25007  0.54107  1.0000
  H   H3336     1.0  0.57789  0.22852  0.55136  1.0000
  H   H3337     1.0  0.58309  0.25302  0.56673  1.0000
  H   H3338     1.0  0.57318  0.27507  0.55622  1.0000
  H   H3339     1.0  0.56917  0.25254  0.57597  1.0000
  H   H3340     1.0  0.61248  0.19197  0.52705  1.0000
  H   H3341     1.0  0.60415  0.17526  0.54647  1.0000
  H   H3342     1.0  0.60519  0.17757  0.51877  1.0000
  H   H3343     1.0  0.56413  0.22578  0.48489  1.0000
  H   H3344     1.0  0.57193  0.20028  0.47961  1.0000
  H   H3345     1.0  0.56637  0.20303  0.50650  1.0000
  H   H3346     1.0  0.60200  0.27606  0.44954  1.0000
  H   H3347     1.0  0.59303  0.29632  0.46314  1.0000
  H   H3348     1.0  0.60716  0.29094  0.46154  1.0000
  C   C1906     1.0  0.71106  0.49230  0.34195  1.0000
  N   N104      1.0  0.68465  0.30995  0.41764  1.0000
  C   C1907     1.0  0.68200  0.32068  0.43597  1.0000
  Fe  Fe214     1.0  0.58395  0.13289  0.64647  1.0000
  C   C1908     1.0  0.68119  0.28879  0.42613  1.0000
  C   C1909     1.0  0.73145  0.38242  0.36331  1.0000
  C   C1910     1.0  0.56568  0.11071  0.60235  1.0000
  C   C1911     1.0  0.68679  0.30730  0.45529  1.0000
  C   C1912     1.0  0.68180  0.27618  0.40946  1.0000
  H   H3349     1.0  0.67482  0.20999  0.62753  1.0000
  C   C1913     1.0  0.68711  0.32155  0.46929  1.0000
  H   H3350     1.0  0.64477  0.02391  0.48341  1.0000
  H   H3351     1.0  0.67319  0.25292  0.43217  1.0000
  C   C1914     1.0  0.67576  0.03473  0.47415  1.0000
  H   H3352     1.0  0.68608  0.27787  0.43738  1.0000
  H   H3353     1.0  0.70067  0.29004  0.41526  1.0000
  H   H3354     1.0  0.73487  0.08001  0.39573  1.0000
  H   H3355     1.0  0.66915  0.11839  0.56318  1.0000
  C   C1915     1.0  0.70269  0.32242  0.40743  1.0000
  H   H3356     1.0  0.68177  0.29570  0.46503  1.0000
  H   H3357     1.0  0.69498  0.29801  0.45044  1.0000
  H   H3358     1.0  0.68948  0.27562  0.39771  1.0000
  C   C1916     1.0  0.71599  0.46236  0.48843  1.0000
  H   H3359     1.0  0.66293  0.00811  0.48561  1.0000
  H   H3360     1.0  0.68756  0.24417  0.42704  1.0000
  H   H3361     1.0  0.67944  0.31539  0.38853  1.0000
  C   C1917     1.0  0.68982  0.21609  0.62718  1.0000
  H   H3362     1.0  0.68996  0.31149  0.48359  1.0000
  N   N105      1.0  0.64454  0.44107  0.43802  1.0000
  N   N106      1.0  0.57644  0.06090  0.35593  1.0000
  C   C1918     1.0  0.56594  0.07257  0.34987  1.0000
  C   C1919     1.0  0.57468  0.04168  0.37357  1.0000
  C   C1920     1.0  0.58003  0.07583  0.36454  1.0000
  H   H3363     1.0  0.66385  0.13486  0.52901  1.0000
  H   H3364     1.0  0.70530  0.12450  0.64304  1.0000
  H   H3365     1.0  0.66587  0.06842  0.49454  1.0000
  C   C1921     1.0  0.58990  0.06607  0.37465  1.0000
  H   H3366     1.0  0.61715  0.29868  0.58738  1.0000
  H   H3367     1.0  0.65524  0.21893  0.33464  1.0000
  H   H3368     1.0  0.61770  0.19680  0.57218  1.0000
  H   H3369     1.0  0.67517  0.28380  0.40108  1.0000
  C   C1922     1.0  0.59399  0.08350  0.37880  1.0000
  H   H3370     1.0  0.55958  0.07467  0.36424  1.0000
  H   H3371     1.0  0.56310  0.06298  0.34234  1.0000
  C   C1923     1.0  0.56589  0.09513  0.33518  1.0000
  H   H3372     1.0  0.56898  0.04702  0.38763  1.0000
  H   H3373     1.0  0.57344  0.08258  0.37670  1.0000
  H   H3374     1.0  0.58199  0.08981  0.35185  1.0000
  C   C1924     1.0  0.64973  0.12955  0.60704  1.0000
  C   C1925     1.0  0.56883  0.29495  0.62158  1.0000
  H   H3375     1.0  0.72293  0.05627  0.41458  1.0000
  C   C1926     1.0  0.49145  0.05215  0.33218  1.0000
  H   H3376     1.0  0.65148  0.09969  0.50042  1.0000
  H   H3377     1.0  0.62522  0.45241  0.42344  1.0000
  H   H3378     1.0  0.59649  0.05700  0.36427  1.0000
  H   H3379     1.0  0.58775  0.05518  0.39016  1.0000
  H   H3380     1.0  0.49006  0.00460  0.42260  1.0000
  Fe  Fe215     1.0  0.58957  0.15163  0.59961  1.0000
  C   C1927     1.0  0.70077  0.21235  0.61851  1.0000
  H   H3381     1.0  0.71838  0.30359  0.39582  1.0000
  H   H3382     1.0  0.71240  0.32351  0.37550  1.0000
  C   C1928     1.0  0.71349  0.32001  0.39194  1.0000
  H   H3383     1.0  0.67964  0.35566  0.40215  1.0000
  H   H3384     1.0  0.68488  0.44560  0.35823  1.0000
  H   H3385     1.0  0.71371  0.19613  0.59741  1.0000
  H   H3386     1.0  0.59669  0.09459  0.36378  1.0000
  H   H3387     1.0  0.58765  0.09283  0.38939  1.0000
  H   H3388     1.0  0.60085  0.07607  0.38658  1.0000
  C   C1929     1.0  0.61535  0.32828  0.59611  1.0000
  N   N107      1.0  0.59961  0.28226  0.61694  1.0000
  H   H3389     1.0  0.61374  0.47916  0.45704  1.0000
  H   H3390     1.0  0.56317  0.07761  0.61262  1.0000
  H   H3391     1.0  0.67321  0.32449  0.44195  1.0000
  C   C1930     1.0  0.53563  0.12500  0.62858  1.0000
  C   C1931     1.0  0.60579  0.26796  0.63318  1.0000
  C   C1932     1.0  0.65183  0.10737  0.60909  1.0000
  H   H3392     1.0  0.64310  0.43452  0.39838  1.0000
  H   H3393     1.0  0.73192  0.46413  0.48721  1.0000
  H   H3394     1.0  0.69812  0.44926  0.42727  1.0000
  H   H3395     1.0  0.70638  0.13727  0.38270  1.0000
  H   H3396     1.0  0.49185  0.02014  0.46034  1.0000
  H   H3397     1.0  0.65442  0.47129  0.37378  1.0000
  H   H3398     1.0  0.68850  0.34443  0.38039  1.0000
  H   H3399     1.0  0.54745  0.09660  0.62361  1.0000
  C   C1933     1.0  0.55409  0.14616  0.60315  1.0000
  H   H3400     1.0  0.67457  0.37447  0.36854  1.0000
  H   H3401     1.0  0.69837  0.33915  0.40311  1.0000
  H   H3402     1.0  0.73612  0.04287  0.41841  1.0000
  H   H3403     1.0  0.53149  0.09737  0.42930  1.0000
  C   C1934     1.0  0.63275  0.10878  0.61711  1.0000
  H   H3404     1.0  0.66127  0.08266  0.47072  1.0000
  C   C1935     1.0  0.63077  0.13059  0.61665  1.0000
  H   H3405     1.0  0.73545  0.01178  0.65161  1.0000
  H   H3406     1.0  0.65679  0.11399  0.53317  1.0000
  Fe  Fe216     1.0  0.59836  0.16619  0.62993  1.0000
  H   H3407     1.0  0.70418  0.32014  0.42335  1.0000
  H   H3408     1.0  0.70455  0.48380  0.34466  1.0000
  C   C1936     1.0  0.65623  0.45853  0.45043  1.0000
  H   H3409     1.0  0.61934  0.22189  0.61732  1.0000
  H   H3410     1.0  0.49350  0.03640  0.39987  1.0000
  H   H3411     1.0  0.60292  0.25198  0.56695  1.0000
  S   S433      1.0  0.59101  0.11778  0.61840  1.0000
  Fe  Fe217     1.0  0.67664  0.12820  0.59973  1.0000
  H   H3412     1.0  0.60790  0.47331  0.43876  1.0000
  H   H3413     1.0  0.56831  0.10968  0.61690  1.0000
  C   C1937     1.0  0.66198  0.01904  0.47010  1.0000
  C   C1938     1.0  0.67769  0.47773  0.36253  1.0000
  H   H3414     1.0  0.48849  0.03825  0.34194  1.0000
  C   C1939     1.0  0.72296  0.05139  0.65357  1.0000
  H   H3415     1.0  0.73475  0.45326  0.35884  1.0000
  H   H3416     1.0  0.61248  0.23474  0.58216  1.0000
  H   H3417     1.0  0.55098  0.11149  0.63744  1.0000
  C   C1940     1.0  0.61941  0.21349  0.63347  1.0000
  H   H3418     1.0  0.64814  0.20136  0.63808  1.0000
  H   H3419     1.0  0.54760  0.18349  0.61879  1.0000
  H   H3420     1.0  0.64079  0.17267  0.57312  1.0000
  H   H3421     1.0  0.64970  0.40813  0.43479  1.0000
  H   H3422     1.0  0.65593  0.04056  0.50009  1.0000
  Fe  Fe218     1.0  0.60661  0.12139  0.62226  1.0000
  H   H3423     1.0  0.65958  0.17280  0.47179  1.0000
  C   C1941     1.0  0.72262  0.11801  0.38018  1.0000
  C   C1942     1.0  0.65277  0.16697  0.64015  1.0000
  C   C1943     1.0  0.65037  0.02137  0.46827  1.0000
  H   H3424     1.0  0.64988  0.47334  0.44974  1.0000
  H   H3425     1.0  0.63754  0.15800  0.61050  1.0000
  H   H3426     1.0  0.61240  0.33549  0.61022  1.0000
  H   H3427     1.0  0.61108  0.33813  0.58351  1.0000
  H   H3428     1.0  0.60029  0.22704  0.58434  1.0000
  C   C1944     1.0  0.68039  0.34596  0.39066  1.0000
  H   H3429     1.0  0.68042  0.24493  0.40778  1.0000
  C   C1945     1.0  0.71483  0.05356  0.62302  1.0000
  H   H3430     1.0  0.65853  0.43676  0.41302  1.0000
  H   H3431     1.0  0.61716  0.13855  0.50667  1.0000
  H   H3432     1.0  0.56016  0.15239  0.58950  1.0000
  S   S434      1.0  0.68326  0.14036  0.62015  1.0000
  H   H3433     1.0  0.62674  0.20230  0.58451  1.0000
  H   H3434     1.0  0.64490  0.08002  0.61448  1.0000
  H   H3435     1.0  0.58481  0.08501  0.58452  1.0000
  H   H3436     1.0  0.72875  0.17261  0.44572  1.0000
  Fe  Fe219     1.0  0.64899  0.27723  0.63582  1.0000
  H   H3437     1.0  0.57313  0.09503  0.32227  1.0000
  S   S435      1.0  0.65981  0.14411  0.59709  1.0000
  H   H3438     1.0  0.63076  0.22957  0.63655  1.0000
  H   H3439     1.0  0.66759  0.44136  0.47046  1.0000
  Fe  Fe220     1.0  0.69204  0.10646  0.62876  1.0000
  S   S436      1.0  0.67365  0.46982  0.39002  1.0000
  C   C1946     1.0  0.68327  0.20691  0.62100  1.0000
  H   H3440     1.0  0.62228  0.17760  0.59439  1.0000
  S   S437      1.0  0.62204  0.09668  0.62074  1.0000
  H   H3441     1.0  0.67280  0.29120  0.43549  1.0000
  C   C1947     1.0  0.49903  0.05906  0.33801  1.0000
  H   H3442     1.0  0.65875  0.42496  0.45032  1.0000
  H   H3443     1.0  0.69767  0.03034  0.47016  1.0000
  H   H3444     1.0  0.64760  0.43427  0.46941  1.0000
  C   C1948     1.0  0.64331  0.09700  0.61387  1.0000
  S   S438      1.0  0.73005  0.02531  0.34068  1.0000
  C   C1949     1.0  0.60387  0.24089  0.58230  1.0000
  C   C1950     1.0  0.70617  0.47347  0.42660  1.0000
  S   S439      1.0  0.60383  0.19586  0.62988  1.0000
  C   C1951     1.0  0.65062  0.44791  0.41573  1.0000
  H   H3445     1.0  0.67274  0.09912  0.54677  1.0000
  C   C1952     1.0  0.53389  0.09365  0.46093  1.0000
  H   H3446     1.0  0.71735  0.46212  0.47156  1.0000
  N   N108      1.0  0.71143  0.13970  0.50051  1.0000
  C   C1953     1.0  0.71634  0.11822  0.49465  1.0000
  C   C1954     1.0  0.71317  0.13902  0.52193  1.0000
  C   C1955     1.0  0.69957  0.14398  0.50201  1.0000
  C   C1956     1.0  0.71558  0.15772  0.48405  1.0000
  C   C1957     1.0  0.72773  0.15613  0.47877  1.0000
  C   C1958     1.0  0.71436  0.11557  0.47402  1.0000
  C   C1959     1.0  0.69270  0.16404  0.51055  1.0000
  C   C1960     1.0  0.72372  0.12491  0.52792  1.0000
  C   C1961     1.0  0.72535  0.12959  0.54760  1.0000
  H   H3447     1.0  0.66198  0.17923  0.49398  1.0000
  C   C1962     1.0  0.72092  0.09425  0.46858  1.0000
  C   C1963     1.0  0.68085  0.16465  0.51425  1.0000
  H   H3448     1.0  0.71330  0.10539  0.50761  1.0000
  H   H3449     1.0  0.72507  0.11405  0.49329  1.0000
  H   H3450     1.0  0.71241  0.15551  0.52382  1.0000
  H   H3451     1.0  0.70684  0.13244  0.53465  1.0000
  H   H3452     1.0  0.69638  0.12998  0.51220  1.0000
  H   H3453     1.0  0.69784  0.14608  0.48626  1.0000
  H   H3454     1.0  0.71308  0.15977  0.46913  1.0000
  H   H3455     1.0  0.71189  0.17320  0.48904  1.0000
  H   H3456     1.0  0.73225  0.14072  0.47449  1.0000
  H   H3457     1.0  0.73019  0.15812  0.49239  1.0000
  H   H3458     1.0  0.70585  0.11556  0.47590  1.0000
  H   H3459     1.0  0.71660  0.12853  0.46045  1.0000
  H   H3460     1.0  0.69430  0.17881  0.49894  1.0000
  H   H3461     1.0  0.69425  0.16440  0.52574  1.0000
  H   H3462     1.0  0.72342  0.10771  0.53152  1.0000
  H   H3463     1.0  0.73080  0.12732  0.51516  1.0000
  H   H3464     1.0  0.56598  0.29988  0.63699  1.0000
  Fe  Fe221     1.0  0.72815  0.00398  0.37304  1.0000
  C   C1964     1.0  0.73126  0.09051  0.33251  1.0000
  H   H3465     1.0  0.66192  0.18971  0.63924  1.0000
  C   C1965     1.0  0.61387  0.30525  0.60182  1.0000
  H   H3466     1.0  0.71719  0.44556  0.49761  1.0000
  H   H3467     1.0  0.72958  0.09366  0.46562  1.0000
  C   C1966     1.0  0.49208  0.08150  0.38551  1.0000
  H   H3468     1.0  0.71919  0.09233  0.45414  1.0000
  H   H3469     1.0  0.67897  0.16333  0.49971  1.0000
  H   H3470     1.0  0.67860  0.15127  0.52739  1.0000
  H   H3471     1.0  0.67608  0.18002  0.51844  1.0000
  H   H3472     1.0  0.49900  0.07178  0.37643  1.0000
  H   H3473     1.0  0.71414  0.14287  0.39768  1.0000
  H   H3474     1.0  0.50163  0.01735  0.43639  1.0000
  C   C1967     1.0  0.68535  0.02207  0.46036  1.0000
  C   C1968     1.0  0.60284  0.27234  0.59787  1.0000
  C   C1969     1.0  0.59848  0.25220  0.60058  1.0000
  C   C1970     1.0  0.58026  0.29761  0.61170  1.0000
  H   H3475     1.0  0.50564  0.01255  0.37141  1.0000
  H   H3476     1.0  0.56171  0.17983  0.60677  1.0000
  H   H3477     1.0  0.72434  0.07465  0.62310  1.0000
  H   H3478     1.0  0.71915  0.36997  0.32364  1.0000
  S   S440      1.0  0.60585  0.15368  0.60031  1.0000
  H   H3479     1.0  0.63797  0.46283  0.39808  1.0000
  H   H3480     1.0  0.62437  0.11486  0.52158  1.0000
  C   C1971     1.0  0.55611  0.10337  0.32538  1.0000
  H   H3481     1.0  0.51985  0.10844  0.44738  1.0000
  H   H3482     1.0  0.68268  0.18613  0.60202  1.0000
  H   H3483     1.0  0.57690  0.01617  0.35705  1.0000
  H   H3484     1.0  0.59789  0.31417  0.59724  1.0000
  H   H3485     1.0  0.60049  0.28415  0.58377  1.0000
  H   H3486     1.0  0.71977  0.06944  0.34321  1.0000
  H   H3487     1.0  0.58979  0.25652  0.60120  1.0000
  H   H3488     1.0  0.59981  0.24060  0.61534  1.0000
  H   H3489     1.0  0.58025  0.31488  0.60881  1.0000
  H   H3490     1.0  0.58262  0.29303  0.59622  1.0000
  C   C1972     1.0  0.65921  0.07218  0.48636  1.0000
  H   H3491     1.0  0.67903  0.33128  0.47428  1.0000
  H   H3492     1.0  0.50190  0.05036  0.35212  1.0000
  C   C1973     1.0  0.50351  0.99736  0.37940  1.0000
  H   H3493     1.0  0.68429  0.33642  0.43108  1.0000
  H   H3494     1.0  0.56327  0.03110  0.36253  1.0000
  C   C1974     1.0  0.56823  0.00706  0.38854  1.0000
  H   H3495     1.0  0.63141  0.13076  0.49830  1.0000
  H   H3496     1.0  0.58600  0.26799  0.63326  1.0000
  H   H3497     1.0  0.62271  0.13963  0.62016  1.0000
  C   C1975     1.0  0.71445  0.13889  0.38255  1.0000
  C   C1976     1.0  0.65524  0.18924  0.63279  1.0000
  H   H3498     1.0  0.66946  0.32533  0.40920  1.0000
  H   H3499     1.0  0.52411  0.07983  0.44977  1.0000
  N   N109      1.0  0.64039  0.15060  0.54167  1.0000
  C   C1977     1.0  0.63613  0.13523  0.53509  1.0000
  C   C1978     1.0  0.64909  0.13786  0.55331  1.0000
  C   C1979     1.0  0.63153  0.16149  0.55724  1.0000
  C   C1980     1.0  0.64435  0.16760  0.52339  1.0000
  C   C1981     1.0  0.64958  0.16118  0.50188  1.0000
  C   C1982     1.0  0.62601  0.14502  0.52592  1.0000
  C   C1983     1.0  0.63417  0.17917  0.56475  1.0000
  C   C1984     1.0  0.65895  0.12425  0.54100  1.0000
  C   C1985     1.0  0.66598  0.10919  0.55579  1.0000
  C   C1986     1.0  0.65571  0.17773  0.48701  1.0000
  C   C1987     1.0  0.62469  0.13138  0.51231  1.0000
  C   C1988     1.0  0.62460  0.18953  0.57984  1.0000
  H   H3500     1.0  0.63422  0.12195  0.54881  1.0000
  H   H3501     1.0  0.64222  0.12731  0.52318  1.0000
  H   H3502     1.0  0.65234  0.14853  0.55874  1.0000
  H   H3503     1.0  0.64568  0.12692  0.56787  1.0000
  H   H3504     1.0  0.62876  0.14939  0.57143  1.0000
  H   H3505     1.0  0.62446  0.16962  0.55027  1.0000
  H   H3506     1.0  0.63766  0.18152  0.52008  1.0000
  H   H3507     1.0  0.65007  0.17421  0.52770  1.0000
  H   H3508     1.0  0.64330  0.16050  0.49438  1.0000
  H   H3509     1.0  0.65516  0.14541  0.50322  1.0000
  H   H3510     1.0  0.61889  0.14589  0.53914  1.0000
  H   H3511     1.0  0.62622  0.16135  0.51617  1.0000
  H   H3512     1.0  0.63639  0.19221  0.55122  1.0000
  H   H3513     1.0  0.72523  0.44156  0.32702  1.0000
  H   H3514     1.0  0.71394  0.09724  0.33459  1.0000
  H   H3515     1.0  0.66340  0.07239  0.40484  1.0000
  H   H3516     1.0  0.60780  0.29202  0.64798  1.0000
  H   H3517     1.0  0.73485  0.38568  0.37450  1.0000
  C   C1989     1.0  0.60195  0.30435  0.61019  1.0000
  H   H3518     1.0  0.61865  0.29606  0.61374  1.0000
  H   H3519     1.0  0.73039  0.12045  0.38074  1.0000
  H   H3520     1.0  0.68718  0.39035  0.32912  1.0000
  H   H3521     1.0  0.64802  0.03527  0.45566  1.0000
  S   S441      1.0  0.71444  0.00973  0.40028  1.0000
  H   H3522     1.0  0.73324  0.05847  0.36221  1.0000
  H   H3523     1.0  0.53083  0.09762  0.65245  1.0000
  H   H3524     1.0  0.73070  0.03564  0.40036  1.0000
  H   H3525     1.0  0.59860  0.31304  0.62331  1.0000
  H   H3526     1.0  0.66740  0.01011  0.45820  1.0000
  C   C1990     1.0  0.72419  0.05742  0.62926  1.0000
  H   H3527     1.0  0.57087  0.05993  0.64505  1.0000
  H   H3528     1.0  0.72671  0.18996  0.46360  1.0000
  C   C1991     1.0  0.73014  0.07252  0.36984  1.0000
  H   H3529     1.0  0.55046  0.14514  0.63747  1.0000
  H   H3530     1.0  0.72314  0.44896  0.37946  1.0000
  H   H3531     1.0  0.71841  0.12728  0.56089  1.0000
  C   C1992     1.0  0.57065  0.02432  0.36866  1.0000
  H   H3532     1.0  0.71975  0.19209  0.64259  1.0000
  S   S442      1.0  0.51130  0.08779  0.33425  1.0000
  H   H3533     1.0  0.60324  0.25243  0.63943  1.0000
  H   H3534     1.0  0.61443  0.26355  0.62583  1.0000
  H   H3535     1.0  0.56186  0.01414  0.40079  1.0000
  H   H3536     1.0  0.66014  0.44318  0.37452  1.0000
  C   C1993     1.0  0.49479  0.01111  0.44758  1.0000
  H   H3537     1.0  0.64861  0.45618  0.36332  1.0000
  H   H3538     1.0  0.56568  0.10678  0.34442  1.0000
  H   H3539     1.0  0.71575  0.05854  0.60561  1.0000
  H   H3540     1.0  0.55723  0.17648  0.63503  1.0000
  C   C1994     1.0  0.64889  0.00127  0.46367  1.0000
  H   H3541     1.0  0.65752  0.19334  0.61528  1.0000
  S   S443      1.0  0.66203  0.27995  0.64936  1.0000
  H   H3542     1.0  0.57883  0.08780  0.64902  1.0000
  H   H3543     1.0  0.49485  0.08693  0.39681  1.0000
  S   S444      1.0  0.59970  0.13383  0.65199  1.0000
  H   H3544     1.0  0.73698  0.07858  0.63657  1.0000
  C   C1995     1.0  0.52987  0.11514  0.65056  1.0000
  C   C1996     1.0  0.73567  0.06626  0.38881  1.0000
  H   H3545     1.0  0.52123  0.12265  0.65300  1.0000
  H   H3546     1.0  0.63754  0.14259  0.65230  1.0000
  Fe  Fe222     1.0  0.66692  0.24441  0.65281  1.0000
  H   H3547     1.0  0.73672  0.11527  0.65239  1.0000
  C   C1997     1.0  0.60484  0.27701  0.65267  1.0000
  H   H3548     1.0  0.70431  0.35185  0.65351  1.0000
  C   C1998     1.0  0.73393  0.07494  0.65398  1.0000
  H   H3549     1.0  0.67352  0.08834  0.65480  1.0000
  C   C1999     1.0  0.50025  0.02863  0.79134  1.0000
  S   S445      1.0  0.52202  0.00217  0.73484  1.0000
  H   H3550     1.0  0.64108  0.34911  0.79500  1.0000
  H   H3551     1.0  0.61028  0.40636  0.79327  1.0000
  H   H3552     1.0  0.69877  0.24540  0.68643  1.0000
  H   H3553     1.0  0.69143  0.34500  0.66340  1.0000
  C   C2000     1.0  0.63553  0.35357  0.71726  1.0000
  Fe  Fe223     1.0  0.65117  0.27287  0.68099  1.0000
  H   H3554     1.0  0.68120  0.19484  0.73333  1.0000
  C   C2001     1.0  0.68000  0.20635  0.71833  1.0000
  H   H3555     1.0  0.67956  0.34877  0.84419  1.0000
  C   C2002     1.0  0.49679  0.04739  0.75675  1.0000
  Fe  Fe224     1.0  0.51755  0.03644  0.71839  1.0000
  H   H3556     1.0  0.62472  0.36699  0.74270  1.0000
  S   S446      1.0  0.72397  0.12540  0.69570  1.0000
  H   H3557     1.0  0.49340  0.07230  0.68783  1.0000
  H   H3558     1.0  0.66340  0.44055  0.75708  1.0000
  H   H3559     1.0  0.54032  0.10851  0.73227  1.0000
  S   S447      1.0  0.53292  0.04441  0.71754  1.0000
  H   H3560     1.0  0.66911  0.34657  0.67212  1.0000
  H   H3561     1.0  0.50582  0.01971  0.80123  1.0000
  H   H3562     1.0  0.65196  0.36140  0.81165  1.0000
  H   H3563     1.0  0.72571  0.34557  0.71447  1.0000
  S   S448      1.0  0.71261  0.48762  0.84430  1.0000
  C   C2003     1.0  0.63711  0.13859  0.66954  1.0000
  Fe  Fe225     1.0  0.67513  0.48933  0.84025  1.0000
  S   S449      1.0  0.72482  0.38827  0.87859  1.0000
  H   H3564     1.0  0.57433  0.05704  0.75647  1.0000
  H   H3565     1.0  0.58986  0.09740  0.68797  1.0000
  C   C2004     1.0  0.73652  0.01157  0.83740  1.0000
  H   H3566     1.0  0.73344  0.41053  0.68697  1.0000
  H   H3567     1.0  0.53154  0.09083  0.74752  1.0000
  H   H3568     1.0  0.73650  0.39272  0.91342  1.0000
  C   C2005     1.0  0.48931  0.03287  0.80024  1.0000
  H   H3569     1.0  0.54619  0.07257  0.72337  1.0000
  S   S450      1.0  0.65117  0.28648  0.70871  1.0000
  H   H3570     1.0  0.55864  0.03892  0.72761  1.0000
  S   S451      1.0  0.68991  0.49406  0.81550  1.0000
  S   S452      1.0  0.54855  0.99903  0.75408  1.0000
  C   C2006     1.0  0.52341  0.00653  0.83456  1.0000
  H   H3571     1.0  0.70123  0.45870  0.87662  1.0000
  C   C2007     1.0  0.71655  0.42230  0.69732  1.0000
  Fe  Fe226     1.0  0.69202  0.40623  0.72551  1.0000
  S   S453      1.0  0.67482  0.40500  0.73323  1.0000
  S   S454      1.0  0.69508  0.43884  0.70880  1.0000
  Fe  Fe227     1.0  0.69831  0.36072  0.74916  1.0000
  S   S455      1.0  0.68147  0.35617  0.75941  1.0000
  S   S456      1.0  0.71129  0.33160  0.75558  1.0000
  Fe  Fe228     1.0  0.68019  0.37213  0.72606  1.0000
  S   S457      1.0  0.67290  0.36255  0.70401  1.0000
  Fe  Fe229     1.0  0.67758  0.38931  0.76562  1.0000
  S   S458      1.0  0.66480  0.39889  0.79299  1.0000
  S   S459      1.0  0.69736  0.37491  0.71524  1.0000
  S   S460      1.0  0.69453  0.39232  0.75854  1.0000
  C   C2008     1.0  0.66626  0.44647  0.82960  1.0000
  C   C2009     1.0  0.67443  0.44281  0.81190  1.0000
  C   C2010     1.0  0.67419  0.42829  0.80022  1.0000
  C   C2011     1.0  0.66577  0.41749  0.80634  1.0000
  C   C2012     1.0  0.65773  0.42121  0.82403  1.0000
  C   C2013     1.0  0.65801  0.43546  0.83559  1.0000
  H   H3572     1.0  0.68098  0.45080  0.80762  1.0000
  H   H3573     1.0  0.68050  0.42539  0.78665  1.0000
  H   H3574     1.0  0.65124  0.41292  0.82896  1.0000
  H   H3575     1.0  0.65174  0.43801  0.84935  1.0000
  C   C2014     1.0  0.65793  0.30668  0.70704  1.0000
  C   C2015     1.0  0.66178  0.31955  0.68771  1.0000
  C   C2016     1.0  0.66640  0.33642  0.68715  1.0000
  C   C2017     1.0  0.66742  0.34042  0.70581  1.0000
  C   C2018     1.0  0.66386  0.32716  0.72512  1.0000
  C   C2019     1.0  0.65905  0.31053  0.72572  1.0000
  H   H3576     1.0  0.71405  0.49161  0.77502  1.0000
  S   S461      1.0  0.73096  0.06728  0.73119  1.0000
  H   H3577     1.0  0.66446  0.33020  0.73961  1.0000
  H   H3578     1.0  0.65604  0.30074  0.74076  1.0000
  C   C2020     1.0  0.72116  0.41550  0.86762  1.0000
  C   C2021     1.0  0.72800  0.42564  0.85047  1.0000
  C   C2022     1.0  0.72533  0.44790  0.84324  1.0000
  C   C2023     1.0  0.71566  0.45980  0.85264  1.0000
  C   C2024     1.0  0.70865  0.44950  0.86921  1.0000
  C   C2025     1.0  0.71150  0.42740  0.87695  1.0000
  H   H3579     1.0  0.69083  0.14227  0.68997  1.0000
  H   H3580     1.0  0.73074  0.45590  0.83036  1.0000
  H   H3581     1.0  0.68313  0.32107  0.74146  1.0000
  H   H3582     1.0  0.70627  0.41956  0.89034  1.0000
  C   C2026     1.0  0.72730  0.31659  0.81136  1.0000
  C   C2027     1.0  0.72317  0.33805  0.80255  1.0000
  C   C2028     1.0  0.71784  0.34304  0.78585  1.0000
  C   C2029     1.0  0.71694  0.32657  0.77762  1.0000
  C   C2030     1.0  0.72115  0.30529  0.78637  1.0000
  C   C2031     1.0  0.72273  0.02352  0.72065  1.0000
  H   H3583     1.0  0.72409  0.35072  0.80853  1.0000
  H   H3584     1.0  0.71470  0.35954  0.77900  1.0000
  H   H3585     1.0  0.65533  0.46677  0.74947  1.0000
  H   H3586     1.0  0.70849  0.28045  0.68732  1.0000
  C   C2032     1.0  0.72991  0.44363  0.68875  1.0000
  H   H3587     1.0  0.71450  0.40720  0.69902  1.0000
  S   S462      1.0  0.72436  0.05981  0.79316  1.0000
  C   C2033     1.0  0.70853  0.44025  0.70119  1.0000
  C   C2034     1.0  0.71121  0.45984  0.69858  1.0000
  C   C2035     1.0  0.72188  0.46147  0.69271  1.0000
  H   H3588     1.0  0.69978  0.14840  0.70906  1.0000
  H   H3589     1.0  0.72587  0.17406  0.66358  1.0000
  H   H3590     1.0  0.68314  0.47324  0.77398  1.0000
  H   H3591     1.0  0.49063  0.01675  0.74291  1.0000
  C   C2036     1.0  0.65566  0.34905  0.80202  1.0000
  C   C2037     1.0  0.64910  0.35135  0.78593  1.0000
  H   H3592     1.0  0.70900  0.13246  0.73912  1.0000
  C   C2038     1.0  0.50398  0.03571  0.76960  1.0000
  H   H3593     1.0  0.72308  0.05972  0.88783  1.0000
  C   C2039     1.0  0.57027  0.01427  0.70027  1.0000
  H   H3594     1.0  0.51244  0.03246  0.76287  1.0000
  H   H3595     1.0  0.68495  0.48506  0.70707  1.0000
  H   H3596     1.0  0.64788  0.39595  0.71225  1.0000
  H   H3597     1.0  0.72090  0.29588  0.69250  1.0000
  H   H3598     1.0  0.62075  0.12885  0.65955  1.0000
  S   S463      1.0  0.50133  0.05584  0.72940  1.0000
  C   C2040     1.0  0.69568  0.31756  0.70117  1.0000
  H   H3599     1.0  0.73545  0.41643  0.84319  1.0000
  C   C2041     1.0  0.71053  0.09920  0.69939  1.0000
  C   C2042     1.0  0.70372  0.09175  0.69188  1.0000
  H   H3600     1.0  0.68937  0.16218  0.72623  1.0000
  H   H3601     1.0  0.71304  0.16507  0.71284  1.0000
  H   H3602     1.0  0.71181  0.09236  0.71521  1.0000
  H   H3603     1.0  0.69991  0.07897  0.70188  1.0000
  S   S464      1.0  0.54438  0.00041  0.69943  1.0000
  C   C2043     1.0  0.55418  0.10026  0.67981  1.0000
  C   C2044     1.0  0.54971  0.08423  0.67783  1.0000
  H   H3604     1.0  0.66390  0.35082  0.79405  1.0000
  C   C2045     1.0  0.66580  0.08354  0.66224  1.0000
  H   H3605     1.0  0.53305  0.11801  0.66285  1.0000
  H   H3606     1.0  0.54945  0.11160  0.68942  1.0000
  H   H3607     1.0  0.54158  0.08338  0.68577  1.0000
  C   C2046     1.0  0.53967  0.09370  0.74472  1.0000
  H   H3608     1.0  0.69286  0.47097  0.73517  1.0000
  H   H3609     1.0  0.69376  0.30516  0.75423  1.0000
  C   C2047     1.0  0.70010  0.46436  0.76971  1.0000
  H   H3610     1.0  0.67157  0.29521  0.76311  1.0000
  H   H3611     1.0  0.59289  0.10597  0.70828  1.0000
  H   H3612     1.0  0.56372  0.00708  0.71143  1.0000
  C   C2048     1.0  0.73527  0.43189  0.89973  1.0000
  H   H3613     1.0  0.70004  0.46175  0.78670  1.0000
  H   H3614     1.0  0.65141  0.09270  0.68423  1.0000
  H   H3615     1.0  0.61918  0.18475  0.69172  1.0000
  H   H3616     1.0  0.60805  0.17646  0.67221  1.0000
  H   H3617     1.0  0.65272  0.43328  0.72400  1.0000
  Fe  Fe230     1.0  0.53838  0.03520  0.68620  1.0000
  H   H3618     1.0  0.72456  0.46974  0.78244  1.0000
  S   S465      1.0  0.69348  0.09087  0.66233  1.0000
  H   H3619     1.0  0.66092  0.31690  0.67322  1.0000
  N   N110      1.0  0.64764  0.13817  0.67390  1.0000
  H   H3620     1.0  0.61606  0.13251  0.68637  1.0000
  C   C2049     1.0  0.57196  0.04669  0.74897  1.0000
  H   H3621     1.0  0.63273  0.38567  0.80172  1.0000
  H   H3622     1.0  0.60855  0.24587  0.67379  1.0000
  H   H3623     1.0  0.57925  0.03408  0.74562  1.0000
  C   C2050     1.0  0.62142  0.12160  0.67614  1.0000
  H   H3624     1.0  0.70844  0.28201  0.73790  1.0000
  H   H3625     1.0  0.70388  0.26231  0.71046  1.0000
  H   H3626     1.0  0.68039  0.35594  0.81607  1.0000
  H   H3627     1.0  0.62911  0.41059  0.78363  1.0000
  S   S466      1.0  0.56998  0.12235  0.67173  1.0000
  H   H3628     1.0  0.64152  0.41289  0.75321  1.0000
  H   H3629     1.0  0.65604  0.33300  0.81277  1.0000
  N   N111      1.0  0.56859  0.05945  0.72876  1.0000
  H   H3630     1.0  0.62920  0.35696  0.70831  1.0000
  C   C2051     1.0  0.55945  0.07826  0.73278  1.0000
  H   H3631     1.0  0.72501  0.06181  0.69151  1.0000
  H   H3632     1.0  0.72758  0.30649  0.71840  1.0000
  C   C2052     1.0  0.70152  0.27857  0.70060  1.0000
  C   C2053     1.0  0.56353  0.03613  0.76631  1.0000
  H   H3633     1.0  0.67887  0.45537  0.75235  1.0000
  C   C2054     1.0  0.54794  0.07456  0.73776  1.0000
  H   H3634     1.0  0.68266  0.29244  0.72646  1.0000
  H   H3635     1.0  0.70301  0.18172  0.72920  1.0000
  S   S467      1.0  0.73439  0.48524  0.72069  1.0000
  C   C2055     1.0  0.67711  0.22900  0.72235  1.0000
  H   H3636     1.0  0.49068  0.03478  0.70665  1.0000
  H   H3637     1.0  0.71477  0.48172  0.80247  1.0000
  H   H3638     1.0  0.56026  0.08478  0.74565  1.0000
  H   H3639     1.0  0.55974  0.09166  0.71858  1.0000
  H   H3640     1.0  0.67545  0.16764  0.66098  1.0000
  H   H3641     1.0  0.68047  0.13905  0.66704  1.0000
  C   C2056     1.0  0.66212  0.45776  0.75706  1.0000
  H   H3642     1.0  0.73607  0.44809  0.89005  1.0000
  H   H3643     1.0  0.52183  0.01728  0.84558  1.0000
  C   C2057     1.0  0.68507  0.17707  0.68852  1.0000
  H   H3644     1.0  0.67553  0.24107  0.70783  1.0000
  H   H3645     1.0  0.69711  0.49447  0.73327  1.0000
  H   H3646     1.0  0.58273  0.08138  0.73592  1.0000
  H   H3647     1.0  0.57463  0.10093  0.71917  1.0000
  S   S468      1.0  0.63354  0.21324  0.68025  1.0000
  H   H3648     1.0  0.54673  0.06010  0.75020  1.0000
  H   H3649     1.0  0.54076  0.09598  0.75962  1.0000
  H   H3650     1.0  0.64324  0.43554  0.70838  1.0000
  H   H3651     1.0  0.73271  0.49160  0.79248  1.0000
  H   H3652     1.0  0.70631  0.31368  0.67025  1.0000
  H   H3653     1.0  0.70506  0.47377  0.70124  1.0000
  C   C2058     1.0  0.72288  0.03012  0.69704  1.0000
  C   C2059     1.0  0.67086  0.48964  0.74565  1.0000
  H   H3654     1.0  0.72387  0.47664  0.69093  1.0000
  H   H3655     1.0  0.66849  0.49105  0.76246  1.0000
  H   H3656     1.0  0.68230  0.28013  0.77629  1.0000
  H   H3657     1.0  0.66976  0.23084  0.73495  1.0000
  H   H3658     1.0  0.59804  0.07865  0.70531  1.0000
  C   C2060     1.0  0.71548  0.11571  0.68657  1.0000
  H   H3659     1.0  0.72581  0.01549  0.69061  1.0000
  H   H3660     1.0  0.73298  0.08582  0.90058  1.0000
  H   H3661     1.0  0.73095  0.01716  0.72338  1.0000
  H   H3662     1.0  0.70732  0.47036  0.76018  1.0000
  C   C2061     1.0  0.70863  0.29375  0.72244  1.0000
  N   N112      1.0  0.69401  0.18163  0.69510  1.0000
  H   H3663     1.0  0.72745  0.01424  0.91511  1.0000
  C   C2062     1.0  0.69668  0.16411  0.71374  1.0000
  H   H3664     1.0  0.68919  0.26110  0.67081  1.0000
  C   C2063     1.0  0.61596  0.39697  0.80349  1.0000
  H   H3665     1.0  0.63776  0.10576  0.66847  1.0000
  S   S469      1.0  0.73513  0.10557  0.74893  1.0000
  C   C2064     1.0  0.68794  0.15704  0.67880  1.0000
  H   H3666     1.0  0.70076  0.18736  0.66137  1.0000
  C   C2065     1.0  0.73276  0.35298  0.70920  1.0000
  H   H3667     1.0  0.71340  0.19486  0.68934  1.0000
  C   C2066     1.0  0.65874  0.09875  0.67631  1.0000
  H   H3668     1.0  0.71249  0.45226  0.93494  1.0000
  C   C2067     1.0  0.56462  0.10199  0.66903  1.0000
  H   H3669     1.0  0.69643  0.20782  0.70537  1.0000
  S   S470      1.0  0.65667  0.23706  0.68514  1.0000
  H   H3670     1.0  0.67831  0.17466  0.70224  1.0000
  H   H3671     1.0  0.64870  0.38573  0.77799  1.0000
  H   H3672     1.0  0.62267  0.39007  0.76426  1.0000
  H   H3673     1.0  0.57205  0.02980  0.79147  1.0000
  H   H3674     1.0  0.57713  0.01534  0.72502  1.0000
  C   C2068     1.0  0.58107  0.08625  0.71987  1.0000
  C   C2069     1.0  0.61939  0.19260  0.67534  1.0000
  H   H3675     1.0  0.71291  0.14994  0.75029  1.0000
  S   S471      1.0  0.68138  0.49234  0.86684  1.0000
  H   H3676     1.0  0.61995  0.25757  0.65980  1.0000
  H   H3677     1.0  0.69591  0.35913  0.67748  1.0000
  C   C2070     1.0  0.71718  0.44896  0.91938  1.0000
  H   H3678     1.0  0.58529  0.05498  0.71286  1.0000
  C   C2071     1.0  0.70519  0.16636  0.72404  1.0000
  H   H3679     1.0  0.73637  0.34325  0.73997  1.0000
  C   C2072     1.0  0.70675  0.11736  0.65873  1.0000
  H   H3680     1.0  0.72991  0.39425  0.74646  1.0000
  H   H3681     1.0  0.64303  0.17267  0.66983  1.0000
  C   C2073     1.0  0.64729  0.13340  0.69726  1.0000
  C   C2074     1.0  0.65652  0.12221  0.66346  1.0000
  C   C2075     1.0  0.69598  0.26156  0.67705  1.0000
  H   H3682     1.0  0.71731  0.13767  0.65626  1.0000
  C   C2076     1.0  0.63294  0.11768  0.67806  1.0000
  C   C2077     1.0  0.63889  0.14918  0.70993  1.0000
  H   H3683     1.0  0.56293  0.05586  0.70331  1.0000
  C   C2078     1.0  0.57441  0.02668  0.71111  1.0000
  S   S472      1.0  0.52245  0.03008  0.68564  1.0000
  C   C2079     1.0  0.70360  0.32523  0.68071  1.0000
  C   C2080     1.0  0.63919  0.14233  0.73334  1.0000
  H   H3684     1.0  0.64313  0.35553  0.70575  1.0000
  H   H3685     1.0  0.65526  0.13305  0.69967  1.0000
  H   H3686     1.0  0.64577  0.11724  0.70518  1.0000
  H   H3687     1.0  0.70824  0.30936  0.72603  1.0000
  C   C2081     1.0  0.72220  0.02972  0.90947  1.0000
  H   H3688     1.0  0.72986  0.12660  0.89022  1.0000
  Fe  Fe231     1.0  0.53793  0.00932  0.73085  1.0000
  H   H3689     1.0  0.72231  0.42918  0.75876  1.0000
  C   C2082     1.0  0.69018  0.20339  0.70061  1.0000
  H   H3690     1.0  0.63313  0.11091  0.69491  1.0000
  S   S473      1.0  0.73713  0.36782  0.82536  1.0000
  H   H3691     1.0  0.64042  0.16560  0.70430  1.0000
  H   H3692     1.0  0.63072  0.14972  0.70868  1.0000
  H   H3693     1.0  0.73555  0.00766  0.85431  1.0000
  H   H3694     1.0  0.68541  0.27381  0.70314  1.0000
  H   H3695     1.0  0.66297  0.09774  0.68873  1.0000
  C   C2083     1.0  0.56558  0.04572  0.71782  1.0000
  H   H3696     1.0  0.69411  0.32953  0.71095  1.0000
  C   C2084     1.0  0.67871  0.29622  0.76783  1.0000
  C   C2085     1.0  0.71350  0.12489  0.66630  1.0000
  C   C2086     1.0  0.73419  0.12532  0.87386  1.0000
  H   H3697     1.0  0.67305  0.20416  0.71390  1.0000
  C   C2087     1.0  0.68685  0.30454  0.74853  1.0000
  H   H3698     1.0  0.63731  0.12624  0.74019  1.0000
  H   H3699     1.0  0.64717  0.14201  0.73556  1.0000
  H   H3700     1.0  0.63317  0.15397  0.74198  1.0000
  C   C2088     1.0  0.48801  0.00191  0.74451  1.0000
  H   H3701     1.0  0.72054  0.29251  0.78004  1.0000
  H   H3702     1.0  0.69196  0.27331  0.74046  1.0000
  H   H3703     1.0  0.68364  0.23218  0.72745  1.0000
  C   C2089     1.0  0.62910  0.38198  0.77313  1.0000
  C   C2090     1.0  0.64953  0.40284  0.72392  1.0000
  C   C2091     1.0  0.69005  0.29038  0.73200  1.0000
  C   C2092     1.0  0.62579  0.20775  0.66551  1.0000
  H   H3704     1.0  0.57656  0.07424  0.69775  1.0000
  H   H3705     1.0  0.72405  0.04028  0.83716  1.0000
  C   C2093     1.0  0.72724  0.42416  0.69058  1.0000
  H   H3706     1.0  0.72931  0.28377  0.81001  1.0000
  H   H3707     1.0  0.56000  0.02656  0.76017  1.0000
  H   H3708     1.0  0.64910  0.36209  0.73465  1.0000
  C   C2094     1.0  0.64049  0.40223  0.74411  1.0000
  H   H3709     1.0  0.68794  0.31934  0.69713  1.0000
  H   H3710     1.0  0.65724  0.39348  0.72762  1.0000
  H   H3711     1.0  0.62738  0.36585  0.78088  1.0000
  H   H3712     1.0  0.65668  0.37169  0.75861  1.0000
  H   H3713     1.0  0.71058  0.32783  0.68474  1.0000
  C   C2095     1.0  0.63254  0.36897  0.73212  1.0000
  H   H3714     1.0  0.66741  0.06698  0.67185  1.0000
  H   H3715     1.0  0.67616  0.30730  0.77882  1.0000
  H   H3716     1.0  0.64077  0.34803  0.75576  1.0000
  H   H3717     1.0  0.63640  0.33669  0.72629  1.0000
  C   C2096     1.0  0.64880  0.37322  0.76983  1.0000
  H   H3718     1.0  0.57683  0.00124  0.69487  1.0000
  C   C2097     1.0  0.71992  0.28665  0.70902  1.0000
  H   H3719     1.0  0.71809  0.01084  0.72826  1.0000
  H   H3720     1.0  0.73733  0.40915  0.72417  1.0000
  C   C2098     1.0  0.69000  0.48047  0.76480  1.0000
  H   H3721     1.0  0.63289  0.41030  0.73887  1.0000
  H   H3722     1.0  0.59648  0.28023  0.66162  1.0000
  N   N113      1.0  0.69417  0.39464  0.84844  1.0000
  C   C2099     1.0  0.70133  0.40157  0.82736  1.0000
  C   C2100     1.0  0.68513  0.38700  0.84545  1.0000
  C   C2101     1.0  0.68949  0.41403  0.85822  1.0000
  C   C2102     1.0  0.70025  0.37766  0.86344  1.0000
  C   C2103     1.0  0.70630  0.35666  0.85614  1.0000
  C   C2104     1.0  0.71067  0.41079  0.82800  1.0000
  C   C2105     1.0  0.67990  0.41217  0.87743  1.0000
  C   C2106     1.0  0.68760  0.37493  0.82733  1.0000
  C   C2107     1.0  0.67910  0.36238  0.83033  1.0000
  C   C2108     1.0  0.71275  0.34181  0.87206  1.0000
  C   C2109     1.0  0.71765  0.41625  0.80603  1.0000
  C   C2110     1.0  0.67825  0.42896  0.89025  1.0000
  H   H3723     1.0  0.69650  0.41393  0.81676  1.0000
  H   H3724     1.0  0.70497  0.38818  0.81910  1.0000
  H   H3725     1.0  0.68162  0.37684  0.86049  1.0000
  H   H3726     1.0  0.67850  0.40084  0.84179  1.0000
  H   H3727     1.0  0.68673  0.42841  0.84630  1.0000
  H   H3728     1.0  0.69571  0.41815  0.86346  1.0000
  H   H3729     1.0  0.70601  0.38420  0.86763  1.0000
  H   H3730     1.0  0.69482  0.37280  0.87876  1.0000
  H   H3731     1.0  0.71193  0.35975  0.84074  1.0000
  H   H3732     1.0  0.70059  0.34784  0.85515  1.0000
  H   H3733     1.0  0.70769  0.42574  0.83406  1.0000
  H   H3734     1.0  0.71585  0.39895  0.83806  1.0000
  H   H3735     1.0  0.68092  0.39628  0.88832  1.0000
  H   H3736     1.0  0.67248  0.41478  0.87182  1.0000
  H   H3737     1.0  0.68775  0.38671  0.81199  1.0000
  H   H3738     1.0  0.69539  0.36352  0.82590  1.0000
  H   H3739     1.0  0.67100  0.37286  0.83275  1.0000
  H   H3740     1.0  0.70743  0.33726  0.88764  1.0000
  H   H3741     1.0  0.71719  0.32699  0.86635  1.0000
  H   H3742     1.0  0.71857  0.34978  0.87401  1.0000
  H   H3743     1.0  0.72436  0.42248  0.80705  1.0000
  H   H3744     1.0  0.72100  0.40179  0.79919  1.0000
  H   H3745     1.0  0.71294  0.42875  0.79550  1.0000
  H   H3746     1.0  0.67742  0.44528  0.88000  1.0000
  H   H3747     1.0  0.67087  0.42841  0.90280  1.0000
  H   H3748     1.0  0.68509  0.42582  0.89779  1.0000
  H   H3749     1.0  0.68967  0.29390  0.68058  1.0000
  H   H3750     1.0  0.73143  0.44233  0.76316  1.0000
  C   C2111     1.0  0.65071  0.42577  0.71321  1.0000
  H   H3751     1.0  0.65276  0.33808  0.77742  1.0000
  N   N114      1.0  0.69914  0.29522  0.71359  1.0000
  C   C2112     1.0  0.70657  0.14832  0.74348  1.0000
  C   C2113     1.0  0.64108  0.36414  0.74533  1.0000
  C   C2114     1.0  0.57801  0.06803  0.71404  1.0000
  C   C2115     1.0  0.69848  0.34659  0.66805  1.0000
  C   C2116     1.0  0.72612  0.30032  0.80336  1.0000
  H   H3752     1.0  0.73059  0.42596  0.89216  1.0000
  C   C2117     1.0  0.56841  0.02107  0.78447  1.0000
  H   H3753     1.0  0.69904  0.14896  0.75572  1.0000
  H   H3754     1.0  0.71843  0.03775  0.92295  1.0000
  C   C2118     1.0  0.62742  0.39438  0.79058  1.0000
  N   N115      1.0  0.63986  0.38033  0.75810  1.0000
  H   H3755     1.0  0.68857  0.21581  0.68634  1.0000
  H   H3756     1.0  0.73102  0.36773  0.69694  1.0000
  H   H3757     1.0  0.70045  0.44878  0.76621  1.0000
  H   H3758     1.0  0.72803  0.27991  0.73488  1.0000
  H   H3759     1.0  0.55713  0.04861  0.77306  1.0000
  C   C2119     1.0  0.64998  0.16025  0.66459  1.0000
  C   C2120     1.0  0.67825  0.15384  0.67328  1.0000
  S   S474      1.0  0.63738  0.27352  0.66723  1.0000
  H   H3760     1.0  0.65727  0.42557  0.69891  1.0000
  C   C2121     1.0  0.70184  0.10078  0.67154  1.0000
  H   H3761     1.0  0.72102  0.03534  0.65907  1.0000
  H   H3762     1.0  0.50346  0.00147  0.84556  1.0000
  Fe  Fe232     1.0  0.73334  0.10092  0.71838  1.0000
  C   C2122     1.0  0.71947  0.48510  0.78605  1.0000
  S   S475      1.0  0.66606  0.46338  0.84585  1.0000
  C   C2123     1.0  0.59108  0.09236  0.70440  1.0000
  H   H3763     1.0  0.72141  0.26942  0.70880  1.0000
  Fe  Fe233     1.0  0.73406  0.07099  0.76088  1.0000
  H   H3764     1.0  0.71886  0.03742  0.72820  1.0000
  H   H3765     1.0  0.67387  0.46401  0.72853  1.0000
  H   H3766     1.0  0.71584  0.02645  0.90393  1.0000
  H   H3767     1.0  0.61879  0.10619  0.68095  1.0000
  H   H3768     1.0  0.69413  0.15870  0.66398  1.0000
  C   C2124     1.0  0.61312  0.18777  0.66428  1.0000
  H   H3769     1.0  0.61503  0.40565  0.81601  1.0000
  S   S476      1.0  0.54982  0.05185  0.65941  1.0000
  Fe  Fe234     1.0  0.64391  0.23822  0.66851  1.0000
  H   H3770     1.0  0.70740  0.21324  0.66872  1.0000
  H   H3771     1.0  0.56730  0.02495  0.68629  1.0000
  C   C2125     1.0  0.71122  0.19623  0.67432  1.0000
  H   H3772     1.0  0.49007  0.99874  0.71230  1.0000
  H   H3773     1.0  0.61399  0.38106  0.81118  1.0000
  N   N116      1.0  0.73226  0.05226  0.66165  1.0000
  H   H3774     1.0  0.71288  0.44021  0.91385  1.0000
  H   H3775     1.0  0.56208  0.01432  0.79696  1.0000
  H   H3776     1.0  0.70822  0.16513  0.67650  1.0000
  H   H3777     1.0  0.63156  0.38550  0.72240  1.0000
  C   C2126     1.0  0.69236  0.27816  0.69077  1.0000
  H   H3778     1.0  0.71563  0.06232  0.66037  1.0000
  C   C2127     1.0  0.72855  0.04400  0.89149  1.0000
  H   H3779     1.0  0.70250  0.26576  0.66342  1.0000
  H   H3780     1.0  0.63084  0.15174  0.67542  1.0000
  H   H3781     1.0  0.72752  0.36897  0.73490  1.0000
  H   H3782     1.0  0.67173  0.15205  0.68755  1.0000
  H   H3783     1.0  0.71773  0.46450  0.90801  1.0000
  C   C2128     1.0  0.70348  0.18172  0.67655  1.0000
  H   H3784     1.0  0.72722  0.42019  0.93279  1.0000
  C   C2129     1.0  0.61142  0.26106  0.66783  1.0000
  H   H3785     1.0  0.65664  0.16192  0.67040  1.0000
  H   H3786     1.0  0.68185  0.19108  0.67675  1.0000
  H   H3787     1.0  0.71450  0.03683  0.69530  1.0000
  H   H3788     1.0  0.58132  0.03229  0.69963  1.0000
  H   H3789     1.0  0.48908  0.00989  0.87425  1.0000
  H   H3790     1.0  0.73192  0.44428  0.92850  1.0000
  C   C2130     1.0  0.73489  0.35840  0.72802  1.0000
  C   C2131     1.0  0.57067  0.08712  0.65682  1.0000
  H   H3791     1.0  0.73093  0.03687  0.87739  1.0000
  H   H3792     1.0  0.73047  0.08737  0.87583  1.0000
  H   H3793     1.0  0.57455  0.00757  0.77884  1.0000
  C   C2132     1.0  0.67224  0.46588  0.74502  1.0000
  C   C2133     1.0  0.72827  0.43552  0.92154  1.0000
  C   C2134     1.0  0.72968  0.04721  0.68556  1.0000
  C   C2135     1.0  0.72852  0.28938  0.71839  1.0000
  H   H3794     1.0  0.66007  0.45943  0.77372  1.0000
  C   C2136     1.0  0.55563  0.06998  0.66485  1.0000
  C   C2137     1.0  0.72151  0.19068  0.65812  1.0000
  C   C2138     1.0  0.69038  0.48619  0.74081  1.0000
  H   H3795     1.0  0.61073  0.26787  0.68155  1.0000
  H   H3796     1.0  0.53208  0.00315  0.82741  1.0000
  H   H3797     1.0  0.72673  0.20183  0.65610  1.0000
  H   H3798     1.0  0.73582  0.04917  0.91396  1.0000
  C   C2139     1.0  0.73041  0.43263  0.75318  1.0000
  H   H3799     1.0  0.73714  0.04250  0.69160  1.0000
  H   H3800     1.0  0.72619  0.08652  0.65695  1.0000
  Fe  Fe235     1.0  0.52793  0.99605  0.70217  1.0000
  H   H3801     1.0  0.66427  0.12717  0.65973  1.0000
  H   H3802     1.0  0.73120  0.44206  0.73668  1.0000
  H   H3803     1.0  0.51908  0.01476  0.82167  1.0000
  C   C2140     1.0  0.73003  0.03003  0.82769  1.0000
  H   H3804     1.0  0.50725  0.99762  0.86976  1.0000
  C   C2141     1.0  0.73161  0.03572  0.80563  1.0000
  H   H3805     1.0  0.73653  0.28377  0.70884  1.0000
  S   S477      1.0  0.73425  0.30907  0.83193  1.0000
  H   H3806     1.0  0.72840  0.12660  0.86429  1.0000
  C   C2142     1.0  0.73704  0.08474  0.88402  1.0000
  H   H3807     1.0  0.70949  0.68564  0.17288  1.0000
  Fe  Fe236     1.0  0.63035  0.84698  0.10176  1.0000
  S   S478      1.0  0.61988  0.84874  0.13368  1.0000
  S   S479      1.0  0.64459  0.86183  0.08724  1.0000
  Fe  Fe237     1.0  0.61764  0.82065  0.09217  1.0000
  S   S480      1.0  0.60588  0.82063  0.12324  1.0000
  S   S481      1.0  0.61698  0.79963  0.07165  1.0000
  Fe  Fe238     1.0  0.60642  0.85515  0.11759  1.0000
  S   S482      1.0  0.59201  0.88182  0.12331  1.0000
  Fe  Fe239     1.0  0.62029  0.81423  0.13659  1.0000
  S   S483      1.0  0.62112  0.79136  0.16765  1.0000
  S   S484      1.0  0.61686  0.85598  0.08499  1.0000
  S   S485      1.0  0.63209  0.81176  0.10605  1.0000
  H   H3808     1.0  0.64353  0.87666  0.04482  1.0000
  Fe  Fe240     1.0  0.56003  0.91637  0.22803  1.0000
  S   S486      1.0  0.57440  0.89088  0.21831  1.0000
  S   S487      1.0  0.55038  0.90829  0.26101  1.0000
  Fe  Fe241     1.0  0.69306  0.84463  0.13034  1.0000
  S   S488      1.0  0.69593  0.82194  0.10936  1.0000
  S   S489      1.0  0.67589  0.85876  0.14395  1.0000
  Fe  Fe242     1.0  0.71690  0.84119  0.12556  1.0000
  S   S490      1.0  0.72140  0.81769  0.10455  1.0000
  H   H3809     1.0  0.53522  0.98327  0.30462  1.0000
  Fe  Fe243     1.0  0.70853  0.83953  0.08869  1.0000
  S   S491      1.0  0.71244  0.84963  0.05305  1.0000
  Fe  Fe244     1.0  0.70849  0.80216  0.12709  1.0000
  S   S492      1.0  0.70955  0.76637  0.13857  1.0000
  S   S493      1.0  0.70463  0.86396  0.10835  1.0000
  S   S494      1.0  0.70498  0.82381  0.14973  1.0000
  H   H3810     1.0  0.69158  0.92553  0.05104  1.0000
  H   H3811     1.0  0.73604  0.92016  0.08529  1.0000
  H   H3812     1.0  0.51387  0.83712  0.27150  1.0000
  H   H3813     1.0  0.55846  0.89732  0.31140  1.0000
  H   H3814     1.0  0.54468  0.88595  0.18235  1.0000
  H   H3815     1.0  0.73004  0.85744  0.00372  1.0000
  H   H3816     1.0  0.62637  0.66372  0.11356  1.0000
  H   H3817     1.0  0.60654  0.92557  0.12538  1.0000
  Fe  Fe245     1.0  0.71250  0.54972  0.25013  1.0000
  S   S495      1.0  0.69852  0.54220  0.24358  1.0000
  N   N117      1.0  0.64680  0.86955  0.01406  1.0000
  Fe  Fe246     1.0  0.68979  0.57437  0.25045  1.0000
  S   S496      1.0  0.67780  0.59859  0.23322  1.0000
  C   C2143     1.0  0.73121  0.91900  0.04938  1.0000
  S   S497      1.0  0.70418  0.58305  0.25394  1.0000
  C   C2144     1.0  0.63468  0.90417  0.02630  1.0000
  H   H3818     1.0  0.63530  0.91078  0.05577  1.0000
  S   S498      1.0  0.70903  0.53485  0.28471  1.0000
  Fe  Fe247     1.0  0.65748  0.69040  0.13518  1.0000
  S   S499      1.0  0.65938  0.71286  0.10374  1.0000
  S   S500      1.0  0.64370  0.69568  0.16253  1.0000
  Fe  Fe248     1.0  0.67760  0.65871  0.12191  1.0000
  S   S501      1.0  0.68121  0.67835  0.08881  1.0000
  S   S502      1.0  0.68874  0.62812  0.13363  1.0000
  Fe  Fe249     1.0  0.67657  0.70609  0.10470  1.0000
  S   S503      1.0  0.68420  0.73449  0.09097  1.0000
  Fe  Fe250     1.0  0.66376  0.68367  0.09019  1.0000
  S   S504      1.0  0.65542  0.68807  0.06390  1.0000
  S   S505      1.0  0.67438  0.68617  0.13758  1.0000
  S   S506      1.0  0.66050  0.66139  0.12192  1.0000
  C   C2145     1.0  0.67267  0.66222  0.00438  1.0000
  C   C2146     1.0  0.66170  0.67076  0.00813  1.0000
  C   C2147     1.0  0.65653  0.67857  0.02649  1.0000
  C   C2148     1.0  0.66227  0.67778  0.04129  1.0000
  C   C2149     1.0  0.67324  0.66922  0.03763  1.0000
  C   C2150     1.0  0.67844  0.66146  0.01917  1.0000
  H   H3819     1.0  0.62639  0.79316  0.99350  1.0000
  H   H3820     1.0  0.64803  0.68492  0.02938  1.0000
  H   H3821     1.0  0.67771  0.66850  0.04901  1.0000
  H   H3822     1.0  0.68691  0.65475  0.01641  1.0000
  C   C2151     1.0  0.68069  0.60510  0.20543  1.0000
  C   C2152     1.0  0.67335  0.62095  0.19507  1.0000
  C   C2153     1.0  0.67574  0.62786  0.17303  1.0000
  C   C2154     1.0  0.68539  0.61862  0.16114  1.0000
  C   C2155     1.0  0.69265  0.60236  0.17141  1.0000
  C   C2156     1.0  0.69033  0.59569  0.19355  1.0000
  H   H3823     1.0  0.66583  0.62811  0.20413  1.0000
  H   H3824     1.0  0.67006  0.64030  0.16526  1.0000
  H   H3825     1.0  0.70013  0.59518  0.16225  1.0000
  H   H3826     1.0  0.69602  0.58343  0.20144  1.0000
  H   H3827     1.0  0.53355  0.88564  0.28824  1.0000
  H   H3828     1.0  0.66399  0.67404  0.21567  1.0000
  C   C2157     1.0  0.55550  0.86661  0.20281  1.0000
  H   H3829     1.0  0.70246  0.91414  0.03191  1.0000
  C   C2158     1.0  0.53963  0.84685  0.25829  1.0000
  C   C2159     1.0  0.61463  0.91600  0.12704  1.0000
  C   C2160     1.0  0.50681  0.90161  0.29150  1.0000
  C   C2161     1.0  0.73260  0.88178  0.17995  1.0000
  C   C2162     1.0  0.70273  0.75685  0.12538  1.0000
  C   C2163     1.0  0.69891  0.73800  0.13485  1.0000
  C   C2164     1.0  0.69318  0.73078  0.12453  1.0000
  C   C2165     1.0  0.69133  0.74243  0.10469  1.0000
  C   C2166     1.0  0.69527  0.76104  0.09519  1.0000
  C   C2167     1.0  0.70099  0.76816  0.10543  1.0000
  H   H3830     1.0  0.70032  0.72914  0.15020  1.0000
  H   H3831     1.0  0.69022  0.71630  0.13185  1.0000
  H   H3832     1.0  0.69391  0.77007  0.07982  1.0000
  H   H3833     1.0  0.70423  0.78221  0.09765  1.0000
  H   H3834     1.0  0.70988  0.67936  0.14182  1.0000
  C   C2168     1.0  0.72292  0.86557  0.16489  1.0000
  S   S507      1.0  0.69010  0.49751  0.29144  1.0000
  H   H3835     1.0  0.73348  0.97523  0.19594  1.0000
  H   H3836     1.0  0.62856  0.90758  0.01689  1.0000
  C   C2169     1.0  0.52512  0.88846  0.29519  1.0000
  H   H3837     1.0  0.71588  0.86003  0.16588  1.0000
  H   H3838     1.0  0.58167  0.94866  0.18086  1.0000
  H   H3839     1.0  0.73524  0.81241  0.23228  1.0000
  C   C2170     1.0  0.72249  0.90657  0.08633  1.0000
  C   C2171     1.0  0.68601  0.83622  0.04672  1.0000
  C   C2172     1.0  0.69317  0.84165  0.05495  1.0000
  C   C2173     1.0  0.70286  0.84564  0.04212  1.0000
  C   C2174     1.0  0.70505  0.84569  0.02060  1.0000
  H   H3840     1.0  0.67863  0.83267  0.05690  1.0000
  H   H3841     1.0  0.69116  0.84266  0.07123  1.0000
  H   H3842     1.0  0.71251  0.84891  0.01072  1.0000
  C   C2175     1.0  0.51773  0.89852  0.28241  1.0000
  H   H3843     1.0  0.73642  0.89338  0.10105  1.0000
  H   H3844     1.0  0.59848  0.74681  0.15452  1.0000
  H   H3845     1.0  0.53219  0.82185  0.25656  1.0000
  H   H3846     1.0  0.66053  0.85988  0.02843  1.0000
  C   C2176     1.0  0.58635  0.88348  0.14983  1.0000
  C   C2177     1.0  0.58923  0.86667  0.16635  1.0000
  C   C2178     1.0  0.58504  0.86877  0.18736  1.0000
  C   C2179     1.0  0.57820  0.88786  0.19198  1.0000
  C   C2180     1.0  0.57501  0.90439  0.17552  1.0000
  C   C2181     1.0  0.57905  0.90215  0.15448  1.0000
  H   H3847     1.0  0.59477  0.85214  0.16293  1.0000
  H   H3848     1.0  0.58737  0.85582  0.20009  1.0000
  H   H3849     1.0  0.56968  0.91912  0.17896  1.0000
  H   H3850     1.0  0.57676  0.91517  0.14176  1.0000
  C   C2182     1.0  0.62698  0.76479  0.16556  1.0000
  C   C2183     1.0  0.62647  0.74854  0.18383  1.0000
  C   C2184     1.0  0.63139  0.72728  0.18262  1.0000
  C   C2185     1.0  0.63711  0.72226  0.16323  1.0000
  C   C2186     1.0  0.63761  0.73848  0.14493  1.0000
  C   C2187     1.0  0.63241  0.75968  0.14605  1.0000
  H   H3851     1.0  0.62227  0.75237  0.19895  1.0000
  H   H3852     1.0  0.63098  0.71474  0.19681  1.0000
  H   H3853     1.0  0.64196  0.73472  0.12995  1.0000
  H   H3854     1.0  0.63283  0.77200  0.13189  1.0000
  C   C2188     1.0  0.65319  0.86018  0.10349  1.0000
  C   C2189     1.0  0.66389  0.86077  0.09427  1.0000
  C   C2190     1.0  0.67090  0.86012  0.10666  1.0000
  C   C2191     1.0  0.66719  0.85937  0.12829  1.0000
  C   C2192     1.0  0.65643  0.85919  0.13748  1.0000
  C   C2193     1.0  0.64947  0.85922  0.12520  1.0000
  H   H3855     1.0  0.66680  0.86172  0.07748  1.0000
  H   H3856     1.0  0.67912  0.86077  0.09936  1.0000
  H   H3857     1.0  0.65354  0.85899  0.15413  1.0000
  H   H3858     1.0  0.64120  0.85901  0.13239  1.0000
  C   C2194     1.0  0.60354  0.83023  0.01247  1.0000
  C   C2195     1.0  0.60660  0.84294  0.02225  1.0000
  C   C2196     1.0  0.61119  0.83357  0.03992  1.0000
  C   C2197     1.0  0.61257  0.81151  0.04803  1.0000
  C   C2198     1.0  0.60992  0.79869  0.03775  1.0000
  C   C2199     1.0  0.60541  0.80803  0.01998  1.0000
  H   H3859     1.0  0.60530  0.86009  0.01627  1.0000
  H   H3860     1.0  0.61351  0.84340  0.04745  1.0000
  H   H3861     1.0  0.61106  0.78158  0.04385  1.0000
  H   H3862     1.0  0.60305  0.79815  0.01252  1.0000
  H   H3863     1.0  0.63528  0.81699  0.05037  1.0000
  H   H3864     1.0  0.73194  0.85675  0.24163  1.0000
  H   H3865     1.0  0.67542  0.87863  0.02253  1.0000
  C   C2200     1.0  0.68054  0.66879  0.19882  1.0000
  H   H3866     1.0  0.71245  0.80047  0.02561  1.0000
  H   H3867     1.0  0.70074  0.71721  0.21458  1.0000
  H   H3868     1.0  0.70922  0.71518  0.18899  1.0000
  H   H3869     1.0  0.54124  0.83752  0.27393  1.0000
  H   H3870     1.0  0.70880  0.64037  0.12730  1.0000
  C   C2201     1.0  0.50508  0.96535  0.23582  1.0000
  C   C2202     1.0  0.62758  0.71692  0.02084  1.0000
  H   H3871     1.0  0.65710  0.89891  0.02224  1.0000
  H   H3872     1.0  0.57715  0.84731  0.25697  1.0000
  H   H3873     1.0  0.71468  0.66264  0.11183  1.0000
  S   S508      1.0  0.73128  0.85204  0.12727  1.0000
  H   H3874     1.0  0.71761  0.51222  0.22995  1.0000
  C   C2203     1.0  0.71704  0.89762  0.05868  1.0000
  H   H3875     1.0  0.50889  0.96250  0.27513  1.0000
  H   H3876     1.0  0.52206  0.83687  0.28880  1.0000
  H   H3877     1.0  0.63603  0.74958  0.01530  1.0000
  H   H3878     1.0  0.52404  0.84196  0.00110  1.0000
  H   H3879     1.0  0.58468  0.95658  0.20161  1.0000
  C   C2204     1.0  0.49236  0.93133  0.21549  1.0000
  H   H3880     1.0  0.62558  0.92995  0.04223  1.0000
  H   H3881     1.0  0.65275  0.72963  0.01707  1.0000
  H   H3882     1.0  0.51139  0.95164  0.24113  1.0000
  H   H3883     1.0  0.64629  0.84010  0.05219  1.0000
  H   H3884     1.0  0.52398  0.99407  0.22829  1.0000
  H   H3885     1.0  0.66361  0.86034  0.00090  1.0000
  C   C2205     1.0  0.59692  0.93142  0.18901  1.0000
  H   H3886     1.0  0.60355  0.93801  0.15559  1.0000
  H   H3887     1.0  0.70335  0.69325  0.99413  1.0000
  C   C2206     1.0  0.64407  0.81209  0.04584  1.0000
  H   H3888     1.0  0.72972  0.61306  0.18942  1.0000
  C   C2207     1.0  0.72909  0.84331  0.23979  1.0000
  C   C2208     1.0  0.72816  0.98530  0.20703  1.0000
  H   H3889     1.0  0.55861  0.88193  0.16958  1.0000
  H   H3890     1.0  0.55425  0.87147  0.24505  1.0000
  C   C2209     1.0  0.65827  0.86900  0.01323  1.0000
  N   N118      1.0  0.66040  0.77753  0.15047  1.0000
  C   C2210     1.0  0.65122  0.79615  0.15451  1.0000
  C   C2211     1.0  0.66242  0.77615  0.12770  1.0000
  C   C2212     1.0  0.65695  0.75738  0.16410  1.0000
  C   C2213     1.0  0.67044  0.77871  0.15590  1.0000
  C   C2214     1.0  0.67220  0.80125  0.15430  1.0000
  C   C2215     1.0  0.64657  0.79700  0.17810  1.0000
  C   C2216     1.0  0.66456  0.73593  0.16023  1.0000
  C   C2217     1.0  0.66569  0.79572  0.11085  1.0000
  C   C2218     1.0  0.66590  0.79368  0.08874  1.0000
  C   C2219     1.0  0.68235  0.79925  0.16151  1.0000
  C   C2220     1.0  0.63985  0.81909  0.18066  1.0000
  C   C2221     1.0  0.66235  0.71769  0.17926  1.0000
  H   H3891     1.0  0.64449  0.79577  0.14794  1.0000
  H   H3892     1.0  0.65343  0.81165  0.14598  1.0000
  H   H3893     1.0  0.66894  0.76219  0.12425  1.0000
  H   H3894     1.0  0.65520  0.77328  0.12463  1.0000
  H   H3895     1.0  0.64904  0.75700  0.16221  1.0000
  H   H3896     1.0  0.65584  0.75721  0.18110  1.0000
  H   H3897     1.0  0.67083  0.76984  0.17238  1.0000
  H   H3898     1.0  0.67763  0.77034  0.14589  1.0000
  H   H3899     1.0  0.66564  0.81033  0.16465  1.0000
  H   H3900     1.0  0.67287  0.81092  0.13794  1.0000
  H   H3901     1.0  0.64133  0.78533  0.18552  1.0000
  H   H3902     1.0  0.65297  0.79283  0.18699  1.0000
  H   H3903     1.0  0.67304  0.73665  0.15736  1.0000
  H   H3904     1.0  0.66330  0.73204  0.14622  1.0000
  H   H3905     1.0  0.66008  0.81097  0.11334  1.0000
  H   H3906     1.0  0.67382  0.79669  0.11099  1.0000
  H   H3907     1.0  0.66797  0.80810  0.07700  1.0000
  H   H3908     1.0  0.67196  0.77942  0.08461  1.0000
  H   H3909     1.0  0.65797  0.79236  0.08773  1.0000
  H   H3910     1.0  0.68325  0.81529  0.16148  1.0000
  H   H3911     1.0  0.68209  0.78943  0.17781  1.0000
  H   H3912     1.0  0.68937  0.79185  0.15069  1.0000
  H   H3913     1.0  0.63669  0.81890  0.19770  1.0000
  H   H3914     1.0  0.64477  0.83133  0.17396  1.0000
  H   H3915     1.0  0.63308  0.82338  0.17266  1.0000
  H   H3916     1.0  0.66675  0.70215  0.17524  1.0000
  H   H3917     1.0  0.66491  0.71947  0.19288  1.0000
  H   H3918     1.0  0.65375  0.71745  0.18398  1.0000
  H   H3919     1.0  0.62784  0.89713  0.10794  1.0000
  N   N119      1.0  0.72638  0.90108  0.06478  1.0000
  S   S509      1.0  0.54583  0.92651  0.21345  1.0000
  H   H3920     1.0  0.72169  0.60843  0.21607  1.0000
  C   C2222     1.0  0.67189  0.66475  0.21878  1.0000
  C   C2223     1.0  0.70060  0.68939  0.20386  1.0000
  C   C2224     1.0  0.52653  0.93509  0.18318  1.0000
  C   C2225     1.0  0.65821  0.73870  0.00453  1.0000
  H   H3921     1.0  0.61701  0.76422  0.12225  1.0000
  H   H3922     1.0  0.63996  0.92647  0.16168  1.0000
  H   H3923     1.0  0.71920  0.89468  0.04251  1.0000
  H   H3924     1.0  0.64872  0.90091  0.15914  1.0000
  H   H3925     1.0  0.62008  0.93089  0.16224  1.0000
  H   H3926     1.0  0.64024  0.66010  0.11325  1.0000
  H   H3927     1.0  0.50105  0.90912  0.28167  1.0000
  H   H3928     1.0  0.57106  0.82061  0.22969  1.0000
  H   H3929     1.0  0.71593  0.68996  0.06247  1.0000
  H   H3930     1.0  0.70345  0.69563  0.03869  1.0000
  H   H3931     1.0  0.69960  0.84010  0.99565  1.0000
  H   H3932     1.0  0.72104  0.93422  0.11266  1.0000
  H   H3933     1.0  0.59142  0.96504  0.17464  1.0000
  C   C2226     1.0  0.64066  0.90887  0.16676  1.0000
  S   S510      1.0  0.69916  0.58441  0.31291  1.0000
  H   H3934     1.0  0.60726  0.89267  0.20148  1.0000
  Fe  Fe251     1.0  0.54470  0.95911  0.21842  1.0000
  H   H3935     1.0  0.73464  0.82228  0.02636  1.0000
  H   H3936     1.0  0.61555  0.70034  0.10506  1.0000
  H   H3937     1.0  0.53291  0.92055  0.18580  1.0000
  H   H3938     1.0  0.58482  0.74601  0.08597  1.0000
  H   H3939     1.0  0.54374  0.84672  0.21353  1.0000
  H   H3940     1.0  0.69410  0.74253  0.99647  1.0000
  H   H3941     1.0  0.72103  0.97835  0.21502  1.0000
  H   H3942     1.0  0.65715  0.67096  0.99711  1.0000
  C   C2227     1.0  0.55749  0.85404  0.24597  1.0000
  H   H3943     1.0  0.72094  0.90721  0.12801  1.0000
  H   H3944     1.0  0.55179  0.86034  0.17590  1.0000
  H   H3945     1.0  0.69296  0.71916  0.01633  1.0000
  C   C2228     1.0  0.67325  0.88791  0.00732  1.0000
  H   H3946     1.0  0.50190  0.92769  0.23824  1.0000
  H   H3947     1.0  0.65772  0.82619  0.03622  1.0000
  C   C2229     1.0  0.70684  0.91568  0.06024  1.0000
  H   H3948     1.0  0.62720  0.75943  0.99794  1.0000
  C   C2230     1.0  0.56480  0.81469  0.22652  1.0000
  C   C2231     1.0  0.53016  0.83937  0.25554  1.0000
  C   C2232     1.0  0.64438  0.88065  0.99266  1.0000
  H   H3949     1.0  0.53999  0.87087  0.22266  1.0000
  S   S511      1.0  0.72980  0.99226  0.30222  1.0000
  H   H3950     1.0  0.73429  0.52778  0.29789  1.0000
  C   C2233     1.0  0.49698  0.97027  0.25620  1.0000
  H   H3951     1.0  0.71630  0.54638  0.31837  1.0000
  H   H3952     1.0  0.63136  0.71516  0.03414  1.0000
  C   C2234     1.0  0.55240  0.87414  0.18137  1.0000
  C   C2235     1.0  0.70953  0.66223  0.14536  1.0000
  C   C2236     1.0  0.50234  0.97602  0.27050  1.0000
  H   H3953     1.0  0.72335  0.59053  0.19918  1.0000
  C   C2237     1.0  0.69148  0.65404  0.20170  1.0000
  H   H3954     1.0  0.69283  0.66852  0.15955  1.0000
  C   C2238     1.0  0.70012  0.65747  0.16417  1.0000
  H   H3955     1.0  0.54818  0.81480  0.23615  1.0000
  C   C2239     1.0  0.56055  0.84426  0.26775  1.0000
  H   H3956     1.0  0.67802  0.87936  0.99460  1.0000
  C   C2240     1.0  0.72346  0.87468  0.18094  1.0000
  C   C2241     1.0  0.69810  0.73105  0.00877  1.0000
  H   H3957     1.0  0.73477  0.81391  0.19665  1.0000
  C   C2242     1.0  0.73619  0.82368  0.00904  1.0000
  C   C2243     1.0  0.64894  0.83179  0.03889  1.0000
  H   H3958     1.0  0.63736  0.84608  0.01947  1.0000
  N   N120      1.0  0.57931  0.86994  0.07124  1.0000
  C   C2244     1.0  0.56986  0.88626  0.07968  1.0000
  C   C2245     1.0  0.57798  0.86566  0.05125  1.0000
  C   C2246     1.0  0.57963  0.84926  0.08779  1.0000
  C   C2247     1.0  0.58969  0.87661  0.06743  1.0000
  C   C2248     1.0  0.59082  0.89810  0.05172  1.0000
  C   C2249     1.0  0.57036  0.89297  0.09960  1.0000
  C   C2250     1.0  0.58845  0.82980  0.08177  1.0000
  C   C2251     1.0  0.57176  0.88443  0.03672  1.0000
  C   C2252     1.0  0.57301  0.87933  0.01535  1.0000
  C   C2253     1.0  0.60126  0.90385  0.05091  1.0000
  C   C2254     1.0  0.56023  0.90899  0.10685  1.0000
  C   C2255     1.0  0.58681  0.80908  0.09784  1.0000
  H   H3959     1.0  0.56243  0.88022  0.08322  1.0000
  H   H3960     1.0  0.56866  0.90142  0.06774  1.0000
  H   H3961     1.0  0.58589  0.85968  0.04147  1.0000
  H   H3962     1.0  0.57363  0.85251  0.05509  1.0000
  H   H3963     1.0  0.57178  0.84460  0.09215  1.0000
  H   H3964     1.0  0.58104  0.85123  0.10255  1.0000
  H   H3965     1.0  0.59131  0.87701  0.08259  1.0000
  H   H3966     1.0  0.59643  0.86446  0.06104  1.0000
  H   H3967     1.0  0.58420  0.91141  0.05623  1.0000
  H   H3968     1.0  0.59105  0.89677  0.03557  1.0000
  H   H3969     1.0  0.57119  0.87915  0.11310  1.0000
  H   H3970     1.0  0.57713  0.90091  0.09607  1.0000
  H   H3971     1.0  0.59636  0.83217  0.08167  1.0000
  H   H3972     1.0  0.58866  0.82741  0.06603  1.0000
  H   H3973     1.0  0.56313  0.88732  0.04427  1.0000
  H   H3974     1.0  0.57446  0.89951  0.03366  1.0000
  H   H3975     1.0  0.72933  0.81992  0.00558  1.0000
  H   H3976     1.0  0.56331  0.85528  0.20089  1.0000
  H   H3977     1.0  0.51334  0.97098  0.19473  1.0000
  H   H3978     1.0  0.60149  0.90553  0.06670  1.0000
  H   H3979     1.0  0.60818  0.89131  0.04567  1.0000
  H   H3980     1.0  0.60193  0.91931  0.03952  1.0000
  H   H3981     1.0  0.56087  0.91354  0.12104  1.0000
  H   H3982     1.0  0.55915  0.92373  0.09428  1.0000
  H   H3983     1.0  0.55315  0.90180  0.11108  1.0000
  H   H3984     1.0  0.57935  0.80500  0.09752  1.0000
  H   H3985     1.0  0.59361  0.79581  0.09383  1.0000
  H   H3986     1.0  0.58646  0.81060  0.11400  1.0000
  H   H3987     1.0  0.50561  0.99053  0.26238  1.0000
  H   H3988     1.0  0.56502  0.85312  0.23383  1.0000
  H   H3989     1.0  0.50909  0.97898  0.22840  1.0000
  H   H3990     1.0  0.73681  0.94166  0.99512  1.0000
  C   C2256     1.0  0.60559  0.75397  0.14989  1.0000
  H   H3991     1.0  0.60310  0.77036  0.15304  1.0000
  H   H3992     1.0  0.61138  0.74421  0.15976  1.0000
  C   C2257     1.0  0.69780  0.84058  0.01218  1.0000
  H   H3993     1.0  0.63521  0.73347  0.10051  1.0000
  C   C2258     1.0  0.52026  0.84400  0.27290  1.0000
  S   S512      1.0  0.67967  0.82640  0.01647  1.0000
  S   S513      1.0  0.72944  0.54120  0.23262  1.0000
  C   C2259     1.0  0.68842  0.83518  0.02549  1.0000
  H   H3994     1.0  0.62689  0.75812  0.09201  1.0000
  H   H3995     1.0  0.70569  0.61434  0.20162  1.0000
  Fe  Fe252     1.0  0.54907  0.94226  0.26204  1.0000
  H   H3996     1.0  0.72251  0.92869  0.02370  1.0000
  C   C2260     1.0  0.60179  0.92369  0.16800  1.0000
  N   N121      1.0  0.54965  0.84451  0.24113  1.0000
  N   N122      1.0  0.69872  0.74243  0.02470  1.0000
  C   C2261     1.0  0.68755  0.75138  0.03564  1.0000
  C   C2262     1.0  0.70456  0.72736  0.04117  1.0000
  C   C2263     1.0  0.70468  0.76004  0.01338  1.0000
  H   H3997     1.0  0.70479  0.70086  0.08168  1.0000
  C   C2264     1.0  0.72599  0.91784  0.11640  1.0000
  C   C2265     1.0  0.68042  0.76787  0.02122  1.0000
  C   C2266     1.0  0.70460  0.77562  0.02684  1.0000
  C   C2267     1.0  0.70138  0.70540  0.05074  1.0000
  C   C2268     1.0  0.70716  0.69247  0.06842  1.0000
  C   C2269     1.0  0.66982  0.77761  0.03428  1.0000
  C   C2270     1.0  0.71257  0.78987  0.01537  1.0000
  H   H3998     1.0  0.68771  0.75893  0.04831  1.0000
  H   H3999     1.0  0.68322  0.73830  0.04394  1.0000
  H   H4000     1.0  0.71333  0.72415  0.03482  1.0000
  H   H4001     1.0  0.70331  0.73493  0.05470  1.0000
  H   H4002     1.0  0.70161  0.76972  0.99912  1.0000
  H   H4003     1.0  0.71317  0.75301  0.00715  1.0000
  H   H4004     1.0  0.56426  0.82098  0.20977  1.0000
  N   N123      1.0  0.70104  0.65982  0.18514  1.0000
  H   H4005     1.0  0.68072  0.68594  0.19525  1.0000
  H   H4006     1.0  0.68430  0.78116  0.01151  1.0000
  H   H4007     1.0  0.67856  0.76011  0.01050  1.0000
  H   H4008     1.0  0.70676  0.76689  0.04212  1.0000
  H   H4009     1.0  0.69657  0.78616  0.03017  1.0000
  H   H4010     1.0  0.69270  0.70759  0.05736  1.0000
  C   C2271     1.0  0.63438  0.72638  0.99988  1.0000
  C   C2272     1.0  0.54316  0.98513  0.30343  1.0000
  H   H4011     1.0  0.64624  0.80327  0.03298  1.0000
  H   H4012     1.0  0.49895  0.92692  0.20225  1.0000
  H   H4013     1.0  0.67115  0.78659  0.04461  1.0000
  H   H4014     1.0  0.66487  0.78894  0.02345  1.0000
  H   H4015     1.0  0.66550  0.76495  0.04415  1.0000
  H   H4016     1.0  0.67812  0.66562  0.18570  1.0000
  H   H4017     1.0  0.48953  0.97559  0.19956  1.0000
  H   H4018     1.0  0.64451  0.77791  0.00308  1.0000
  C   C2273     1.0  0.54674  0.85685  0.22025  1.0000
  H   H4019     1.0  0.71043  0.79995  0.00040  1.0000
  H   H4020     1.0  0.62178  0.72494  0.13095  1.0000
  H   H4021     1.0  0.62306  0.90388  0.05631  1.0000
  C   C2274     1.0  0.61066  0.75507  0.12648  1.0000
  C   C2275     1.0  0.49185  0.97853  0.21293  1.0000
  H   H4022     1.0  0.72543  0.97272  0.27311  1.0000
  H   H4023     1.0  0.71823  0.65063  0.18178  1.0000
  H   H4024     1.0  0.56770  0.89204  0.00609  1.0000
  H   H4025     1.0  0.61473  0.89598  0.10626  1.0000
  H   H4026     1.0  0.64081  0.91340  0.01705  1.0000
  H   H4027     1.0  0.57630  0.78627  0.21879  1.0000
  H   H4028     1.0  0.50612  0.95651  0.18758  1.0000
  H   H4029     1.0  0.60637  0.84467  0.19948  1.0000
  C   C2276     1.0  0.51855  0.93715  0.20405  1.0000
  H   H4030     1.0  0.60920  0.72243  0.12954  1.0000
  S   S514      1.0  0.55994  0.94954  0.23020  1.0000
  S   S515      1.0  0.52205  0.90609  0.25493  1.0000
  C   C2277     1.0  0.61534  0.73223  0.12199  1.0000
  S   S516      1.0  0.68429  0.56147  0.28521  1.0000
  Fe  Fe253     1.0  0.69429  0.52994  0.27871  1.0000
  H   H4031     1.0  0.62456  0.70650  0.08073  1.0000
  H   H4032     1.0  0.60447  0.76439  0.11749  1.0000
  H   H4033     1.0  0.63584  0.66945  0.08879  1.0000
  H   H4034     1.0  0.61996  0.91961  0.09307  1.0000
  H   H4035     1.0  0.69565  0.69410  0.17450  1.0000
  C   C2278     1.0  0.55381  0.82099  0.24113  1.0000
  Fe  Fe254     1.0  0.69947  0.56753  0.28811  1.0000
  S   S517      1.0  0.55021  0.94588  0.29334  1.0000
  H   H4036     1.0  0.60312  0.93487  0.19488  1.0000
  C   C2279     1.0  0.63362  0.67029  0.10571  1.0000
  H   H4037     1.0  0.63931  0.69886  0.10033  1.0000
  H   H4038     1.0  0.61947  0.92699  0.12730  1.0000
  H   H4039     1.0  0.61946  0.72727  0.02355  1.0000
  H   H4040     1.0  0.63002  0.69312  0.12501  1.0000
  C   C2280     1.0  0.73454  0.88020  0.06702  1.0000
  H   H4041     1.0  0.64745  0.75368  0.04350  1.0000
  H   H4042     1.0  0.71470  0.88273  0.06883  1.0000
  N   N124      1.0  0.61958  0.73107  0.09909  1.0000
  C   C2281     1.0  0.62252  0.70789  0.09751  1.0000
  C   C2282     1.0  0.62916  0.74113  0.09069  1.0000
  C   C2283     1.0  0.63177  0.69337  0.10792  1.0000
  C   C2284     1.0  0.70824  0.65775  0.12531  1.0000
  H   H4043     1.0  0.60079  0.72002  0.09571  1.0000
  H   H4044     1.0  0.63740  0.72492  0.06423  1.0000
  S   S518      1.0  0.53387  0.95450  0.25046  1.0000
  H   H4045     1.0  0.52795  0.84760  0.24017  1.0000
  C   C2285     1.0  0.61136  0.74291  0.08606  1.0000
  C   C2286     1.0  0.63468  0.74133  0.06722  1.0000
  H   H4046     1.0  0.59642  0.74097  0.11023  1.0000
  Fe  Fe255     1.0  0.53617  0.92113  0.24655  1.0000
  H   H4047     1.0  0.62395  0.86845  0.19421  1.0000
  H   H4048     1.0  0.62685  0.70082  0.02042  1.0000
  S   S519      1.0  0.54140  0.98705  0.19168  1.0000
  C   C2287     1.0  0.64436  0.75149  0.06077  1.0000
  C   C2288     1.0  0.60022  0.73725  0.09447  1.0000
  H   H4049     1.0  0.51558  0.92214  0.21037  1.0000
  H   H4050     1.0  0.64215  0.76740  0.06489  1.0000
  H   H4051     1.0  0.70699  0.67934  0.21211  1.0000
  H   H4052     1.0  0.49366  0.95608  0.26546  1.0000
  H   H4053     1.0  0.61421  0.73983  0.06983  1.0000
  H   H4054     1.0  0.62919  0.75104  0.05675  1.0000
  H   H4055     1.0  0.69251  0.65305  0.21779  1.0000
  H   H4056     1.0  0.61865  0.83410  0.20819  1.0000
  C   C2289     1.0  0.70170  0.68263  0.18301  1.0000
  H   H4057     1.0  0.70044  0.66686  0.12147  1.0000
  H   H4058     1.0  0.73230  0.91856  0.12381  1.0000
  H   H4059     1.0  0.67162  0.64752  0.22385  1.0000
  H   H4060     1.0  0.61026  0.76050  0.08389  1.0000
  H   H4061     1.0  0.65078  0.74103  0.06868  1.0000
  H   H4062     1.0  0.51432  0.95688  0.30925  1.0000
  H   H4063     1.0  0.70875  0.93171  0.05325  1.0000
  H   H4064     1.0  0.69074  0.63773  0.20206  1.0000
  C   C2290     1.0  0.58816  0.95169  0.18625  1.0000
  H   H4065     1.0  0.62048  0.86060  0.17382  1.0000
  C   C2291     1.0  0.55202  0.97014  0.29581  1.0000
  C   C2292     1.0  0.56999  0.85218  0.26911  1.0000
  H   H4066     1.0  0.62123  0.88577  0.14578  1.0000
  H   H4067     1.0  0.70504  0.67655  0.07455  1.0000
  H   H4068     1.0  0.59599  0.74602  0.06373  1.0000
  C   C2293     1.0  0.49610  0.94060  0.23021  1.0000
  C   C2294     1.0  0.59280  0.75002  0.07955  1.0000
  H   H4069     1.0  0.69278  0.68794  0.21468  1.0000
  H   H4070     1.0  0.59186  0.76749  0.07778  1.0000
  H   H4071     1.0  0.71647  0.92194  0.08568  1.0000
  C   C2295     1.0  0.61729  0.86640  0.18867  1.0000
  C   C2296     1.0  0.61241  0.84879  0.20521  1.0000
  C   C2297     1.0  0.61960  0.90651  0.10743  1.0000
  H   H4072     1.0  0.63372  0.90653  0.14271  1.0000
  H   H4073     1.0  0.56948  0.78306  0.24613  1.0000
  C   C2298     1.0  0.50942  0.95709  0.20080  1.0000
  C   C2299     1.0  0.61379  0.89822  0.14753  1.0000
  H   H4074     1.0  0.67018  0.71038  0.99714  1.0000
  H   H4075     1.0  0.60739  0.89033  0.14780  1.0000
  H   H4076     1.0  0.63348  0.88458  0.16497  1.0000
  H   H4077     1.0  0.60862  0.85396  0.22038  1.0000
  H   H4078     1.0  0.63986  0.90396  0.18414  1.0000
  C   C2300     1.0  0.70894  0.72011  0.99649  1.0000
  H   H4079     1.0  0.62031  0.91270  0.18681  1.0000
  H   H4080     1.0  0.67536  0.73406  0.99260  1.0000
  C   C2301     1.0  0.63520  0.74927  0.99944  1.0000
  C   C2302     1.0  0.60888  0.88769  0.18627  1.0000
  C   C2303     1.0  0.63219  0.90221  0.16022  1.0000
  H   H4081     1.0  0.60137  0.88401  0.18571  1.0000
  H   H4082     1.0  0.65834  0.75324  0.00932  1.0000
  H   H4083     1.0  0.52293  0.93861  0.21512  1.0000
  H   H4084     1.0  0.55657  0.88078  0.20696  1.0000
  C   C2304     1.0  0.70143  0.71275  0.19950  1.0000
  H   H4085     1.0  0.59532  0.91896  0.16399  1.0000
  H   H4086     1.0  0.55378  0.84904  0.28060  1.0000
  H   H4087     1.0  0.71359  0.61902  0.17512  1.0000
  N   N125      1.0  0.61159  0.90564  0.16782  1.0000
  H   H4088     1.0  0.59313  0.91911  0.20126  1.0000
  C   C2305     1.0  0.62074  0.91358  0.16988  1.0000
  H   H4089     1.0  0.56285  0.82655  0.27069  1.0000
  H   H4090     1.0  0.65064  0.83902  0.00493  1.0000
  C   C2306     1.0  0.71094  0.64505  0.19170  1.0000
  H   H4091     1.0  0.52256  0.93366  0.17136  1.0000
  H   H4092     1.0  0.70274  0.91512  0.07706  1.0000
  H   H4093     1.0  0.51721  0.86151  0.27134  1.0000
  C   C2307     1.0  0.66132  0.89085  0.00895  1.0000
  H   H4094     1.0  0.56266  0.78340  0.22623  1.0000
  N   N126      1.0  0.50062  0.96034  0.21997  1.0000
  H   H4095     1.0  0.56808  0.86990  0.26672  1.0000
  H   H4096     1.0  0.57190  0.84521  0.28493  1.0000
  H   H4097     1.0  0.64701  0.80129  0.05977  1.0000
  C   C2308     1.0  0.64575  0.84662  0.01836  1.0000
  H   H4098     1.0  0.71726  0.65224  0.14871  1.0000
  H   H4099     1.0  0.71420  0.70979  0.00715  1.0000
  H   H4100     1.0  0.70785  0.89278  0.99336  1.0000
  H   H4101     1.0  0.71839  0.89418  0.09779  1.0000
  H   H4102     1.0  0.53678  0.86389  0.25977  1.0000
  H   H4103     1.0  0.49030  0.98381  0.25254  1.0000
  H   H4104     1.0  0.49640  0.97927  0.28503  1.0000
  C   C2309     1.0  0.72245  0.60757  0.19949  1.0000
  H   H4105     1.0  0.69896  0.64125  0.16536  1.0000
  H   H4106     1.0  0.63417  0.81499  0.00647  1.0000
  H   H4107     1.0  0.71682  0.87601  0.19434  1.0000
  H   H4108     1.0  0.62719  0.88023  0.00370  1.0000
  C   C2310     1.0  0.71255  0.62109  0.19137  1.0000
  H   H4109     1.0  0.71092  0.64549  0.20807  1.0000
  H   H4110     1.0  0.55412  0.81151  0.25743  1.0000
  C   C2311     1.0  0.62932  0.91268  0.04641  1.0000
  H   H4111     1.0  0.69491  0.72356  0.19193  1.0000
  H   H4112     1.0  0.72396  0.84958  0.22804  1.0000
  H   H4113     1.0  0.53027  0.94923  0.17689  1.0000
  H   H4114     1.0  0.67342  0.66979  0.23184  1.0000
  C   C2312     1.0  0.56849  0.79036  0.22968  1.0000
  C   C2313     1.0  0.66945  0.72476  0.00316  1.0000
  C   C2314     1.0  0.63939  0.87973  0.03174  1.0000
  H   H4115     1.0  0.63241  0.87206  0.03892  1.0000
  H   H4116     1.0  0.58135  0.87873  0.00624  1.0000
  C   C2315     1.0  0.69897  0.91289  0.04906  1.0000
  H   H4117     1.0  0.67131  0.71936  0.01910  1.0000
  C   C2316     1.0  0.73393  0.98568  0.22352  1.0000
  H   H4118     1.0  0.57094  0.86372  0.01732  1.0000
  C   C2317     1.0  0.73566  0.94110  0.27607  1.0000
  H   H4119     1.0  0.72420  0.83675  0.25522  1.0000
  S   S520      1.0  0.59667  0.84260  0.99202  1.0000
  H   H4120     1.0  0.73410  0.90783  0.01982  1.0000
  C   C2318     1.0  0.73246  0.51335  0.23575  1.0000
  H   H4121     1.0  0.64224  0.71516  0.99776  1.0000
  H   H4122     1.0  0.64461  0.89783  0.98887  1.0000
  H   H4123     1.0  0.72077  0.78006  0.01191  1.0000
  H   H4124     1.0  0.69681  0.89701  0.05593  1.0000
  H   H4125     1.0  0.49485  0.89769  0.32037  1.0000
  C   C2319     1.0  0.63365  0.87880  0.98940  1.0000
  C   C2320     1.0  0.72498  0.50299  0.23437  1.0000
  H   H4126     1.0  0.65945  0.90136  0.99397  1.0000
  C   C2321     1.0  0.52158  0.88144  0.31700  1.0000
  C   C2322     1.0  0.73122  0.96122  0.28131  1.0000
  H   H4127     1.0  0.73302  0.78784  0.17904  1.0000
  H   H4128     1.0  0.48899  0.94406  0.24302  1.0000
  H   H4129     1.0  0.52413  0.81704  0.99532  1.0000
  H   H4130     1.0  0.67532  0.90377  0.00366  1.0000
  C   C2323     1.0  0.63442  0.81808  0.98934  1.0000
  H   H4131     1.0  0.49454  0.89864  0.23431  1.0000
  C   C2324     1.0  0.50329  0.89522  0.31343  1.0000
  H   H4132     1.0  0.72928  0.49613  0.29462  1.0000
  C   C2325     1.0  0.73151  0.86359  0.14767  1.0000
  H   H4133     1.0  0.73102  0.86788  0.08000  1.0000
  C   C2326     1.0  0.73110  0.90908  0.09638  1.0000
  H   H4134     1.0  0.73685  0.77441  0.20378  1.0000
  H   H4135     1.0  0.73329  0.93705  0.26384  1.0000
  H   H4136     1.0  0.73367  0.95511  0.01656  1.0000
  H   H4137     1.0  0.55653  0.87073  0.31491  1.0000
  C   C2327     1.0  0.73083  0.92269  0.02583  1.0000
  H   H4138     1.0  0.73594  0.96899  0.23238  1.0000
  C   C2328     1.0  0.56227  0.97230  0.29487  1.0000
  S   S521      1.0  0.73321  0.89140  0.20137  1.0000
  H   H4139     1.0  0.72715  0.93463  0.05394  1.0000
  H   H4140     1.0  0.56913  0.96048  0.28947  1.0000
  C   C2329     1.0  0.56363  0.98890  0.30231  1.0000
  H   H4141     1.0  0.57155  0.99004  0.30221  1.0000
  C   C2330     1.0  0.73443  0.96654  0.29695  1.0000
  H   H4142     1.0  0.73313  0.86940  0.03974  1.0000
  C   C2331     1.0  0.52323  0.83457  0.98890  1.0000
  C   C2332     1.0  0.73713  0.93944  0.01188  1.0000
  C   C2333     1.0  0.48818  0.91119  0.22766  1.0000
  H   H4143     1.0  0.66817  0.51110  0.41832  1.0000
  H   H4144     1.0  0.67531  0.58560  0.33436  1.0000
  S   S522      1.0  0.50650  0.87773  0.35375  1.0000
  C   C2334     1.0  0.49133  0.91895  0.63978  1.0000
  H   H4145     1.0  0.50761  0.90686  0.62686  1.0000
  H   H4146     1.0  0.73283  0.91307  0.35927  1.0000
  C   C2335     1.0  0.53570  0.88532  0.60989  1.0000
  H   H4147     1.0  0.50475  0.93323  0.63255  1.0000
  H   H4148     1.0  0.49494  0.94374  0.40922  1.0000
  H   H4149     1.0  0.68102  0.51591  0.38414  1.0000
  H   H4150     1.0  0.53646  0.96504  0.38106  1.0000
  H   H4151     1.0  0.52238  0.91493  0.33520  1.0000
  H   H4152     1.0  0.53935  0.89603  0.32213  1.0000
  H   H4153     1.0  0.51845  0.96102  0.34114  1.0000
  H   H4154     1.0  0.53567  0.94953  0.63138  1.0000
  H   H4155     1.0  0.49252  0.98123  0.47006  1.0000
  C   C2336     1.0  0.52666  0.89980  0.37183  1.0000
  H   H4156     1.0  0.52761  0.97940  0.36324  1.0000
  H   H4157     1.0  0.73196  0.53903  0.33438  1.0000
  C   C2337     1.0  0.71911  0.53660  0.51272  1.0000
  H   H4158     1.0  0.72353  0.60375  0.34269  1.0000
  C   C2338     1.0  0.50550  0.96452  0.40592  1.0000
  N   N127      1.0  0.72694  0.51201  0.48530  1.0000
  H   H4159     1.0  0.70478  0.57808  0.40461  1.0000
  H   H4160     1.0  0.54225  0.87368  0.61677  1.0000
  C   C2339     1.0  0.49746  0.95846  0.40055  1.0000
  Fe  Fe256     1.0  0.48971  0.89505  0.36501  1.0000
  H   H4161     1.0  0.71225  0.50198  0.32554  1.0000
  H   H4162     1.0  0.70485  0.52670  0.39173  1.0000
  C   C2340     1.0  0.49895  0.98779  0.45774  1.0000
  C   C2341     1.0  0.69805  0.56079  0.39040  1.0000
  C   C2342     1.0  0.72183  0.59102  0.33792  1.0000
  H   H4163     1.0  0.67760  0.52243  0.32268  1.0000
  H   H4164     1.0  0.54174  0.87562  0.34537  1.0000
  C   C2343     1.0  0.50930  0.95170  0.32503  1.0000
  H   H4165     1.0  0.69252  0.51712  0.35137  1.0000
  C   C2344     1.0  0.53579  0.97011  0.36428  1.0000
  H   H4166     1.0  0.52367  0.94265  0.37388  1.0000
  C   C2345     1.0  0.67684  0.55358  0.35462  1.0000
  S   S523      1.0  0.51721  0.99291  0.40518  1.0000
  H   H4167     1.0  0.50925  0.95421  0.41852  1.0000
  H   H4168     1.0  0.50226  0.96475  0.32815  1.0000
  H   H4169     1.0  0.53519  0.92557  0.38180  1.0000
  C   C2346     1.0  0.70709  0.56301  0.39882  1.0000
  C   C2347     1.0  0.67929  0.50574  0.33054  1.0000
  H   H4170     1.0  0.67587  0.54340  0.40834  1.0000
  H   H4171     1.0  0.52603  0.88790  0.36370  1.0000
  H   H4172     1.0  0.51952  0.93457  0.63955  1.0000
  C   C2348     1.0  0.52984  0.90153  0.62373  1.0000
  C   C2349     1.0  0.51534  0.90612  0.38538  1.0000
  H   H4173     1.0  0.70579  0.53210  0.53961  1.0000
  H   H4174     1.0  0.68066  0.54610  0.34084  1.0000
  Fe  Fe257     1.0  0.73571  0.99447  0.32959  1.0000
  H   H4175     1.0  0.70870  0.54132  0.47759  1.0000
  N   N128      1.0  0.69282  0.53550  0.37305  1.0000
  C   C2350     1.0  0.71775  0.55874  0.32407  1.0000
  C   C2351     1.0  0.53842  0.95073  0.35441  1.0000
  H   H4176     1.0  0.52727  0.87321  0.32682  1.0000
  C   C2352     1.0  0.69820  0.52448  0.35483  1.0000
  H   H4177     1.0  0.71405  0.54973  0.50330  1.0000
  H   H4178     1.0  0.71460  0.57586  0.46493  1.0000
  H   H4179     1.0  0.51019  0.94313  0.35759  1.0000
  H   H4180     1.0  0.53694  0.95635  0.33826  1.0000
  C   C2353     1.0  0.52529  0.92747  0.33866  1.0000
  C   C2354     1.0  0.49541  0.99141  0.37420  1.0000
  Fe  Fe258     1.0  0.73268  0.51099  0.41135  1.0000
  H   H4181     1.0  0.68082  0.56436  0.37801  1.0000
  C   C2355     1.0  0.55575  0.88349  0.32327  1.0000
  H   H4182     1.0  0.53220  0.88074  0.65332  1.0000
  H   H4183     1.0  0.66586  0.58375  0.35955  1.0000
  N   N129      1.0  0.53137  0.91767  0.35611  1.0000
  H   H4184     1.0  0.50444  0.89210  0.41271  1.0000
  C   C2356     1.0  0.54413  0.89017  0.33444  1.0000
  C   C2357     1.0  0.68694  0.52019  0.39012  1.0000
  H   H4185     1.0  0.72081  0.56961  0.43932  1.0000
  C   C2358     1.0  0.51248  0.88713  0.40296  1.0000
  C   C2359     1.0  0.73699  0.56166  0.64327  1.0000
  H   H4186     1.0  0.65098  0.98704  0.47622  1.0000
  C   C2360     1.0  0.70835  0.50658  0.35775  1.0000
  H   H4187     1.0  0.67064  0.51109  0.36144  1.0000
  H   H4188     1.0  0.52719  0.96222  0.65251  1.0000
  H   H4189     1.0  0.70801  0.54431  0.36693  1.0000
  H   H4190     1.0  0.52365  0.91310  0.61592  1.0000
  H   H4191     1.0  0.53207  0.89094  0.38283  1.0000
  H   H4192     1.0  0.68995  0.56709  0.35345  1.0000
  C   C2361     1.0  0.51567  0.94645  0.34209  1.0000
  H   H4193     1.0  0.73197  0.52997  0.45374  1.0000
  H   H4194     1.0  0.54752  0.90113  0.35891  1.0000
  C   C2362     1.0  0.50315  0.91690  0.63848  1.0000
  C   C2363     1.0  0.68126  0.52743  0.41103  1.0000
  C   C2364     1.0  0.51068  0.88523  0.32622  1.0000
  H   H4195     1.0  0.56097  0.87724  0.33485  1.0000
  H   H4196     1.0  0.50205  0.97784  0.44569  1.0000
  H   H4197     1.0  0.54665  0.92029  0.33489  1.0000
  S   S524      1.0  0.73254  0.97331  0.36195  1.0000
  H   H4198     1.0  0.71441  0.56358  0.38610  1.0000
  H   H4199     1.0  0.53011  0.87653  0.60829  1.0000
  H   H4200     1.0  0.48940  0.92698  0.62412  1.0000
  H   H4201     1.0  0.70051  0.53635  0.34009  1.0000
  C   C2365     1.0  0.72662  0.55461  0.33309  1.0000
  C   C2366     1.0  0.68527  0.55585  0.36517  1.0000
  H   H4202     1.0  0.50557  0.98675  0.46517  1.0000
  H   H4203     1.0  0.51237  0.87378  0.39615  1.0000
  H   H4204     1.0  0.53566  0.91050  0.62395  1.0000
  H   H4205     1.0  0.69094  0.56029  0.40348  1.0000
  C   C2367     1.0  0.53177  0.93385  0.36761  1.0000
  C   C2368     1.0  0.67016  0.57546  0.34643  1.0000
  H   H4206     1.0  0.66421  0.57337  0.33889  1.0000
  H   H4207     1.0  0.68727  0.52782  0.41936  1.0000
  C   C2369     1.0  0.54271  0.90785  0.34654  1.0000
  H   H4208     1.0  0.70879  0.54942  0.41213  1.0000
  H   H4209     1.0  0.54706  0.94358  0.35327  1.0000
  C   C2370     1.0  0.70131  0.54080  0.38048  1.0000
  H   H4210     1.0  0.67076  0.51678  0.44083  1.0000
  H   H4211     1.0  0.51461  0.91926  0.39310  1.0000
  H   H4212     1.0  0.51826  0.88139  0.41342  1.0000
  H   H4213     1.0  0.69628  0.57560  0.37822  1.0000
  C   C2371     1.0  0.72882  0.57100  0.33944  1.0000
  H   H4214     1.0  0.67132  0.54398  0.36614  1.0000
  H   H4215     1.0  0.50935  0.91085  0.37546  1.0000
  H   H4216     1.0  0.53921  0.89381  0.59389  1.0000
  H   H4217     1.0  0.72921  0.54468  0.47324  1.0000
  S   S525      1.0  0.71636  0.50409  0.42570  1.0000
  C   C2372     1.0  0.67539  0.49935  0.35239  1.0000
  C   C2373     1.0  0.67454  0.51166  0.42566  1.0000
  C   C2374     1.0  0.71266  0.59472  0.33015  1.0000
  C   C2375     1.0  0.52516  0.89016  0.64653  1.0000
  H   H4218     1.0  0.48933  0.90291  0.64445  1.0000
  H   H4219     1.0  0.69243  0.50465  0.39447  1.0000
  H   H4220     1.0  0.71408  0.53536  0.45194  1.0000
  C   C2376     1.0  0.71427  0.56705  0.45343  1.0000
  H   H4221     1.0  0.54144  0.98071  0.35563  1.0000
  C   C2377     1.0  0.50836  0.98425  0.39575  1.0000
  H   H4222     1.0  0.73476  0.57391  0.62936  1.0000
  H   H4223     1.0  0.70655  0.57368  0.44845  1.0000
  C   C2378     1.0  0.71526  0.54319  0.46344  1.0000
  C   C2379     1.0  0.71071  0.57880  0.32276  1.0000
  H   H4224     1.0  0.71280  0.55168  0.53962  1.0000
  C   C2380     1.0  0.49216  0.97221  0.38508  1.0000
  H   H4225     1.0  0.52127  0.87787  0.64531  1.0000
  H   H4226     1.0  0.71531  0.51377  0.35512  1.0000
  C   C2381     1.0  0.72636  0.53269  0.46885  1.0000
  H   H4227     1.0  0.70723  0.61021  0.32922  1.0000
  C   C2382     1.0  0.53370  0.94840  0.64869  1.0000
  H   H4228     1.0  0.50646  0.93751  0.32504  1.0000
  H   H4229     1.0  0.54082  0.94935  0.65349  1.0000
  H   H4230     1.0  0.72684  0.54107  0.50977  1.0000
  S   S526      1.0  0.73378  0.54493  0.40684  1.0000
  C   C2383     1.0  0.71379  0.53585  0.53599  1.0000
  H   H4231     1.0  0.53067  0.93360  0.32362  1.0000
  C   C2384     1.0  0.72031  0.51490  0.50686  1.0000
  H   H4232     1.0  0.71431  0.50331  0.47724  1.0000
  H   H4233     1.0  0.71878  0.52358  0.54625  1.0000
  H   H4234     1.0  0.71203  0.51312  0.50873  1.0000
  H   H4235     1.0  0.72355  0.50187  0.51934  1.0000
  H   H4236     1.0  0.73047  0.55285  0.65073  1.0000
  C   C2385     1.0  0.72285  0.49685  0.47799  1.0000
  H   H4237     1.0  0.72711  0.49556  0.46151  1.0000
  H   H4238     1.0  0.70747  0.49613  0.37377  1.0000
  H   H4239     1.0  0.56544  0.99467  0.38462  1.0000
  H   H4240     1.0  0.67958  0.49529  0.42903  1.0000
  Fe  Fe259     1.0  0.61396  0.80732  0.93177  1.0000
  H   H4241     1.0  0.49349  0.98713  0.66859  1.0000
  S   S527      1.0  0.63108  0.80489  0.91470  1.0000
  Fe  Fe260     1.0  0.59065  0.82465  0.92865  1.0000
  H   H4242     1.0  0.52754  0.94705  0.80044  1.0000
  S   S528      1.0  0.58065  0.84829  0.90638  1.0000
  H   H4243     1.0  0.63782  0.59210  0.97317  1.0000
  H   H4244     1.0  0.56333  0.84595  0.74185  1.0000
  H   H4245     1.0  0.52938  0.92612  0.67770  1.0000
  S   S529      1.0  0.60271  0.83852  0.93485  1.0000
  S   S530      1.0  0.60241  0.79441  0.92265  1.0000
  Fe  Fe261     1.0  0.53981  0.85197  0.84426  1.0000
  S   S531      1.0  0.53064  0.87587  0.86377  1.0000
  S   S532      1.0  0.55285  0.82532  0.85651  1.0000
  Fe  Fe262     1.0  0.52710  0.87373  0.80977  1.0000
  S   S533      1.0  0.51721  0.90006  0.82638  1.0000
  S   S534      1.0  0.52563  0.87481  0.77687  1.0000
  Fe  Fe263     1.0  0.53252  0.90046  0.83358  1.0000
  S   S535      1.0  0.53763  0.92879  0.83642  1.0000
  Fe  Fe264     1.0  0.51615  0.87334  0.85509  1.0000
  S   S536      1.0  0.50171  0.87049  0.88145  1.0000
  S   S537      1.0  0.54270  0.87668  0.81432  1.0000
  S   S538      1.0  0.52505  0.84678  0.83812  1.0000
  C   C2386     1.0  0.50698  0.97884  0.68314  1.0000
  H   H4246     1.0  0.72139  0.87078  0.85149  1.0000
  H   H4247     1.0  0.72670  0.53638  0.74716  1.0000
  H   H4248     1.0  0.73153  0.96552  0.85442  1.0000
  C   C2387     1.0  0.49768  0.97544  0.67989  1.0000
  C   C2388     1.0  0.49826  0.96607  0.84963  1.0000
  C   C2389     1.0  0.66774  0.56011  0.73417  1.0000
  C   C2390     1.0  0.64155  0.76287  0.96077  1.0000
  H   H4249     1.0  0.63287  0.76904  0.96134  1.0000
  H   H4250     1.0  0.65076  0.87400  0.98009  1.0000
  C   C2391     1.0  0.51998  0.98552  0.84625  1.0000
  C   C2392     1.0  0.70428  0.90872  0.92524  1.0000
  Fe  Fe265     1.0  0.67140  0.84046  0.94672  1.0000
  S   S539      1.0  0.67205  0.81239  0.97393  1.0000
  S   S540      1.0  0.65510  0.85866  0.94210  1.0000
  Fe  Fe266     1.0  0.69517  0.83764  0.93661  1.0000
  S   S541      1.0  0.69785  0.80922  0.96338  1.0000
  S   S542      1.0  0.70954  0.84929  0.91438  1.0000
  Fe  Fe267     1.0  0.68652  0.79703  0.95300  1.0000
  S   S543      1.0  0.68937  0.76147  0.95626  1.0000
  C   C2393     1.0  0.72863  0.56786  0.73047  1.0000
  C   C2394     1.0  0.70365  0.67220  0.93821  1.0000
  S   S544      1.0  0.68497  0.82386  0.92454  1.0000
  S   S545      1.0  0.68138  0.85647  0.95656  1.0000
  H   H4251     1.0  0.73443  0.50378  0.81886  1.0000
  S   S546      1.0  0.67860  0.66763  0.92294  1.0000
  S   S547      1.0  0.71814  0.54432  0.69872  1.0000
  C   C2395     1.0  0.70272  0.88894  0.92458  1.0000
  H   H4252     1.0  0.55272  0.96051  0.72595  1.0000
  H   H4253     1.0  0.69520  0.88448  0.93245  1.0000
  H   H4254     1.0  0.72894  0.56857  0.77017  1.0000
  Fe  Fe268     1.0  0.68207  0.52898  0.81124  1.0000
  S   S548      1.0  0.66674  0.52402  0.83418  1.0000
  S   S549      1.0  0.68136  0.55256  0.78020  1.0000
  H   H4255     1.0  0.53872  0.95024  0.74745  1.0000
  H   H4256     1.0  0.56516  0.87961  0.74782  1.0000
  C   C2396     1.0  0.64198  0.75056  0.92801  1.0000
  C   C2397     1.0  0.60292  0.70639  0.97239  1.0000
  Fe  Fe269     1.0  0.67431  0.52768  0.85853  1.0000
  S   S550      1.0  0.66531  0.54616  0.88430  1.0000
  C   C2398     1.0  0.55834  0.88003  0.74139  1.0000
  S   S551      1.0  0.68897  0.53527  0.83505  1.0000
  C   C2399     1.0  0.49028  0.88308  0.81379  1.0000
  C   C2400     1.0  0.62155  0.69068  0.95969  1.0000
  S   S552      1.0  0.65583  0.67780  0.90902  1.0000
  S   S553      1.0  0.63144  0.66731  0.95626  1.0000
  H   H4257     1.0  0.70777  0.91076  0.96769  1.0000
  S   S554      1.0  0.67789  0.62949  0.89057  1.0000
  H   H4258     1.0  0.53082  0.85674  0.96373  1.0000
  C   C2401     1.0  0.56009  0.94786  0.72535  1.0000
  C   C2402     1.0  0.55613  0.85749  0.74794  1.0000
  H   H4259     1.0  0.49682  0.94220  0.82310  1.0000
  C   C2403     1.0  0.66929  0.56873  0.88621  1.0000
  C   C2404     1.0  0.66529  0.57662  0.90482  1.0000
  C   C2405     1.0  0.66805  0.59493  0.90656  1.0000
  C   C2406     1.0  0.67471  0.60569  0.88958  1.0000
  C   C2407     1.0  0.67880  0.59770  0.87107  1.0000
  C   C2408     1.0  0.67611  0.57931  0.86938  1.0000
  H   H4260     1.0  0.66009  0.56842  0.91798  1.0000
  H   H4261     1.0  0.66507  0.60070  0.92104  1.0000
  H   H4262     1.0  0.68396  0.60592  0.85787  1.0000
  H   H4263     1.0  0.67915  0.57353  0.85493  1.0000
  C   C2409     1.0  0.70819  0.54582  0.72189  1.0000
  C   C2410     1.0  0.70811  0.52912  0.73987  1.0000
  C   C2411     1.0  0.69994  0.53112  0.75805  1.0000
  C   C2412     1.0  0.69194  0.54976  0.75825  1.0000
  C   C2413     1.0  0.69208  0.56637  0.74029  1.0000
  C   C2414     1.0  0.70013  0.56437  0.72215  1.0000
  H   H4264     1.0  0.71428  0.51469  0.73968  1.0000
  H   H4265     1.0  0.69971  0.51834  0.77193  1.0000
  H   H4266     1.0  0.68589  0.58083  0.74037  1.0000
  H   H4267     1.0  0.70013  0.57731  0.70830  1.0000
  C   C2415     1.0  0.68239  0.75323  0.94252  1.0000
  C   C2416     1.0  0.68157  0.73180  0.94779  1.0000
  C   C2417     1.0  0.67685  0.72427  0.93598  1.0000
  C   C2418     1.0  0.67312  0.73806  0.91852  1.0000
  C   C2419     1.0  0.55094  0.97429  0.79263  1.0000
  C   C2420     1.0  0.67816  0.76733  0.92575  1.0000
  H   H4268     1.0  0.72471  0.63399  0.69930  1.0000
  H   H4269     1.0  0.64553  0.77572  0.94988  1.0000
  H   H4270     1.0  0.72973  0.90524  0.89661  1.0000
  C   C2421     1.0  0.64380  0.77979  0.98662  1.0000
  H   H4271     1.0  0.50041  0.98237  0.76079  1.0000
  H   H4272     1.0  0.63305  0.80239  0.96681  1.0000
  H   H4273     1.0  0.63840  0.57042  0.88533  1.0000
  C   C2422     1.0  0.71092  0.87493  0.91401  1.0000
  C   C2423     1.0  0.72056  0.88118  0.90339  1.0000
  H   H4274     1.0  0.72684  0.87053  0.89489  1.0000
  H   H4275     1.0  0.70676  0.69947  0.86358  1.0000
  H   H4276     1.0  0.55119  0.88713  0.90981  1.0000
  H   H4277     1.0  0.56559  0.91408  0.72855  1.0000
  H   H4278     1.0  0.71961  0.73166  0.90509  1.0000
  H   H4279     1.0  0.49071  0.87783  0.79935  1.0000
  C   C2424     1.0  0.49795  0.86615  0.82610  1.0000
  C   C2425     1.0  0.53804  0.87071  0.91908  1.0000
  C   C2426     1.0  0.64533  0.74414  0.94915  1.0000
  C   C2427     1.0  0.50893  0.94475  0.70800  1.0000
  C   C2428     1.0  0.49946  0.94163  0.70518  1.0000
  H   H4280     1.0  0.51340  0.93256  0.71855  1.0000
  S   S555      1.0  0.59440  0.74890  0.97049  1.0000
  C   C2429     1.0  0.72753  0.92034  0.82372  1.0000
  H   H4281     1.0  0.66800  0.53843  0.71578  1.0000
  H   H4282     1.0  0.52008  0.86763  0.72230  1.0000
  H   H4283     1.0  0.73151  0.56265  0.71527  1.0000
  H   H4284     1.0  0.55758  0.98157  0.79036  1.0000
  C   C2430     1.0  0.54023  0.94851  0.81351  1.0000
  C   C2431     1.0  0.53405  0.95466  0.79830  1.0000
  H   H4285     1.0  0.71339  0.66325  0.96182  1.0000
  H   H4286     1.0  0.50656  0.87457  0.69931  1.0000
  C   C2432     1.0  0.53179  0.83910  0.96890  1.0000
  C   C2433     1.0  0.54851  0.95869  0.81087  1.0000
  H   H4287     1.0  0.73201  0.97512  0.76509  1.0000
  H   H4288     1.0  0.71426  0.89129  0.83361  1.0000
  H   H4289     1.0  0.73660  0.62206  0.65854  1.0000
  H   H4290     1.0  0.55323  0.95412  0.82273  1.0000
  C   C2434     1.0  0.51445  0.86961  0.77173  1.0000
  C   C2435     1.0  0.51266  0.84882  0.77765  1.0000
  C   C2436     1.0  0.50529  0.84368  0.76953  1.0000
  C   C2437     1.0  0.49960  0.85928  0.75555  1.0000
  C   C2438     1.0  0.50102  0.88033  0.75044  1.0000
  C   C2439     1.0  0.50850  0.88542  0.75832  1.0000
  H   H4291     1.0  0.51737  0.83641  0.78758  1.0000
  H   H4292     1.0  0.50428  0.82735  0.77348  1.0000
  H   H4293     1.0  0.49686  0.89238  0.73938  1.0000
  H   H4294     1.0  0.51000  0.90142  0.75328  1.0000
  C   C2440     1.0  0.57351  0.84138  0.89173  1.0000
  C   C2441     1.0  0.56705  0.85786  0.87977  1.0000
  C   C2442     1.0  0.56075  0.85311  0.86882  1.0000
  C   C2443     1.0  0.56105  0.83181  0.86931  1.0000
  C   C2444     1.0  0.56781  0.81533  0.88064  1.0000
  C   C2445     1.0  0.57395  0.82008  0.89198  1.0000
  H   H4295     1.0  0.56675  0.87439  0.87933  1.0000
  H   H4296     1.0  0.55565  0.86595  0.86001  1.0000
  H   H4297     1.0  0.56813  0.79882  0.88097  1.0000
  H   H4298     1.0  0.57901  0.80729  0.90091  1.0000
  C   C2446     1.0  0.72842  0.88646  0.96695  1.0000
  C   C2447     1.0  0.61551  0.72937  0.95622  1.0000
  C   C2448     1.0  0.62377  0.71121  0.95310  1.0000
  C   C2449     1.0  0.72219  0.90085  0.90432  1.0000
  H   H4299     1.0  0.57524  0.94192  0.70278  1.0000
  H   H4300     1.0  0.69617  0.73282  0.90580  1.0000
  H   H4301     1.0  0.61721  0.74520  0.95118  1.0000
  H   H4302     1.0  0.63181  0.71301  0.94554  1.0000
  H   H4303     1.0  0.69797  0.91929  0.93384  1.0000
  H   H4304     1.0  0.60233  0.67411  0.92621  1.0000
  C   C2450     1.0  0.63771  0.81995  0.92225  1.0000
  C   C2451     1.0  0.63205  0.83788  0.93062  1.0000
  C   C2452     1.0  0.63746  0.84988  0.93644  1.0000
  C   C2453     1.0  0.64851  0.84363  0.93444  1.0000
  C   C2454     1.0  0.65417  0.82544  0.92648  1.0000
  C   C2455     1.0  0.64879  0.81383  0.92003  1.0000
  H   H4305     1.0  0.62352  0.84271  0.93242  1.0000
  H   H4306     1.0  0.63305  0.86386  0.94268  1.0000
  H   H4307     1.0  0.66270  0.82051  0.92494  1.0000
  H   H4308     1.0  0.65320  0.79993  0.91360  1.0000
  N   N130      1.0  0.51756  0.90415  0.66105  1.0000
  H   H4309     1.0  0.69386  0.67595  0.87152  1.0000
  N   N131      1.0  0.61312  0.83848  0.85899  1.0000
  C   C2456     1.0  0.60333  0.83411  0.85541  1.0000
  C   C2457     1.0  0.61910  0.81852  0.87161  1.0000
  C   C2458     1.0  0.60935  0.85551  0.87192  1.0000
  C   C2459     1.0  0.62038  0.84688  0.83862  1.0000
  C   C2460     1.0  0.62367  0.83387  0.82119  1.0000
  C   C2461     1.0  0.59592  0.85366  0.84417  1.0000
  C   C2462     1.0  0.61806  0.86046  0.87996  1.0000
  C   C2463     1.0  0.61906  0.79654  0.86777  1.0000
  C   C2464     1.0  0.62685  0.77828  0.87872  1.0000
  C   C2465     1.0  0.62988  0.84566  0.80074  1.0000
  C   C2466     1.0  0.58831  0.84661  0.83555  1.0000
  C   C2467     1.0  0.61361  0.87974  0.89035  1.0000
  H   H4310     1.0  0.59836  0.82754  0.87087  1.0000
  H   H4311     1.0  0.60548  0.82138  0.84636  1.0000
  H   H4312     1.0  0.62753  0.81951  0.86954  1.0000
  H   H4313     1.0  0.61566  0.81738  0.88876  1.0000
  H   H4314     1.0  0.60310  0.85091  0.88608  1.0000
  H   H4315     1.0  0.60545  0.87093  0.86277  1.0000
  H   H4316     1.0  0.61683  0.86370  0.83170  1.0000
  H   H4317     1.0  0.62798  0.84775  0.84169  1.0000
  H   H4318     1.0  0.61668  0.83112  0.81738  1.0000
  H   H4319     1.0  0.62904  0.81835  0.82610  1.0000
  H   H4320     1.0  0.59104  0.86375  0.85558  1.0000
  H   H4321     1.0  0.60048  0.86370  0.83071  1.0000
  H   H4322     1.0  0.62489  0.86420  0.86700  1.0000
  H   H4323     1.0  0.62112  0.84660  0.89186  1.0000
  H   H4324     1.0  0.61099  0.79297  0.87433  1.0000
  H   H4325     1.0  0.62119  0.79619  0.85086  1.0000
  H   H4326     1.0  0.63508  0.78111  0.87314  1.0000
  H   H4327     1.0  0.62446  0.77669  0.89610  1.0000
  H   H4328     1.0  0.62685  0.76292  0.87524  1.0000
  H   H4329     1.0  0.63236  0.83582  0.78863  1.0000
  H   H4330     1.0  0.62484  0.86124  0.79456  1.0000
  H   H4331     1.0  0.63716  0.84852  0.80343  1.0000
  H   H4332     1.0  0.59277  0.83866  0.82226  1.0000
  H   H4333     1.0  0.58402  0.83528  0.84804  1.0000
  H   H4334     1.0  0.58233  0.86077  0.82977  1.0000
  H   H4335     1.0  0.61976  0.88185  0.89737  1.0000
  H   H4336     1.0  0.61141  0.89454  0.87848  1.0000
  H   H4337     1.0  0.60647  0.87738  0.90310  1.0000
  H   H4338     1.0  0.68471  0.72084  0.96086  1.0000
  S   S556      1.0  0.66129  0.63845  0.94965  1.0000
  H   H4339     1.0  0.50995  0.99303  0.67428  1.0000
  H   H4340     1.0  0.67061  0.77046  0.90029  1.0000
  H   H4341     1.0  0.49663  0.92720  0.71362  1.0000
  H   H4342     1.0  0.71939  0.95627  0.79409  1.0000
  C   C2468     1.0  0.63380  0.79795  0.98349  1.0000
  H   H4343     1.0  0.52208  0.97521  0.83478  1.0000
  H   H4344     1.0  0.71959  0.70406  0.87555  1.0000
  C   C2469     1.0  0.61109  0.68842  0.96921  1.0000
  H   H4345     1.0  0.64614  0.76301  0.91702  1.0000
  H   H4346     1.0  0.67411  0.50709  0.70570  1.0000
  H   H4347     1.0  0.63324  0.75669  0.93011  1.0000
  H   H4348     1.0  0.69588  0.72135  0.87019  1.0000
  C   C2470     1.0  0.73140  0.64204  0.69048  1.0000
  H   H4349     1.0  0.62708  0.62255  0.95245  1.0000
  H   H4350     1.0  0.63646  0.89471  0.95612  1.0000
  H   H4351     1.0  0.70834  0.65970  0.92938  1.0000
  C   C2471     1.0  0.69174  0.51354  0.67309  1.0000
  H   H4352     1.0  0.71700  0.66442  0.88873  1.0000
  H   H4353     1.0  0.56006  0.77059  0.95246  1.0000
  H   H4354     1.0  0.49541  0.90882  0.84969  1.0000
  H   H4355     1.0  0.52952  0.85250  0.70403  1.0000
  C   C2472     1.0  0.71412  0.91445  0.91565  1.0000
  C   C2473     1.0  0.70485  0.72674  0.89997  1.0000
  H   H4356     1.0  0.69971  0.76836  0.90607  1.0000
  C   C2474     1.0  0.67816  0.52143  0.73899  1.0000
  H   H4357     1.0  0.71640  0.99355  0.86569  1.0000
  H   H4358     1.0  0.72387  0.66247  0.90908  1.0000
  H   H4359     1.0  0.66763  0.56028  0.75063  1.0000
  H   H4360     1.0  0.73408  0.89294  0.84725  1.0000
  C   C2475     1.0  0.71086  0.73734  0.90958  1.0000
  H   H4361     1.0  0.54943  0.85698  0.74148  1.0000
  Fe  Fe270     1.0  0.64875  0.66877  0.94369  1.0000
  H   H4362     1.0  0.51327  0.93664  0.66554  1.0000
  H   H4363     1.0  0.71689  0.56221  0.76964  1.0000
  C   C2476     1.0  0.67365  0.75967  0.91358  1.0000
  S   S557      1.0  0.49164  0.85150  0.74325  1.0000
  H   H4364     1.0  0.52981  0.87273  0.92887  1.0000
  H   H4365     1.0  0.63459  0.86292  0.98594  1.0000
  H   H4366     1.0  0.69719  0.52407  0.66290  1.0000
  H   H4367     1.0  0.53965  0.83258  0.97314  1.0000
  S   S558      1.0  0.67933  0.65242  0.98138  1.0000
  H   H4368     1.0  0.49219  0.98026  0.84436  1.0000
  C   C2477     1.0  0.70568  0.56901  0.83059  1.0000
  H   H4369     1.0  0.56920  0.96974  0.70246  1.0000
  H   H4370     1.0  0.72785  0.87789  0.82408  1.0000
  C   C2478     1.0  0.72275  0.94839  0.84388  1.0000
  H   H4371     1.0  0.64422  0.73643  0.92074  1.0000
  C   C2479     1.0  0.52091  0.85823  0.71048  1.0000
  H   H4372     1.0  0.55188  0.93738  0.76683  1.0000
  C   C2480     1.0  0.70816  0.89387  0.97649  1.0000
  H   H4373     1.0  0.72216  0.93706  0.85955  1.0000
  N   N132      1.0  0.50289  0.97001  0.86582  1.0000
  H   H4374     1.0  0.49078  0.93753  0.77785  1.0000
  H   H4375     1.0  0.69095  0.69977  0.85155  1.0000
  H   H4376     1.0  0.53756  0.87268  0.90248  1.0000
  H   H4377     1.0  0.49590  0.85025  0.82989  1.0000
  H   H4378     1.0  0.66081  0.53269  0.74273  1.0000
  H   H4379     1.0  0.53135  0.97613  0.76891  1.0000
  H   H4380     1.0  0.70758  0.98380  0.85651  1.0000
  H   H4381     1.0  0.48928  0.96167  0.89028  1.0000
  H   H4382     1.0  0.69942  0.67510  0.97095  1.0000
  H   H4383     1.0  0.67692  0.52005  0.75627  1.0000
  H   H4384     1.0  0.67472  0.56612  0.72333  1.0000
  H   H4385     1.0  0.62749  0.83109  0.98573  1.0000
  H   H4386     1.0  0.68302  0.69793  0.87799  1.0000
  N   N133      1.0  0.72642  0.53788  0.78968  1.0000
  C   C2481     1.0  0.55174  0.92060  0.76746  1.0000
  C   C2482     1.0  0.66817  0.53754  0.73231  1.0000
  H   H4387     1.0  0.73405  0.60269  0.68203  1.0000
  S   S559      1.0  0.66795  0.72823  0.90277  1.0000
  H   H4388     1.0  0.62852  0.91209  0.97385  1.0000
  C   C2483     1.0  0.69883  0.70372  0.87396  1.0000
  H   H4389     1.0  0.50661  0.95171  0.80076  1.0000
  H   H4390     1.0  0.64404  0.61470  0.96325  1.0000
  H   H4391     1.0  0.50620  0.86496  0.81647  1.0000
  H   H4392     1.0  0.50709  0.92282  0.86845  1.0000
  N   N134      1.0  0.53961  0.82971  0.93169  1.0000
  C   C2484     1.0  0.54493  0.84834  0.92659  1.0000
  C   C2485     1.0  0.54795  0.80907  0.93388  1.0000
  C   C2486     1.0  0.53503  0.83128  0.91303  1.0000
  C   C2487     1.0  0.53068  0.82965  0.95118  1.0000
  H   H4393     1.0  0.71909  0.99240  0.77125  1.0000
  H   H4394     1.0  0.70330  0.64807  0.96735  1.0000
  C   C2488     1.0  0.53056  0.81189  0.91364  1.0000
  C   C2489     1.0  0.55490  0.80518  0.95009  1.0000
  C   C2490     1.0  0.56360  0.78477  0.94899  1.0000
  C   C2491     1.0  0.63016  0.89582  0.97075  1.0000
  C   C2492     1.0  0.64174  0.60213  0.95861  1.0000
  C   C2493     1.0  0.52452  0.81685  0.89608  1.0000
  H   H4395     1.0  0.55219  0.84607  0.91390  1.0000
  H   H4396     1.0  0.54792  0.84897  0.94011  1.0000
  H   H4397     1.0  0.54421  0.79499  0.93849  1.0000
  H   H4398     1.0  0.55347  0.80801  0.91828  1.0000
  H   H4399     1.0  0.54115  0.83362  0.89808  1.0000
  H   H4400     1.0  0.52840  0.84563  0.91132  1.0000
  H   H4401     1.0  0.70508  0.55495  0.80571  1.0000
  H   H4402     1.0  0.52943  0.81307  0.95830  1.0000
  H   H4403     1.0  0.54316  0.88821  0.93609  1.0000
  H   H4404     1.0  0.50064  0.91547  0.67196  1.0000
  H   H4405     1.0  0.71348  0.52858  0.78318  1.0000
  H   H4406     1.0  0.51811  0.94728  0.86157  1.0000
  H   H4407     1.0  0.52504  0.80750  0.92896  1.0000
  H   H4408     1.0  0.53717  0.79783  0.91114  1.0000
  H   H4409     1.0  0.55898  0.81846  0.94715  1.0000
  H   H4410     1.0  0.54995  0.80290  0.96634  1.0000
  H   H4411     1.0  0.56902  0.78609  0.93313  1.0000
  H   H4412     1.0  0.65559  0.72899  0.97902  1.0000
  C   C2494     1.0  0.72329  0.96712  0.79775  1.0000
  H   H4413     1.0  0.72131  0.53603  0.82344  1.0000
  H   H4414     1.0  0.71314  0.73243  0.98534  1.0000
  H   H4415     1.0  0.52706  0.89107  0.68483  1.0000
  N   N135      1.0  0.64379  0.75854  0.98253  1.0000
  H   H4416     1.0  0.62279  0.89326  0.96820  1.0000
  H   H4417     1.0  0.60931  0.67265  0.97433  1.0000
  H   H4418     1.0  0.51761  0.83053  0.89790  1.0000
  H   H4419     1.0  0.52989  0.82077  0.88041  1.0000
  H   H4420     1.0  0.52152  0.80268  0.89665  1.0000
  C   C2495     1.0  0.48936  0.90884  0.86405  1.0000
  C   C2496     1.0  0.51085  0.95057  0.87396  1.0000
  H   H4421     1.0  0.71082  0.57820  0.79712  1.0000
  C   C2497     1.0  0.68953  0.51567  0.69594  1.0000
  H   H4422     1.0  0.65087  0.78598  0.97614  1.0000
  C   C2498     1.0  0.50620  0.96110  0.82924  1.0000
  C   C2499     1.0  0.50709  0.92907  0.88211  1.0000
  H   H4423     1.0  0.60182  0.69171  0.90068  1.0000
  S   S560      1.0  0.52555  0.96514  0.69793  1.0000
  C   C2500     1.0  0.50066  0.95594  0.81487  1.0000
  C   C2501     1.0  0.51461  0.91235  0.89495  1.0000
  C   C2502     1.0  0.71046  0.56299  0.80910  1.0000
  C   C2503     1.0  0.70509  0.66428  0.96095  1.0000
  H   H4424     1.0  0.51946  0.95770  0.76658  1.0000
  H   H4425     1.0  0.51515  0.84144  0.98555  1.0000
  H   H4426     1.0  0.72551  0.98145  0.83278  1.0000
  H   H4427     1.0  0.68601  0.53278  0.69630  1.0000
  H   H4428     1.0  0.52481  0.97755  0.85841  1.0000
  H   H4429     1.0  0.49899  0.93046  0.89230  1.0000
  H   H4430     1.0  0.66084  0.75227  0.97079  1.0000
  H   H4431     1.0  0.51278  0.94727  0.83283  1.0000
  H   H4432     1.0  0.71615  0.51598  0.80795  1.0000
  H   H4433     1.0  0.71998  0.57516  0.73195  1.0000
  C   C2504     1.0  0.72633  0.90103  0.84277  1.0000
  H   H4434     1.0  0.71509  0.69886  0.97455  1.0000
  C   C2505     1.0  0.68185  0.50127  0.71073  1.0000
  H   H4435     1.0  0.51732  0.84409  0.71858  1.0000
  H   H4436     1.0  0.53811  0.90440  0.91323  1.0000
  C   C2506     1.0  0.54484  0.98040  0.77731  1.0000
  H   H4437     1.0  0.49772  0.87054  0.84094  1.0000
  H   H4438     1.0  0.69758  0.57931  0.83062  1.0000
  H   H4439     1.0  0.52299  0.91092  0.88587  1.0000
  H   H4440     1.0  0.51397  0.91689  0.90996  1.0000
  H   H4441     1.0  0.51244  0.89655  0.89877  1.0000
  C   C2507     1.0  0.56756  0.95387  0.70405  1.0000
  H   H4442     1.0  0.67868  0.78396  0.92170  1.0000
  C   C2508     1.0  0.51277  0.96329  0.69687  1.0000
  N   N136      1.0  0.63275  0.63587  0.90635  1.0000
  C   C2509     1.0  0.63939  0.62579  0.92283  1.0000
  C   C2510     1.0  0.63898  0.64840  0.88680  1.0000
  C   C2511     1.0  0.62325  0.65156  0.91563  1.0000
  C   C2512     1.0  0.62869  0.61954  0.90082  1.0000
  C   C2513     1.0  0.63721  0.60069  0.89294  1.0000
  C   C2514     1.0  0.63402  0.61240  0.94382  1.0000
  C   C2515     1.0  0.61572  0.66538  0.90074  1.0000
  C   C2516     1.0  0.65115  0.63952  0.88058  1.0000
  C   C2517     1.0  0.65607  0.65195  0.85907  1.0000
  C   C2518     1.0  0.63207  0.58349  0.89137  1.0000
  H   H4443     1.0  0.56845  0.78221  0.96081  1.0000
  C   C2519     1.0  0.60719  0.68204  0.91145  1.0000
  H   H4444     1.0  0.64205  0.63841  0.92677  1.0000
  H   H4445     1.0  0.64683  0.61500  0.91667  1.0000
  H   H4446     1.0  0.63556  0.65054  0.87288  1.0000
  H   H4447     1.0  0.63828  0.66490  0.88874  1.0000
  H   H4448     1.0  0.62603  0.66282  0.92133  1.0000
  H   H4449     1.0  0.61813  0.64322  0.92964  1.0000
  H   H4450     1.0  0.62278  0.61285  0.91450  1.0000
  H   H4451     1.0  0.62420  0.62730  0.88809  1.0000
  H   H4452     1.0  0.64278  0.59276  0.90362  1.0000
  H   H4453     1.0  0.64176  0.60647  0.87687  1.0000
  C   C2520     1.0  0.71832  0.87934  0.96686  1.0000
  H   H4454     1.0  0.63139  0.59928  0.94088  1.0000
  H   H4455     1.0  0.61157  0.65522  0.89671  1.0000
  H   H4456     1.0  0.62010  0.67415  0.88590  1.0000
  H   H4457     1.0  0.65507  0.64119  0.89235  1.0000
  H   H4458     1.0  0.65315  0.62243  0.87996  1.0000
  H   H4459     1.0  0.66481  0.64541  0.85536  1.0000
  H   H4460     1.0  0.65265  0.65034  0.84651  1.0000
  H   H4461     1.0  0.72931  0.65313  0.67586  1.0000
  H   H4462     1.0  0.62763  0.57648  0.90715  1.0000
  H   H4463     1.0  0.62658  0.59026  0.88032  1.0000
  C   C2521     1.0  0.69121  0.69368  0.86850  1.0000
  H   H4464     1.0  0.55404  0.85242  0.76543  1.0000
  H   H4465     1.0  0.70644  0.73345  0.88265  1.0000
  Fe  Fe271     1.0  0.66900  0.64894  0.91552  1.0000
  S   S561      1.0  0.71621  0.93803  0.91924  1.0000
  H   H4466     1.0  0.54446  0.88967  0.76531  1.0000
  C   C2522     1.0  0.49765  0.98344  0.74637  1.0000
  H   H4467     1.0  0.56911  0.90774  0.76012  1.0000
  C   C2523     1.0  0.70841  0.76169  0.90197  1.0000
  H   H4468     1.0  0.71129  0.76629  0.88461  1.0000
  C   C2524     1.0  0.73048  0.54856  0.74868  1.0000
  C   C2525     1.0  0.69932  0.69567  0.89761  1.0000
  H   H4469     1.0  0.69121  0.70132  0.90690  1.0000
  C   C2526     1.0  0.71864  0.69538  0.89238  1.0000
  N   N137      1.0  0.70746  0.70251  0.90452  1.0000
  S   S562      1.0  0.61014  0.79226  0.96617  1.0000
  H   H4470     1.0  0.70843  0.73382  0.92708  1.0000
  Fe  Fe272     1.0  0.59759  0.78198  0.95753  1.0000
  H   H4471     1.0  0.71790  0.88004  0.95057  1.0000
  Fe  Fe273     1.0  0.59794  0.82271  0.96882  1.0000
  C   C2527     1.0  0.72262  0.67110  0.89308  1.0000
  H   H4472     1.0  0.50949  0.97535  0.82012  1.0000
  H   H4473     1.0  0.54270  0.89712  0.73888  1.0000
  C   C2528     1.0  0.72019  0.52133  0.79139  1.0000
  H   H4474     1.0  0.56079  0.88403  0.72388  1.0000
  H   H4475     1.0  0.64216  0.73001  0.95855  1.0000
  H   H4476     1.0  0.52295  0.83893  0.94696  1.0000
  H   H4477     1.0  0.56549  0.92816  0.78805  1.0000
  H   H4478     1.0  0.70048  0.67801  0.90114  1.0000
  H   H4479     1.0  0.72448  0.69990  0.89834  1.0000
  N   N138      1.0  0.73123  0.93823  0.82735  1.0000
  C   C2529     1.0  0.54821  0.89661  0.74883  1.0000
  H   H4480     1.0  0.52697  0.91503  0.75278  1.0000
  H   H4481     1.0  0.71242  0.76893  0.90975  1.0000
  H   H4482     1.0  0.59489  0.70436  0.97990  1.0000
  H   H4483     1.0  0.73369  0.86434  0.93591  1.0000
  H   H4484     1.0  0.65412  0.73935  0.94565  1.0000
  H   H4485     1.0  0.72058  0.90617  0.85673  1.0000
  H   H4486     1.0  0.56399  0.94797  0.73786  1.0000
  C   C2530     1.0  0.51866  0.89365  0.68349  1.0000
  H   H4487     1.0  0.49327  0.89809  0.80879  1.0000
  C   C2531     1.0  0.50792  0.98939  0.85698  1.0000
  Fe  Fe274     1.0  0.73292  0.51824  0.70036  1.0000
  H   H4488     1.0  0.68421  0.51835  0.66736  1.0000
  H   H4489     1.0  0.55771  0.90956  0.80610  1.0000
  H   H4490     1.0  0.68525  0.52873  0.73187  1.0000
  H   H4491     1.0  0.54519  0.91680  0.78119  1.0000
  H   H4492     1.0  0.57176  0.90046  0.79638  1.0000
  H   H4493     1.0  0.61093  0.69302  0.91537  1.0000
  S   S563      1.0  0.58479  0.81136  0.96320  1.0000
  H   H4494     1.0  0.49388  0.95294  0.85676  1.0000
  H   H4495     1.0  0.56380  0.95491  0.69093  1.0000
  C   C2532     1.0  0.52866  0.92717  0.75905  1.0000
  H   H4496     1.0  0.56138  0.88907  0.77829  1.0000
  H   H4497     1.0  0.52942  0.92024  0.77563  1.0000
  H   H4498     1.0  0.51165  0.93907  0.76777  1.0000
  C   C2533     1.0  0.49389  0.97450  0.88445  1.0000
  H   H4499     1.0  0.53695  0.91393  0.65599  1.0000
  Fe  Fe275     1.0  0.66492  0.69548  0.91923  1.0000
  H   H4500     1.0  0.49567  0.96807  0.74723  1.0000
  H   H4501     1.0  0.71960  0.92652  0.81946  1.0000
  Fe  Fe276     1.0  0.66975  0.65985  0.95650  1.0000
  H   H4502     1.0  0.51366  0.95372  0.88666  1.0000
  H   H4503     1.0  0.71352  0.96755  0.87841  1.0000
  H   H4504     1.0  0.72706  0.55842  0.80914  1.0000
  C   C2534     1.0  0.54295  0.88867  0.91964  1.0000
  C   C2535     1.0  0.65476  0.74447  0.98314  1.0000
  C   C2536     1.0  0.49395  0.95672  0.69068  1.0000
  H   H4505     1.0  0.71068  0.57799  0.83391  1.0000
  H   H4506     1.0  0.50407  0.89031  0.66471  1.0000
  C   C2537     1.0  0.60506  0.72692  0.96594  1.0000
  C   C2538     1.0  0.53622  0.97100  0.78043  1.0000
  C   C2539     1.0  0.70670  0.69428  0.92806  1.0000
  H   H4507     1.0  0.70045  0.70545  0.93690  1.0000
  H   H4508     1.0  0.66038  0.57110  0.72984  1.0000
  H   H4509     1.0  0.73292  0.58008  0.73014  1.0000
  S   S564      1.0  0.65663  0.68909  0.95328  1.0000
  N   N139      1.0  0.54939  0.91897  0.74743  1.0000
  H   H4510     1.0  0.51794  0.95299  0.74259  1.0000
  H   H4511     1.0  0.70499  0.55447  0.84339  1.0000
  C   C2540     1.0  0.72177  0.54842  0.80842  1.0000
  C   C2541     1.0  0.53891  0.93442  0.74473  1.0000
  C   C2542     1.0  0.56438  0.91145  0.79212  1.0000
  C   C2543     1.0  0.51886  0.94544  0.75897  1.0000
  H   H4512     1.0  0.71475  0.95186  0.84021  1.0000
  Fe  Fe277     1.0  0.68319  0.82686  0.98206  1.0000
  H   H4513     1.0  0.49456  0.97014  0.80957  1.0000
  C   C2544     1.0  0.72444  0.96911  0.84757  1.0000
  C   C2545     1.0  0.56214  0.90602  0.77342  1.0000
  H   H4514     1.0  0.53797  0.93763  0.72818  1.0000
  H   H4515     1.0  0.51389  0.90440  0.69439  1.0000
  C   C2546     1.0  0.51531  0.87176  0.69273  1.0000
  C   C2547     1.0  0.72544  0.55523  0.77004  1.0000
  H   H4516     1.0  0.71424  0.69394  0.93224  1.0000
  H   H4517     1.0  0.65472  0.66914  0.85926  1.0000
  H   H4518     1.0  0.67636  0.70763  0.94010  1.0000
  C   C2548     1.0  0.55780  0.92549  0.72832  1.0000
  C   C2549     1.0  0.49050  0.89192  0.88163  1.0000
  H   H4519     1.0  0.55554  0.92494  0.71380  1.0000
  N   N140      1.0  0.68030  0.49965  0.73409  1.0000
  H   H4520     1.0  0.69511  0.67373  0.93874  1.0000
  H   H4521     1.0  0.50421  0.98625  0.73239  1.0000
  C   C2550     1.0  0.72652  0.50060  0.78342  1.0000
  H   H4522     1.0  0.73082  0.58242  0.66497  1.0000
  H   H4523     1.0  0.49716  0.97471  0.89787  1.0000
  C   C2551     1.0  0.51975  0.92628  0.65613  1.0000
  H   H4524     1.0  0.73252  0.65160  0.70052  1.0000
  H   H4525     1.0  0.73047  0.50436  0.76655  1.0000
  H   H4526     1.0  0.69729  0.51145  0.70061  1.0000
  C   C2552     1.0  0.71487  0.97903  0.86300  1.0000
  H   H4527     1.0  0.51717  0.86217  0.68059  1.0000
  H   H4528     1.0  0.64901  0.59179  0.95094  1.0000
  H   H4529     1.0  0.70226  0.71607  0.97216  1.0000
  H   H4530     1.0  0.73257  0.67425  0.86121  1.0000
  C   C2553     1.0  0.72633  0.98334  0.77734  1.0000
  C   C2554     1.0  0.72221  0.88428  0.83754  1.0000
  C   C2555     1.0  0.53037  0.92731  0.66053  1.0000
  H   H4531     1.0  0.72821  0.90275  0.95646  1.0000
  H   H4532     1.0  0.71735  0.97619  0.80901  1.0000
  H   H4533     1.0  0.71823  0.86278  0.97591  1.0000
  H   H4534     1.0  0.69562  0.49676  0.67169  1.0000
  H   H4535     1.0  0.70109  0.88877  0.97556  1.0000
  H   H4536     1.0  0.73397  0.84148  0.96970  1.0000
  C   C2556     1.0  0.73335  0.66653  0.87772  1.0000
  Fe  Fe278     1.0  0.69551  0.49987  0.84152  1.0000
  C   C2557     1.0  0.70728  0.70623  0.98354  1.0000
  H   H4537     1.0  0.72737  0.88886  0.98306  1.0000
  H   H4538     1.0  0.66376  0.49862  0.73897  1.0000
  C   C2558     1.0  0.50614  0.90629  0.66016  1.0000
  H   H4539     1.0  0.63033  0.72698  0.98737  1.0000
  H   H4540     1.0  0.64185  0.82350  0.98011  1.0000
  Fe  Fe279     1.0  0.73266  0.94484  0.90807  1.0000
  H   H4541     1.0  0.73614  0.64898  0.87889  1.0000
  C   C2559     1.0  0.73326  0.95423  0.80671  1.0000
  H   H4542     1.0  0.73295  0.91413  0.80992  1.0000
  S   S565      1.0  0.73460  0.97867  0.89403  1.0000
  H   H4543     1.0  0.73002  0.99496  0.78032  1.0000
  H   H4544     1.0  0.68937  0.49498  0.77044  1.0000
  H   H4545     1.0  0.81588  0.08065  0.23479  1.0000
  H   H4546     1.0  0.74923  0.00726  0.25520  1.0000
  C   C2560     1.0  0.89165  0.40067  0.11138  1.0000
  H   H4547     1.0  0.81700  0.28679  0.01829  1.0000
  C   C2561     1.0  0.93288  0.27409  0.00269  1.0000
  H   H4548     1.0  0.73809  0.99820  0.25518  1.0000
  Fe  Fe280     1.0  0.80967  0.05446  0.18904  1.0000
  S   S566      1.0  0.80364  0.04994  0.22424  1.0000
  S   S567      1.0  0.81207  0.08674  0.16792  1.0000
  Fe  Fe281     1.0  0.81403  0.01680  0.22549  1.0000
  Fe  Fe282     1.0  0.79145  0.03509  0.22004  1.0000
  S   S568      1.0  0.77388  0.04084  0.23417  1.0000
  S   S569      1.0  0.82107  0.02247  0.19057  1.0000
  S   S570      1.0  0.79651  0.04211  0.18477  1.0000
  Fe  Fe283     1.0  0.85085  0.16374  0.12539  1.0000
  S   S571      1.0  0.83440  0.18278  0.12353  1.0000
  S   S572      1.0  0.85301  0.12762  0.13764  1.0000
  Fe  Fe284     1.0  0.86032  0.20420  0.11147  1.0000
  S   S573      1.0  0.84435  0.22540  0.10847  1.0000
  S   S574      1.0  0.87330  0.22348  0.10185  1.0000
  Fe  Fe285     1.0  0.83811  0.20456  0.13902  1.0000
  S   S575      1.0  0.82591  0.21434  0.16689  1.0000
  Fe  Fe286     1.0  0.84220  0.20154  0.09305  1.0000
  S   S576      1.0  0.83347  0.21370  0.06626  1.0000
  S   S577      1.0  0.85416  0.18453  0.14319  1.0000
  S   S578      1.0  0.85869  0.18137  0.09356  1.0000
  Fe  Fe287     1.0  0.81718  0.34710  0.10353  1.0000
  S   S579      1.0  0.80619  0.34304  0.13551  1.0000
  S   S580      1.0  0.81580  0.33197  0.07875  1.0000
  Fe  Fe288     1.0  0.83108  0.36819  0.11602  1.0000
  S   S581      1.0  0.82154  0.36577  0.14899  1.0000
  S   S582      1.0  0.84462  0.38519  0.10527  1.0000
  Fe  Fe289     1.0  0.82119  0.33290  0.14760  1.0000
  S   S583      1.0  0.82241  0.30754  0.17700  1.0000
  Fe  Fe290     1.0  0.80736  0.37627  0.13440  1.0000
  S   S584      1.0  0.79419  0.40126  0.14771  1.0000
  S   S585      1.0  0.83224  0.33404  0.11583  1.0000
  S   S586      1.0  0.81688  0.38153  0.10116  1.0000
  H   H4549     1.0  0.74792  0.03666  0.30082  1.0000
  S   S587      1.0  0.76879  0.43188  0.25310  1.0000
  H   H4550     1.0  0.89527  0.41388  0.11120  1.0000
  H   H4551     1.0  0.83879  0.23945  0.02587  1.0000
  C   C2562     1.0  0.80036  0.01349  0.28973  1.0000
  H   H4552     1.0  0.79031  0.32837  0.05628  1.0000
  Fe  Fe291     1.0  0.76837  0.43431  0.28580  1.0000
  H   H4553     1.0  0.98029  0.30500  0.20733  1.0000
  Fe  Fe292     1.0  0.77395  0.39655  0.26490  1.0000
  S   S588      1.0  0.78743  0.37517  0.24698  1.0000
  H   H4554     1.0  0.95775  0.47699  0.20031  1.0000
  H   H4555     1.0  0.97966  0.41583  0.32111  1.0000
  Fe  Fe293     1.0  0.90945  0.31862  0.11350  1.0000
  S   S589      1.0  0.91642  0.28921  0.13555  1.0000
  S   S590      1.0  0.91558  0.32559  0.07800  1.0000
  Fe  Fe294     1.0  0.89283  0.33553  0.14916  1.0000
  S   S591      1.0  0.89834  0.30720  0.17360  1.0000
  S   S592      1.0  0.87960  0.36291  0.15823  1.0000
  Fe  Fe295     1.0  0.91495  0.31175  0.15663  1.0000
  S   S593      1.0  0.92698  0.30920  0.17663  1.0000
  Fe  Fe296     1.0  0.89919  0.28782  0.15028  1.0000
  S   S594      1.0  0.89197  0.25817  0.16052  1.0000
  S   S595      1.0  0.90926  0.34116  0.13321  1.0000
  S   S596      1.0  0.89242  0.31611  0.12724  1.0000
  H   H4556     1.0  0.85456  0.11046  0.09773  1.0000
  H   H4557     1.0  0.92997  0.29127  0.99580  1.0000
  Fe  Fe297     1.0  0.96312  0.37731  0.20772  1.0000
  S   S597      1.0  0.95743  0.40998  0.21562  1.0000
  S   S598      1.0  0.95398  0.37122  0.18608  1.0000
  Fe  Fe298     1.0  0.89666  0.29933  0.98986  1.0000
  S   S599      1.0  0.97655  0.39782  0.24153  1.0000
  Fe  Fe299     1.0  0.95993  0.39308  0.24803  1.0000
  S   S600      1.0  0.94842  0.40069  0.27757  1.0000
  H   H4558     1.0  0.81044  0.18854  0.16253  1.0000
  S   S601      1.0  0.96456  0.36033  0.24104  1.0000
  S   S602      1.0  0.80848  0.38734  0.98963  1.0000
  C   C2563     1.0  0.94568  0.45442  0.29776  1.0000
  C   C2564     1.0  0.94460  0.43419  0.29704  1.0000
  C   C2565     1.0  0.94912  0.42632  0.27856  1.0000
  C   C2566     1.0  0.95453  0.43879  0.26082  1.0000
  H   H4559     1.0  0.95761  0.30572  0.11733  1.0000
  H   H4560     1.0  0.97692  0.30334  0.17302  1.0000
  H   H4561     1.0  0.84859  0.29429  0.99137  1.0000
  H   H4562     1.0  0.95801  0.43300  0.24647  1.0000
  H   H4563     1.0  0.84853  0.21289  0.99502  1.0000
  C   C2567     1.0  0.89759  0.29543  0.06147  1.0000
  H   H4564     1.0  0.85690  0.37246  0.01852  1.0000
  H   H4565     1.0  0.86214  0.28747  0.99315  1.0000
  H   H4566     1.0  0.82849  0.42151  0.17431  1.0000
  H   H4567     1.0  0.85722  0.12913  0.07271  1.0000
  C   C2568     1.0  0.93351  0.32773  0.18024  1.0000
  C   C2569     1.0  0.93915  0.32144  0.19656  1.0000
  C   C2570     1.0  0.94507  0.33481  0.19920  1.0000
  C   C2571     1.0  0.94554  0.35472  0.18539  1.0000
  C   C2572     1.0  0.93976  0.36118  0.16929  1.0000
  C   C2573     1.0  0.93374  0.34790  0.16678  1.0000
  H   H4568     1.0  0.93911  0.30585  0.20702  1.0000
  H   H4569     1.0  0.94960  0.32928  0.21138  1.0000
  H   H4570     1.0  0.94008  0.37644  0.15836  1.0000
  H   H4571     1.0  0.92953  0.35302  0.15407  1.0000
  C   C2574     1.0  0.91243  0.32095  0.04109  1.0000
  C   C2575     1.0  0.90994  0.31529  0.06324  1.0000
  C   C2576     1.0  0.90253  0.30244  0.07335  1.0000
  H   H4572     1.0  0.91830  0.33056  0.03317  1.0000
  H   H4573     1.0  0.90054  0.29799  0.09035  1.0000
  H   H4574     1.0  0.93494  0.17408  0.08729  1.0000
  C   C2577     1.0  0.86425  0.41402  0.03872  1.0000
  H   H4575     1.0  0.82153  0.43577  0.14171  1.0000
  H   H4576     1.0  0.80462  0.40616  0.21715  1.0000
  H   H4577     1.0  0.83231  0.09020  0.11249  1.0000
  H   H4578     1.0  0.94864  0.17632  0.07724  1.0000
  C   C2578     1.0  0.85289  0.37845  0.12322  1.0000
  C   C2579     1.0  0.85611  0.39477  0.12752  1.0000
  C   C2580     1.0  0.86381  0.38973  0.13958  1.0000
  C   C2581     1.0  0.86881  0.36840  0.14619  1.0000
  C   C2582     1.0  0.86538  0.35198  0.14245  1.0000
  C   C2583     1.0  0.85719  0.35702  0.13143  1.0000
  H   H4579     1.0  0.85274  0.41135  0.12131  1.0000
  H   H4580     1.0  0.86624  0.40244  0.14292  1.0000
  H   H4581     1.0  0.86916  0.33546  0.14772  1.0000
  H   H4582     1.0  0.85467  0.34442  0.12815  1.0000
  C   C2584     1.0  0.79230  0.39396  0.17524  1.0000
  C   C2585     1.0  0.78775  0.40964  0.18716  1.0000
  C   C2586     1.0  0.78605  0.40395  0.20926  1.0000
  C   C2587     1.0  0.78909  0.38258  0.21943  1.0000
  C   C2588     1.0  0.79397  0.36699  0.20742  1.0000
  C   C2589     1.0  0.79553  0.37264  0.18536  1.0000
  H   H4583     1.0  0.78571  0.42618  0.17915  1.0000
  H   H4584     1.0  0.78267  0.41614  0.21836  1.0000
  H   H4585     1.0  0.79645  0.35045  0.21518  1.0000
  H   H4586     1.0  0.79912  0.36041  0.17625  1.0000
  C   C2590     1.0  0.80918  0.37248  0.01530  1.0000
  C   C2591     1.0  0.80907  0.38262  0.03103  1.0000
  C   C2592     1.0  0.81048  0.37046  0.05110  1.0000
  C   C2593     1.0  0.81239  0.34810  0.05514  1.0000
  C   C2594     1.0  0.81215  0.33813  0.03959  1.0000
  C   C2595     1.0  0.81035  0.35029  0.01992  1.0000
  H   H4587     1.0  0.80801  0.39986  0.02759  1.0000
  H   H4588     1.0  0.81046  0.37834  0.06312  1.0000
  H   H4589     1.0  0.81349  0.32095  0.04245  1.0000
  H   H4590     1.0  0.81001  0.34242  0.00824  1.0000
  C   C2596     1.0  0.87765  0.23386  0.11888  1.0000
  C   C2597     1.0  0.87766  0.22336  0.13991  1.0000
  C   C2598     1.0  0.88219  0.23088  0.15227  1.0000
  C   C2599     1.0  0.88648  0.24930  0.14403  1.0000
  C   C2600     1.0  0.88623  0.26014  0.12316  1.0000
  C   C2601     1.0  0.88196  0.25228  0.11061  1.0000
  H   H4591     1.0  0.87453  0.20898  0.14641  1.0000
  H   H4592     1.0  0.88255  0.22213  0.16819  1.0000
  H   H4593     1.0  0.88946  0.27436  0.11658  1.0000
  H   H4594     1.0  0.88201  0.26047  0.09436  1.0000
  C   C2602     1.0  0.82495  0.24048  0.16904  1.0000
  C   C2603     1.0  0.81979  0.24638  0.18827  1.0000
  C   C2604     1.0  0.81894  0.26711  0.19048  1.0000
  C   C2605     1.0  0.82315  0.28208  0.17344  1.0000
  C   C2606     1.0  0.82813  0.27640  0.15403  1.0000
  C   C2607     1.0  0.82911  0.25551  0.15189  1.0000
  H   H4595     1.0  0.81644  0.23490  0.20147  1.0000
  H   H4596     1.0  0.81480  0.27168  0.20529  1.0000
  H   H4597     1.0  0.83139  0.28794  0.14079  1.0000
  H   H4598     1.0  0.83298  0.25118  0.13696  1.0000
  C   C2608     1.0  0.82991  0.20450  0.03193  1.0000
  C   C2609     1.0  0.83578  0.19773  0.04781  1.0000
  C   C2610     1.0  0.84353  0.17869  0.04842  1.0000
  H   H4599     1.0  0.73834  0.37147  0.31444  1.0000
  H   H4600     1.0  0.82383  0.21914  0.03143  1.0000
  H   H4601     1.0  0.84809  0.17333  0.06058  1.0000
  C   C2611     1.0  0.94073  0.18028  0.07310  1.0000
  C   C2612     1.0  0.82387  0.09668  0.15868  1.0000
  C   C2613     1.0  0.83359  0.08503  0.16389  1.0000
  C   C2614     1.0  0.84255  0.09449  0.15706  1.0000
  C   C2615     1.0  0.84188  0.11550  0.14484  1.0000
  C   C2616     1.0  0.83227  0.12664  0.13898  1.0000
  C   C2617     1.0  0.82330  0.11745  0.14612  1.0000
  H   H4602     1.0  0.83415  0.06893  0.17344  1.0000
  H   H4603     1.0  0.84998  0.08559  0.16149  1.0000
  H   H4604     1.0  0.83169  0.14241  0.12899  1.0000
  H   H4605     1.0  0.81583  0.12654  0.14198  1.0000
  C   C2618     1.0  0.76177  0.04568  0.30316  1.0000
  C   C2619     1.0  0.77169  0.05045  0.29227  1.0000
  C   C2620     1.0  0.77562  0.04889  0.27100  1.0000
  C   C2621     1.0  0.76943  0.04325  0.26057  1.0000
  C   C2622     1.0  0.75939  0.03926  0.27133  1.0000
  C   C2623     1.0  0.75562  0.04019  0.29261  1.0000
  H   H4606     1.0  0.77640  0.05493  0.30036  1.0000
  H   H4607     1.0  0.78333  0.05224  0.26262  1.0000
  H   H4608     1.0  0.75460  0.03504  0.26325  1.0000
  H   H4609     1.0  0.77669  0.99853  0.27143  1.0000
  H   H4610     1.0  0.83460  0.28225  0.99412  1.0000
  C   C2624     1.0  0.95550  0.45894  0.26149  1.0000
  C   C2625     1.0  0.86401  0.19271  0.99115  1.0000
  N   N141      1.0  0.84658  0.35118  0.03851  1.0000
  C   C2626     1.0  0.84263  0.34181  0.02492  1.0000
  C   C2627     1.0  0.84641  0.33613  0.05988  1.0000
  C   C2628     1.0  0.83878  0.37189  0.04175  1.0000
  C   C2629     1.0  0.85750  0.35602  0.02872  1.0000
  H   H4611     1.0  0.86507  0.26135  0.05396  1.0000
  H   H4612     1.0  0.95989  0.46821  0.24782  1.0000
  C   C2630     1.0  0.84052  0.38287  0.05757  1.0000
  C   C2631     1.0  0.85319  0.31310  0.06016  1.0000
  C   C2632     1.0  0.85169  0.29921  0.08247  1.0000
  H   H4613     1.0  0.75775  0.01507  0.18231  1.0000
  H   H4614     1.0  0.93194  0.44398  0.25134  1.0000
  C   C2633     1.0  0.83407  0.40594  0.05550  1.0000
  H   H4615     1.0  0.83520  0.33618  0.03401  1.0000
  H   H4616     1.0  0.74278  0.45702  0.14543  1.0000
  H   H4617     1.0  0.84927  0.34258  0.07036  1.0000
  H   H4618     1.0  0.83804  0.33484  0.06784  1.0000
  H   H4619     1.0  0.83054  0.36920  0.04733  1.0000
  H   H4620     1.0  0.83890  0.38393  0.02655  1.0000
  H   H4621     1.0  0.84834  0.32732  0.02056  1.0000
  H   H4622     1.0  0.86131  0.35629  0.04132  1.0000
  H   H4623     1.0  0.93038  0.41089  0.17427  1.0000
  H   H4624     1.0  0.85842  0.41972  0.05240  1.0000
  H   H4625     1.0  0.97390  0.36199  0.14493  1.0000
  H   H4626     1.0  0.83093  0.05557  0.10705  1.0000
  H   H4627     1.0  0.84900  0.38322  0.05518  1.0000
  H   H4628     1.0  0.83787  0.37398  0.07386  1.0000
  H   H4629     1.0  0.85092  0.30515  0.05018  1.0000
  H   H4630     1.0  0.86178  0.31334  0.05487  1.0000
  H   H4631     1.0  0.84320  0.29833  0.08899  1.0000
  H   H4632     1.0  0.85655  0.28273  0.08233  1.0000
  H   H4633     1.0  0.85437  0.30593  0.09285  1.0000
  H   H4634     1.0  0.80678  0.17106  0.10351  1.0000
  C   C2634     1.0  0.80646  0.17318  0.08677  1.0000
  H   H4635     1.0  0.81368  0.42254  0.21392  1.0000
  H   H4636     1.0  0.81778  0.40407  0.24912  1.0000
  H   H4637     1.0  0.95924  0.28487  0.14081  1.0000
  N   N142      1.0  0.75224  0.45125  0.18109  1.0000
  H   H4638     1.0  0.82549  0.40647  0.05724  1.0000
  H   H4639     1.0  0.83484  0.41290  0.06803  1.0000
  H   H4640     1.0  0.83703  0.41588  0.03990  1.0000
  N   N143      1.0  0.85678  0.27232  0.19581  1.0000
  C   C2635     1.0  0.85985  0.27384  0.17230  1.0000
  C   C2636     1.0  0.86437  0.25352  0.20598  1.0000
  C   C2637     1.0  0.84542  0.26963  0.20369  1.0000
  C   C2638     1.0  0.85752  0.29232  0.20122  1.0000
  C   C2639     1.0  0.86831  0.29938  0.19195  1.0000
  C   C2640     1.0  0.85383  0.29382  0.15878  1.0000
  C   C2641     1.0  0.84125  0.26564  0.22802  1.0000
  C   C2642     1.0  0.86332  0.23105  0.20534  1.0000
  C   C2643     1.0  0.87165  0.21344  0.21542  1.0000
  C   C2644     1.0  0.86780  0.32022  0.19798  1.0000
  C   C2645     1.0  0.85828  0.29435  0.13533  1.0000
  C   C2646     1.0  0.82986  0.26231  0.23426  1.0000
  H   H4641     1.0  0.85850  0.25974  0.16841  1.0000
  H   H4642     1.0  0.86853  0.27317  0.16636  1.0000
  H   H4643     1.0  0.87276  0.25467  0.19816  1.0000
  H   H4644     1.0  0.86360  0.25384  0.22273  1.0000
  H   H4645     1.0  0.84420  0.25658  0.19782  1.0000
  H   H4646     1.0  0.83993  0.28424  0.19700  1.0000
  H   H4647     1.0  0.85104  0.30601  0.19649  1.0000
  H   H4648     1.0  0.85618  0.29014  0.21861  1.0000
  H   H4649     1.0  0.87043  0.30220  0.17449  1.0000
  H   H4650     1.0  0.87485  0.28703  0.19815  1.0000
  H   H4651     1.0  0.84528  0.29354  0.16213  1.0000
  H   H4652     1.0  0.85451  0.30893  0.16168  1.0000
  H   H4653     1.0  0.84116  0.27960  0.23406  1.0000
  H   H4654     1.0  0.84624  0.25127  0.23626  1.0000
  H   H4655     1.0  0.85538  0.22789  0.21406  1.0000
  H   H4656     1.0  0.86447  0.22949  0.18891  1.0000
  H   H4657     1.0  0.87044  0.21356  0.23234  1.0000
  H   H4658     1.0  0.87094  0.19758  0.21428  1.0000
  H   H4659     1.0  0.87983  0.21567  0.20713  1.0000
  H   H4660     1.0  0.86582  0.31828  0.21540  1.0000
  H   H4661     1.0  0.87566  0.32472  0.19180  1.0000
  H   H4662     1.0  0.86177  0.33344  0.19104  1.0000
  H   H4663     1.0  0.85760  0.27975  0.13128  1.0000
  H   H4664     1.0  0.85363  0.30857  0.12624  1.0000
  H   H4665     1.0  0.86677  0.29559  0.13086  1.0000
  H   H4666     1.0  0.82440  0.27699  0.22761  1.0000
  H   H4667     1.0  0.82938  0.24857  0.22848  1.0000
  H   H4668     1.0  0.82717  0.25893  0.25172  1.0000
  N   N144      1.0  0.82117  0.39010  0.20984  1.0000
  C   C2647     1.0  0.82023  0.39458  0.18719  1.0000
  C   C2648     1.0  0.81953  0.36780  0.22114  1.0000
  C   C2649     1.0  0.83167  0.39307  0.21154  1.0000
  C   C2650     1.0  0.84190  0.37967  0.19991  1.0000
  C   C2651     1.0  0.82108  0.41739  0.17388  1.0000
  C   C2652     1.0  0.82371  0.34998  0.20823  1.0000
  C   C2653     1.0  0.89998  0.30124  0.03940  1.0000
  C   C2654     1.0  0.85185  0.38658  0.20015  1.0000
  C   C2655     1.0  0.82124  0.41916  0.15074  1.0000
  H   H4669     1.0  0.81245  0.39186  0.18666  1.0000
  H   H4670     1.0  0.82634  0.38321  0.17853  1.0000
  H   H4671     1.0  0.82299  0.36225  0.23547  1.0000
  H   H4672     1.0  0.81086  0.36795  0.22713  1.0000
  H   H4673     1.0  0.83226  0.38892  0.22836  1.0000
  H   H4674     1.0  0.84188  0.38138  0.18312  1.0000
  H   H4675     1.0  0.84280  0.36255  0.20804  1.0000
  H   H4676     1.0  0.81840  0.35228  0.19733  1.0000
  C   C2656     1.0  0.82372  0.32784  0.22278  1.0000
  H   H4677     1.0  0.89579  0.38557  0.12046  1.0000
  C   C2657     1.0  0.81068  0.40231  0.24482  1.0000
  H   H4678     1.0  0.85168  0.40342  0.19137  1.0000
  C   C2658     1.0  0.87684  0.34353  0.01205  1.0000
  H   H4679     1.0  0.95468  0.38453  0.12286  1.0000
  H   H4680     1.0  0.82838  0.40816  0.14359  1.0000
  H   H4681     1.0  0.81394  0.41528  0.14929  1.0000
  N   N145      1.0  0.80493  0.27740  0.09790  1.0000
  C   C2659     1.0  0.80616  0.28222  0.11760  1.0000
  C   C2660     1.0  0.81509  0.27775  0.08094  1.0000
  C   C2661     1.0  0.79618  0.29486  0.08959  1.0000
  C   C2662     1.0  0.80178  0.25624  0.10237  1.0000
  C   C2663     1.0  0.80941  0.23638  0.11244  1.0000
  C   C2664     1.0  0.79419  0.29380  0.06828  1.0000
  C   C2665     1.0  0.82574  0.27234  0.08812  1.0000
  C   C2666     1.0  0.83517  0.27112  0.06925  1.0000
  C   C2667     1.0  0.80511  0.21622  0.11682  1.0000
  H   H4682     1.0  0.80871  0.29773  0.11356  1.0000
  H   H4683     1.0  0.81262  0.27013  0.12431  1.0000
  H   H4684     1.0  0.81585  0.26698  0.07033  1.0000
  H   H4685     1.0  0.81487  0.29387  0.07048  1.0000
  H   H4686     1.0  0.79791  0.31085  0.08768  1.0000
  H   H4687     1.0  0.79361  0.25682  0.11239  1.0000
  H   H4688     1.0  0.80128  0.25288  0.08746  1.0000
  H   H4689     1.0  0.81047  0.23793  0.12763  1.0000
  H   H4690     1.0  0.81728  0.23383  0.10142  1.0000
  H   H4691     1.0  0.79234  0.27000  0.13945  1.0000
  H   H4692     1.0  0.79040  0.28020  0.07058  1.0000
  H   H4693     1.0  0.80165  0.29174  0.05602  1.0000
  H   H4694     1.0  0.82609  0.28493  0.09566  1.0000
  H   H4695     1.0  0.82664  0.25693  0.09964  1.0000
  H   H4696     1.0  0.84276  0.26653  0.07468  1.0000
  H   H4697     1.0  0.83507  0.25886  0.06106  1.0000
  H   H4698     1.0  0.83482  0.28691  0.05801  1.0000
  H   H4699     1.0  0.81110  0.20200  0.12236  1.0000
  H   H4700     1.0  0.79764  0.21699  0.12919  1.0000
  H   H4701     1.0  0.80358  0.21426  0.10220  1.0000
  H   H4702     1.0  0.79148  0.28725  0.16838  1.0000
  H   H4703     1.0  0.86377  0.10125  0.07533  1.0000
  H   H4704     1.0  0.78542  0.31304  0.04432  1.0000
  C   C2668     1.0  0.90738  0.31414  0.02915  1.0000
  H   H4705     1.0  0.78841  0.29472  0.10105  1.0000
  H   H4706     1.0  0.80307  0.29763  0.15327  1.0000
  H   H4707     1.0  0.82338  0.16491  0.07643  1.0000
  H   H4708     1.0  0.94143  0.17215  0.06029  1.0000
  C   C2669     1.0  0.78674  0.31426  0.05945  1.0000
  N   N146      1.0  0.92421  0.39203  0.24015  1.0000
  C   C2670     1.0  0.91373  0.38658  0.25294  1.0000
  C   C2671     1.0  0.92745  0.40551  0.25093  1.0000
  C   C2672     1.0  0.92275  0.40383  0.21820  1.0000
  C   C2673     1.0  0.93287  0.37210  0.23841  1.0000
  C   C2674     1.0  0.93501  0.35709  0.25966  1.0000
  C   C2675     1.0  0.91029  0.36915  0.24666  1.0000
  C   C2676     1.0  0.93173  0.41535  0.20415  1.0000
  C   C2677     1.0  0.91965  0.42724  0.25327  1.0000
  C   C2678     1.0  0.92434  0.44058  0.26204  1.0000
  C   C2679     1.0  0.94142  0.33489  0.25657  1.0000
  C   C2680     1.0  0.89920  0.36625  0.25935  1.0000
  C   C2681     1.0  0.93013  0.42414  0.18156  1.0000
  H   H4709     1.0  0.90718  0.40114  0.25166  1.0000
  H   H4710     1.0  0.91374  0.38158  0.27009  1.0000
  H   H4711     1.0  0.92827  0.39669  0.26721  1.0000
  H   H4712     1.0  0.93554  0.40847  0.24278  1.0000
  H   H4713     1.0  0.91514  0.41604  0.21876  1.0000
  H   H4714     1.0  0.92204  0.39255  0.20940  1.0000
  H   H4715     1.0  0.93126  0.36271  0.22874  1.0000
  H   H4716     1.0  0.94062  0.37635  0.22955  1.0000
  H   H4717     1.0  0.92758  0.35479  0.27145  1.0000
  H   H4718     1.0  0.93964  0.36396  0.26650  1.0000
  H   H4719     1.0  0.91008  0.37349  0.22968  1.0000
  H   H4720     1.0  0.91587  0.35342  0.24978  1.0000
  H   H4721     1.0  0.93957  0.40427  0.20342  1.0000
  H   H4722     1.0  0.93196  0.42897  0.21035  1.0000
  H   H4723     1.0  0.91780  0.43687  0.23797  1.0000
  H   H4724     1.0  0.91206  0.42454  0.26440  1.0000
  H   H4725     1.0  0.76940  0.04217  0.19445  1.0000
  H   H4726     1.0  0.75118  0.46966  0.25115  1.0000
  H   H4727     1.0  0.95073  0.48990  0.22196  1.0000
  H   H4728     1.0  0.93677  0.32685  0.25103  1.0000
  H   H4729     1.0  0.94902  0.33602  0.24488  1.0000
  H   H4730     1.0  0.94329  0.32490  0.27179  1.0000
  C   C2682     1.0  0.85872  0.22542  0.00729  1.0000
  C   C2683     1.0  0.80384  0.03468  0.28506  1.0000
  H   H4731     1.0  0.89908  0.36133  0.27652  1.0000
  S   S603      1.0  0.80127  0.00156  0.22440  1.0000
  H   H4732     1.0  0.75353  0.47831  0.15446  1.0000
  C   C2684     1.0  0.97141  0.31465  0.13675  1.0000
  N   N147      1.0  0.88729  0.37848  0.06703  1.0000
  C   C2685     1.0  0.88517  0.35681  0.06911  1.0000
  C   C2686     1.0  0.89772  0.38052  0.05143  1.0000
  C   C2687     1.0  0.88867  0.37929  0.08830  1.0000
  C   C2688     1.0  0.87829  0.39672  0.06081  1.0000
  C   C2689     1.0  0.97575  0.41658  0.29188  1.0000
  C   C2690     1.0  0.87567  0.35080  0.08701  1.0000
  C   C2691     1.0  0.89271  0.39887  0.08880  1.0000
  C   C2692     1.0  0.89860  0.37873  0.02861  1.0000
  H   H4733     1.0  0.93665  0.43237  0.17198  1.0000
  S   S604      1.0  0.73882  0.44065  0.25023  1.0000
  C   C2693     1.0  0.87250  0.33127  0.08486  1.0000
  H   H4734     1.0  0.89227  0.34421  0.07236  1.0000
  H   H4735     1.0  0.88397  0.35508  0.05412  1.0000
  H   H4736     1.0  0.89953  0.39633  0.04968  1.0000
  H   H4737     1.0  0.90438  0.36822  0.05756  1.0000
  H   H4738     1.0  0.89438  0.36463  0.09447  1.0000
  H   H4739     1.0  0.88101  0.37926  0.10020  1.0000
  H   H4740     1.0  0.87222  0.40062  0.07511  1.0000
  H   H4741     1.0  0.88132  0.41162  0.05304  1.0000
  H   H4742     1.0  0.86704  0.38134  0.05508  1.0000
  H   H4743     1.0  0.74109  0.01132  0.20374  1.0000
  H   H4744     1.0  0.87791  0.34675  0.10249  1.0000
  H   H4745     1.0  0.86861  0.36422  0.08741  1.0000
  H   H4746     1.0  0.88818  0.41402  0.08059  1.0000
  H   H4747     1.0  0.90130  0.39714  0.08109  1.0000
  H   H4748     1.0  0.89707  0.36333  0.02819  1.0000
  C   C2694     1.0  0.76938  0.47645  0.20218  1.0000
  C   C2695     1.0  0.97445  0.32108  0.16844  1.0000
  H   H4749     1.0  0.91044  0.37767  0.99919  1.0000
  Fe  Fe300     1.0  0.98116  0.36655  0.23185  1.0000
  H   H4750     1.0  0.89301  0.39229  0.02096  1.0000
  H   H4751     1.0  0.87775  0.26349  0.03615  1.0000
  H   H4752     1.0  0.87070  0.23470  0.03140  1.0000
  H   H4753     1.0  0.87895  0.31679  0.08739  1.0000
  H   H4754     1.0  0.86522  0.32853  0.09699  1.0000
  H   H4755     1.0  0.87081  0.33374  0.06908  1.0000
  N   N148      1.0  0.92154  0.23424  0.05353  1.0000
  C   C2696     1.0  0.92624  0.21059  0.05976  1.0000
  C   C2697     1.0  0.91085  0.23775  0.04804  1.0000
  C   C2698     1.0  0.92906  0.24340  0.03393  1.0000
  C   C2699     1.0  0.92054  0.24591  0.07046  1.0000
  C   C2700     1.0  0.91378  0.23783  0.09245  1.0000
  C   C2701     1.0  0.93722  0.20454  0.06589  1.0000
  C   C2702     1.0  0.74400  0.99513  0.21285  1.0000
  C   C2703     1.0  0.90388  0.22107  0.05999  1.0000
  C   C2704     1.0  0.89289  0.22841  0.05466  1.0000
  C   C2705     1.0  0.91495  0.24830  0.10895  1.0000
  H   H4756     1.0  0.87938  0.33733  0.02735  1.0000
  H   H4757     1.0  0.92706  0.20271  0.04664  1.0000
  H   H4758     1.0  0.92083  0.20254  0.07338  1.0000
  H   H4759     1.0  0.90593  0.25380  0.05015  1.0000
  H   H4760     1.0  0.91188  0.23796  0.03102  1.0000
  H   H4761     1.0  0.83245  0.36916  0.00801  1.0000
  H   H4762     1.0  0.93685  0.24242  0.03742  1.0000
  H   H4763     1.0  0.92854  0.24602  0.07226  1.0000
  H   H4764     1.0  0.91678  0.26310  0.06570  1.0000
  H   H4765     1.0  0.91618  0.22031  0.09814  1.0000
  H   H4766     1.0  0.90523  0.24215  0.09182  1.0000
  H   H4767     1.0  0.94349  0.20981  0.05227  1.0000
  H   H4768     1.0  0.93688  0.21177  0.07909  1.0000
  H   H4769     1.0  0.92482  0.27778  0.03400  1.0000
  H   H4770     1.0  0.79685  0.04784  0.28842  1.0000
  H   H4771     1.0  0.90765  0.20555  0.05515  1.0000
  H   H4772     1.0  0.90274  0.21825  0.07733  1.0000
  H   H4773     1.0  0.88834  0.21556  0.06204  1.0000
  H   H4774     1.0  0.88841  0.24288  0.06096  1.0000
  H   H4775     1.0  0.89357  0.23207  0.03733  1.0000
  H   H4776     1.0  0.91231  0.26596  0.10456  1.0000
  H   H4777     1.0  0.90996  0.24243  0.12452  1.0000
  H   H4778     1.0  0.92336  0.24422  0.11058  1.0000
  H   H4779     1.0  0.76460  0.45652  0.15294  1.0000
  H   H4780     1.0  0.76557  0.47312  0.21923  1.0000
  H   H4781     1.0  0.89317  0.38135  0.25622  1.0000
  N   N149      1.0  0.82628  0.13752  0.20370  1.0000
  C   C2706     1.0  0.83831  0.13303  0.19910  1.0000
  C   C2707     1.0  0.82250  0.11720  0.20667  1.0000
  C   C2708     1.0  0.82278  0.15327  0.18465  1.0000
  C   C2709     1.0  0.82126  0.14770  0.22249  1.0000
  C   C2710     1.0  0.82439  0.13491  0.24357  1.0000
  C   C2711     1.0  0.84333  0.15240  0.19589  1.0000
  C   C2712     1.0  0.81081  0.15734  0.18418  1.0000
  C   C2713     1.0  0.82920  0.09576  0.21703  1.0000
  C   C2714     1.0  0.82333  0.07755  0.22268  1.0000
  C   C2715     1.0  0.82008  0.14832  0.26042  1.0000
  C   C2716     1.0  0.85549  0.14571  0.19126  1.0000
  C   C2717     1.0  0.80846  0.17298  0.16387  1.0000
  H   H4782     1.0  0.84165  0.12619  0.18469  1.0000
  H   H4783     1.0  0.84154  0.12062  0.21184  1.0000
  H   H4784     1.0  0.81408  0.11873  0.21568  1.0000
  H   H4785     1.0  0.82243  0.11465  0.19112  1.0000
  H   H4786     1.0  0.82756  0.14801  0.16993  1.0000
  H   H4787     1.0  0.82435  0.16923  0.18317  1.0000
  H   H4788     1.0  0.82290  0.16399  0.21902  1.0000
  H   H4789     1.0  0.81243  0.15041  0.22566  1.0000
  H   H4790     1.0  0.83315  0.12995  0.24186  1.0000
  H   H4791     1.0  0.82085  0.12055  0.24955  1.0000
  H   H4792     1.0  0.84110  0.16521  0.18241  1.0000
  H   H4793     1.0  0.84075  0.15914  0.21025  1.0000
  H   H4794     1.0  0.80563  0.16442  0.19757  1.0000
  H   H4795     1.0  0.80846  0.14238  0.18485  1.0000
  H   H4796     1.0  0.83682  0.09129  0.20573  1.0000
  H   H4797     1.0  0.83115  0.09670  0.23157  1.0000
  H   H4798     1.0  0.82846  0.06222  0.22910  1.0000
  H   H4799     1.0  0.82131  0.07576  0.20845  1.0000
  H   H4800     1.0  0.82221  0.13864  0.27553  1.0000
  H   H4801     1.0  0.82358  0.16272  0.25558  1.0000
  H   H4802     1.0  0.81125  0.15343  0.26310  1.0000
  H   H4803     1.0  0.85823  0.13331  0.20462  1.0000
  H   H4804     1.0  0.85851  0.13929  0.17664  1.0000
  H   H4805     1.0  0.85893  0.15983  0.18889  1.0000
  H   H4806     1.0  0.81317  0.16626  0.14991  1.0000
  H   H4807     1.0  0.79987  0.17589  0.16394  1.0000
  C   C2718     1.0  0.79610  0.28386  0.13578  1.0000
  H   H4808     1.0  0.89700  0.35357  0.25467  1.0000
  H   H4809     1.0  0.77578  0.02004  0.18143  1.0000
  C   C2719     1.0  0.81234  0.40599  0.22047  1.0000
  H   H4810     1.0  0.83211  0.41024  0.20610  1.0000
  N   N150      1.0  0.85321  0.24866  0.00669  1.0000
  H   H4811     1.0  0.89192  0.28537  0.06945  1.0000
  C   C2720     1.0  0.79887  0.28452  0.15605  1.0000
  S   S605      1.0  0.77589  0.45868  0.28994  1.0000
  H   H4812     1.0  0.79018  0.29881  0.13154  1.0000
  H   H4813     1.0  0.80404  0.26905  0.16203  1.0000
  H   H4814     1.0  0.77891  0.31675  0.07070  1.0000
  H   H4815     1.0  0.81411  0.42950  0.17972  1.0000
  C   C2721     1.0  0.85620  0.11252  0.08031  1.0000
  H   H4816     1.0  0.85139  0.15178  0.03377  1.0000
  C   C2722     1.0  0.84539  0.16653  0.03322  1.0000
  H   H4817     1.0  0.84934  0.10937  0.05645  1.0000
  H   H4818     1.0  0.84662  0.09103  0.08152  1.0000
  Fe  Fe301     1.0  0.75228  0.42623  0.26687  1.0000
  H   H4819     1.0  0.80604  0.19033  0.07890  1.0000
  C   C2723     1.0  0.84713  0.10785  0.07381  1.0000
  H   H4820     1.0  0.83788  0.13990  0.07220  1.0000
  H   H4821     1.0  0.88315  0.40421  0.11946  1.0000
  H   H4822     1.0  0.79916  0.16872  0.08611  1.0000
  H   H4823     1.0  0.75336  0.48043  0.11667  1.0000
  H   H4824     1.0  0.80912  0.38619  0.25297  1.0000
  C   C2724     1.0  0.83650  0.12365  0.08028  1.0000
  C   C2725     1.0  0.81641  0.15964  0.07537  1.0000
  H   H4825     1.0  0.83026  0.14080  0.04439  1.0000
  H   H4826     1.0  0.83524  0.12321  0.09736  1.0000
  H   H4827     1.0  0.81700  0.13336  0.10234  1.0000
  H   H4828     1.0  0.81597  0.16343  0.05852  1.0000
  H   H4829     1.0  0.80965  0.13124  0.08529  1.0000
  C   C2726     1.0  0.81716  0.13539  0.08534  1.0000
  H   H4830     1.0  0.83489  0.11331  0.04480  1.0000
  Fe  Fe302     1.0  0.97461  0.41204  0.20832  1.0000
  N   N151      1.0  0.82677  0.12041  0.07544  1.0000
  C   C2727     1.0  0.82808  0.12504  0.05180  1.0000
  H   H4831     1.0  0.81324  0.13044  0.01448  1.0000
  C   C2728     1.0  0.82533  0.09772  0.08441  1.0000
  C   C2729     1.0  0.81834  0.12440  0.04388  1.0000
  C   C2730     1.0  0.81999  0.13225  0.01993  1.0000
  H   H4832     1.0  0.81799  0.09871  0.11765  1.0000
  C   C2731     1.0  0.79477  0.00736  0.31321  1.0000
  H   H4833     1.0  0.96915  0.32767  0.20983  1.0000
  H   H4834     1.0  0.74470  0.04071  0.23048  1.0000
  H   H4835     1.0  0.80779  0.03875  0.26815  1.0000
  H   H4836     1.0  0.82749  0.12287  0.01182  1.0000
  H   H4837     1.0  0.75179  0.45866  0.21058  1.0000
  C   C2732     1.0  0.82499  0.08931  0.10837  1.0000
  H   H4838     1.0  0.83165  0.08647  0.07570  1.0000
  H   H4839     1.0  0.81717  0.10776  0.04779  1.0000
  H   H4840     1.0  0.81090  0.13467  0.05095  1.0000
  H   H4841     1.0  0.98223  0.32959  0.21044  1.0000
  H   H4842     1.0  0.81771  0.09609  0.08202  1.0000
  H   H4843     1.0  0.80225  0.43522  0.24657  1.0000
  H   H4844     1.0  0.96631  0.39482  0.11999  1.0000
  C   C2733     1.0  0.86912  0.26574  0.03712  1.0000
  C   C2734     1.0  0.83972  0.17356  0.01702  1.0000
  C   C2735     1.0  0.82399  0.06593  0.11549  1.0000
  H   H4845     1.0  0.82372  0.06042  0.13270  1.0000
  C   C2736     1.0  0.85548  0.25481  0.02465  1.0000
  H   H4846     1.0  0.76637  0.42559  0.17879  1.0000
  H   H4847     1.0  0.80876  0.24757  0.99565  1.0000
  H   H4848     1.0  0.83186  0.34997  0.19856  1.0000
  H   H4849     1.0  0.85153  0.27165  0.02537  1.0000
  C   C2737     1.0  0.80110  0.41862  0.25361  1.0000
  H   H4850     1.0  0.79370  0.41699  0.25029  1.0000
  H   H4851     1.0  0.81652  0.06418  0.11259  1.0000
  H   H4852     1.0  0.76951  0.38930  0.20281  1.0000
  H   H4853     1.0  0.96587  0.32481  0.17612  1.0000
  H   H4854     1.0  0.80003  0.41575  0.27100  1.0000
  H   H4855     1.0  0.87229  0.25547  0.00809  1.0000
  C   C2738     1.0  0.96981  0.36181  0.11640  1.0000
  S   S606      1.0  0.75736  0.39053  0.27593  1.0000
  C   C2739     1.0  0.97780  0.32272  0.20315  1.0000
  H   H4856     1.0  0.76061  0.38419  0.22818  1.0000
  H   H4857     1.0  0.92240  0.43581  0.18128  1.0000
  C   C2740     1.0  0.75592  0.46269  0.11962  1.0000
  C   C2741     1.0  0.75603  0.41590  0.20904  1.0000
  H   H4858     1.0  0.78755  0.02036  0.31520  1.0000
  S   S607      1.0  0.75131  0.43208  0.29854  1.0000
  H   H4859     1.0  0.90936  0.31850  0.01209  1.0000
  C   C2742     1.0  0.85683  0.21501  0.99107  1.0000
  H   H4860     1.0  0.85906  0.37625  0.19232  1.0000
  C   C2743     1.0  0.75865  0.02294  0.19407  1.0000
  H   H4861     1.0  0.84642  0.36598  0.99563  1.0000
  H   H4862     1.0  0.74748  0.41721  0.21654  1.0000
  C   C2744     1.0  0.95572  0.49225  0.20571  1.0000
  H   H4863     1.0  0.75970  0.42238  0.21809  1.0000
  S   S608      1.0  0.89387  0.29112  0.02542  1.0000
  C   C2745     1.0  0.96773  0.34199  0.30668  1.0000
  H   H4864     1.0  0.91866  0.45607  0.26356  1.0000
  C   C2746     1.0  0.92522  0.26726  0.02348  1.0000
  H   H4865     1.0  0.85193  0.24515  0.04004  1.0000
  S   S609      1.0  0.84225  0.15763  0.99845  1.0000
  C   C2747     1.0  0.83998  0.35724  0.00431  1.0000
  H   H4866     1.0  0.86869  0.42665  0.02934  1.0000
  H   H4867     1.0  0.81548  0.32659  0.23160  1.0000
  H   H4868     1.0  0.96295  0.39168  0.09707  1.0000
  C   C2748     1.0  0.74395  0.47888  0.24617  1.0000
  C   C2749     1.0  0.75764  0.42783  0.18551  1.0000
  H   H4869     1.0  0.86609  0.28290  0.03053  1.0000
  S   S610      1.0  0.96775  0.49156  0.32043  1.0000
  C   C2750     1.0  0.86747  0.25167  0.02435  1.0000
  H   H4870     1.0  0.97860  0.40661  0.27986  1.0000
  H   H4871     1.0  0.93330  0.26461  0.99116  1.0000
  H   H4872     1.0  0.91131  0.39624  0.01334  1.0000
  H   H4873     1.0  0.97663  0.44826  0.29318  1.0000
  H   H4874     1.0  0.80964  0.03333  0.29462  1.0000
  S   S611      1.0  0.98034  0.38079  0.19770  1.0000
  C   C2751     1.0  0.76845  0.03273  0.18413  1.0000
  C   C2752     1.0  0.83192  0.19255  0.01647  1.0000
  H   H4875     1.0  0.75178  0.48090  0.18901  1.0000
  C   C2753     1.0  0.83389  0.27250  0.01050  1.0000
  S   S612      1.0  0.82479  0.00319  0.24854  1.0000
  C   C2754     1.0  0.97019  0.35173  0.13989  1.0000
  H   H4876     1.0  0.96861  0.38225  0.30005  1.0000
  C   C2755     1.0  0.90975  0.38021  0.01514  1.0000
  H   H4877     1.0  0.93077  0.23382  0.02171  1.0000
  H   H4878     1.0  0.80760  0.00132  0.28539  1.0000
  H   H4879     1.0  0.74280  0.48112  0.29285  1.0000
  H   H4880     1.0  0.76477  0.45811  0.11566  1.0000
  H   H4881     1.0  0.97105  0.48472  0.21360  1.0000
  H   H4882     1.0  0.97717  0.44497  0.26727  1.0000
  H   H4883     1.0  0.83949  0.24428  0.99840  1.0000
  H   H4884     1.0  0.82740  0.19795  0.00422  1.0000
  H   H4885     1.0  0.77092  0.44480  0.19855  1.0000
  N   N152      1.0  0.97591  0.32858  0.14477  1.0000
  C   C2756     1.0  0.77391  0.46088  0.31613  1.0000
  C   C2757     1.0  0.97987  0.43708  0.28225  1.0000
  H   H4886     1.0  0.77808  0.47415  0.20062  1.0000
  H   H4887     1.0  0.82891  0.32466  0.23410  1.0000
  C   C2758     1.0  0.76001  0.00622  0.21487  1.0000
  H   H4888     1.0  0.96188  0.35387  0.14925  1.0000
  H   H4889     1.0  0.79481  0.01567  0.27941  1.0000
  H   H4890     1.0  0.94218  0.46052  0.31198  1.0000
  H   H4891     1.0  0.76618  0.49338  0.19500  1.0000
  H   H4892     1.0  0.82002  0.26293  0.00818  1.0000
  C   C2759     1.0  0.82226  0.27060  0.01851  1.0000
  H   H4893     1.0  0.97766  0.34860  0.17604  1.0000
  H   H4894     1.0  0.87709  0.38742  0.03234  1.0000
  H   H4895     1.0  0.76753  0.04363  0.16869  1.0000
  H   H4896     1.0  0.88234  0.33411  0.00069  1.0000
  H   H4897     1.0  0.92587  0.43198  0.27790  1.0000
  C   C2760     1.0  0.84138  0.25013  0.01053  1.0000
  S   S613      1.0  0.77490  0.39937  0.29659  1.0000
  C   C2761     1.0  0.75160  0.45264  0.14263  1.0000
  H   H4898     1.0  0.86750  0.22346  0.00440  1.0000
  Fe  Fe303     1.0  0.75779  0.39671  0.30659  1.0000
  H   H4899     1.0  0.86365  0.34554  0.99870  1.0000
  H   H4900     1.0  0.83552  0.28115  0.02069  1.0000
  C   C2762     1.0  0.87192  0.39331  0.04633  1.0000
  H   H4901     1.0  0.75283  0.45690  0.10904  1.0000
  C   C2763     1.0  0.86550  0.34114  0.01462  1.0000
  C   C2764     1.0  0.95110  0.46684  0.27987  1.0000
  H   H4902     1.0  0.75160  0.03609  0.19676  1.0000
  H   H4903     1.0  0.91596  0.36786  0.02242  1.0000
  H   H4904     1.0  0.91728  0.27027  0.01987  1.0000
  H   H4905     1.0  0.77154  0.46488  0.17438  1.0000
  H   H4906     1.0  0.82093  0.26090  0.03489  1.0000
  H   H4907     1.0  0.97792  0.36271  0.10670  1.0000
  H   H4908     1.0  0.76250  0.01378  0.22501  1.0000
  H   H4909     1.0  0.85248  0.38499  0.21660  1.0000
  H   H4910     1.0  0.82683  0.31542  0.21323  1.0000
  H   H4911     1.0  0.95665  0.31251  0.16114  1.0000
  C   C2765     1.0  0.75526  0.46349  0.19350  1.0000
  C   C2766     1.0  0.74033  0.45325  0.18745  1.0000
  Fe  Fe304     1.0  0.80736  0.00975  0.18940  1.0000
  C   C2767     1.0  0.76734  0.46125  0.19114  1.0000
  C   C2768     1.0  0.76102  0.39199  0.21123  1.0000
  H   H4912     1.0  0.86536  0.32402  0.02093  1.0000
  H   H4913     1.0  0.85628  0.21540  0.02331  1.0000
  H   H4914     1.0  0.79049  0.45986  0.31309  1.0000
  H   H4915     1.0  0.82033  0.14946  0.01533  1.0000
  H   H4916     1.0  0.94036  0.42463  0.31077  1.0000
  H   H4917     1.0  0.95482  0.33329  0.13803  1.0000
  H   H4918     1.0  0.85977  0.41109  0.02856  1.0000
  H   H4919     1.0  0.75417  0.43502  0.14449  1.0000
  H   H4920     1.0  0.96495  0.32695  0.31491  1.0000
  H   H4921     1.0  0.86266  0.18226  0.00715  1.0000
  H   H4922     1.0  0.94673  0.30383  0.14003  1.0000
  C   C2769     1.0  0.98025  0.33093  0.17921  1.0000
  S   S614      1.0  0.97933  0.44351  0.19038  1.0000
  C   C2770     1.0  0.95916  0.31678  0.14371  1.0000
  H   H4923     1.0  0.97533  0.33807  0.29514  1.0000
  C   C2771     1.0  0.73863  0.03076  0.23757  1.0000
  H   H4924     1.0  0.97192  0.49092  0.24837  1.0000
  C   C2772     1.0  0.97982  0.40405  0.31215  1.0000
  H   H4925     1.0  0.96629  0.35254  0.10981  1.0000
  H   H4926     1.0  0.75666  0.38426  0.20470  1.0000
  H   H4927     1.0  0.96164  0.35292  0.29802  1.0000
  C   C2773     1.0  0.95553  0.30184  0.13486  1.0000
  H   H4928     1.0  0.98575  0.47611  0.27011  1.0000
  H   H4929     1.0  0.96695  0.42081  0.29521  1.0000
  H   H4930     1.0  0.97501  0.29746  0.14225  1.0000
  C   C2774     1.0  0.96302  0.38460  0.11400  1.0000
  S   S615      1.0  0.95228  0.49254  0.27948  1.0000
  H   H4931     1.0  0.75475  0.41888  0.17733  1.0000
  C   C2775     1.0  0.97366  0.37299  0.31162  1.0000
  C   C2776     1.0  0.75576  0.46049  0.15785  1.0000
  H   H4932     1.0  0.97365  0.31759  0.11921  1.0000
  H   H4933     1.0  0.83264  0.33451  0.99870  1.0000
  H   H4934     1.0  0.87741  0.36054  0.00604  1.0000
  H   H4935     1.0  0.77832  0.00068  0.30603  1.0000
  C   C2777     1.0  0.74417  0.00714  0.24468  1.0000
  H   H4936     1.0  0.98176  0.36794  0.30206  1.0000
  H   H4937     1.0  0.74658  0.11425  0.31861  1.0000
  C   C2778     1.0  0.83825  0.34516  0.98987  1.0000
  H   H4938     1.0  0.94098  0.27201  0.00532  1.0000
  H   H4939     1.0  0.73779  0.44775  0.20483  1.0000
  H   H4940     1.0  0.73789  0.44244  0.18056  1.0000
  N   N153      1.0  0.75070  0.99583  0.22728  1.0000
  H   H4941     1.0  0.97497  0.38981  0.36794  1.0000
  H   H4942     1.0  0.76915  0.42006  0.37297  1.0000
  C   C2779     1.0  0.74277  0.09656  0.35163  1.0000
  C   C2780     1.0  0.75533  0.43432  0.43120  1.0000
  H   H4943     1.0  0.94306  0.42319  0.34773  1.0000
  H   H4944     1.0  0.75773  0.44939  0.42999  1.0000
  C   C2781     1.0  0.77107  0.46767  0.35678  1.0000
  C   C2782     1.0  0.74919  0.41803  0.37553  1.0000
  H   H4945     1.0  0.75455  0.44281  0.39829  1.0000
  H   H4946     1.0  0.76303  0.10433  0.33251  1.0000
  C   C2783     1.0  0.74565  0.37333  0.41014  1.0000
  H   H4947     1.0  0.96165  0.35596  0.33404  1.0000
  S   S616      1.0  0.96342  0.45259  0.37667  1.0000
  H   H4948     1.0  0.76711  0.42719  0.40415  1.0000
  C   C2784     1.0  0.96937  0.35239  0.32278  1.0000
  H   H4949     1.0  0.77174  0.37797  0.35950  1.0000
  H   H4950     1.0  0.74005  0.13119  0.33735  1.0000
  H   H4951     1.0  0.96615  0.41865  0.35065  1.0000
  H   H4952     1.0  0.74662  0.43647  0.43760  1.0000
  H   H4953     1.0  0.75982  0.39506  0.42030  1.0000
  C   C2785     1.0  0.98026  0.37291  0.34192  1.0000
  C   C2786     1.0  0.97722  0.44375  0.37486  1.0000
  H   H4954     1.0  0.76577  0.00783  0.37913  1.0000
  H   H4955     1.0  0.75491  0.37631  0.37821  1.0000
  H   H4956     1.0  0.74626  0.37391  0.42604  1.0000
  H   H4957     1.0  0.74532  0.04391  0.63597  1.0000
  H   H4958     1.0  0.98628  0.39780  0.34820  1.0000
  H   H4959     1.0  0.74806  0.41006  0.36407  1.0000
  C   C2787     1.0  0.98113  0.43983  0.39305  1.0000
  Fe  Fe305     1.0  0.74699  0.02086  0.34279  1.0000
  C   C2788     1.0  0.76793  0.40336  0.37735  1.0000
  C   C2789     1.0  0.78285  0.39842  0.34531  1.0000
  C   C2790     1.0  0.75833  0.42908  0.40937  1.0000
  C   C2791     1.0  0.78125  0.46437  0.34379  1.0000
  C   C2792     1.0  0.78263  0.46163  0.32331  1.0000
  H   H4960     1.0  0.77917  0.01613  0.34755  1.0000
  C   C2793     1.0  0.76228  0.46725  0.34955  1.0000
  H   H4961     1.0  0.94853  0.41063  0.37110  1.0000
  S   S617      1.0  0.75152  0.37823  0.33874  1.0000
  H   H4962     1.0  0.94779  0.43866  0.35986  1.0000
  H   H4963     1.0  0.74667  0.40933  0.41897  1.0000
  H   H4964     1.0  0.76618  0.40420  0.34555  1.0000
  N   N154      1.0  0.75659  0.40268  0.38918  1.0000
  C   C2794     1.0  0.73801  0.42878  0.38676  1.0000
  H   H4965     1.0  0.74387  0.09820  0.36671  1.0000
  H   H4966     1.0  0.77361  0.39386  0.38763  1.0000
  H   H4967     1.0  0.98661  0.35497  0.38036  1.0000
  H   H4968     1.0  0.75899  0.13280  0.32297  1.0000
  H   H4969     1.0  0.73805  0.38372  0.40688  1.0000
  H   H4970     1.0  0.75286  0.43155  0.36539  1.0000
  C   C2795     1.0  0.77159  0.39531  0.35646  1.0000
  C   C2796     1.0  0.74593  0.11623  0.33474  1.0000
  H   H4971     1.0  0.74431  0.05964  0.38342  1.0000
  S   S618      1.0  0.74458  0.00256  0.37631  1.0000
  H   H4972     1.0  0.78806  0.46461  0.34936  1.0000
  C   C2797     1.0  0.75507  0.40824  0.41017  1.0000
  H   H4973     1.0  0.74838  0.10235  0.63563  1.0000
  H   H4974     1.0  0.97611  0.36019  0.35239  1.0000
  H   H4975     1.0  0.76253  0.36843  0.39781  1.0000
  C   C2798     1.0  0.75533  0.37991  0.39303  1.0000
  S   S619      1.0  0.76966  0.47155  0.38216  1.0000
  C   C2799     1.0  0.75682  0.11887  0.33542  1.0000
  H   H4976     1.0  0.75313  0.00926  0.62658  1.0000
  H   H4977     1.0  0.98151  0.49152  0.38685  1.0000
  C   C2800     1.0  0.94924  0.42278  0.35603  1.0000
  H   H4978     1.0  0.74889  0.08216  0.34785  1.0000
  H   H4979     1.0  0.75698  0.46264  0.32394  1.0000
  H   H4980     1.0  0.75239  0.33894  0.41508  1.0000
  H   H4981     1.0  0.78849  0.39048  0.35595  1.0000
  H   H4982     1.0  0.75440  0.46960  0.35962  1.0000
  C   C2801     1.0  0.74974  0.48843  0.61729  1.0000
  C   C2802     1.0  0.73786  0.37877  0.34389  1.0000
  H   H4983     1.0  0.73807  0.34618  0.42331  1.0000
  S   S620      1.0  0.75719  0.04531  0.33021  1.0000
  H   H4984     1.0  0.95989  0.38411  0.35069  1.0000
  H   H4985     1.0  0.73940  0.48586  0.49624  1.0000
  H   H4986     1.0  0.97575  0.44336  0.40750  1.0000
  Fe  Fe306     1.0  0.95799  0.48166  0.35277  1.0000
  H   H4987     1.0  0.78251  0.49026  0.60107  1.0000
  H   H4988     1.0  0.79995  0.00867  0.32302  1.0000
  H   H4989     1.0  0.95706  0.39791  0.32580  1.0000
  H   H4990     1.0  0.98119  0.44185  0.34216  1.0000
  H   H4991     1.0  0.75760  0.48747  0.50021  1.0000
  C   C2803     1.0  0.98421  0.43894  0.35622  1.0000
  H   H4992     1.0  0.73824  0.07821  0.32679  1.0000
  C   C2804     1.0  0.96264  0.39582  0.33617  1.0000
  C   C2805     1.0  0.96037  0.41786  0.34211  1.0000
  C   C2806     1.0  0.74248  0.03769  0.65315  1.0000
  H   H4993     1.0  0.75953  0.42132  0.44229  1.0000
  S   S621      1.0  0.94277  0.48614  0.34242  1.0000
  H   H4994     1.0  0.73958  0.17280  0.45666  1.0000
  H   H4995     1.0  0.75664  0.12171  0.35099  1.0000
  H   H4996     1.0  0.76838  0.48551  0.58942  1.0000
  C   C2807     1.0  0.74415  0.10265  0.65223  1.0000
  C   C2808     1.0  0.76374  0.46325  0.32941  1.0000
  C   C2809     1.0  0.74509  0.35045  0.41104  1.0000
  H   H4997     1.0  0.78566  0.39126  0.33120  1.0000
  H   H4998     1.0  0.97519  0.34044  0.33145  1.0000
  C   C2810     1.0  0.77711  0.00031  0.35088  1.0000
  H   H4999     1.0  0.74418  0.34906  0.39562  1.0000
  H   H5000     1.0  0.78293  0.41575  0.34011  1.0000
  H   H5001     1.0  0.74496  0.49124  0.60532  1.0000
  H   H5002     1.0  0.96076  0.43088  0.32768  1.0000
  H   H5003     1.0  0.73873  0.44057  0.39481  1.0000
  H   H5004     1.0  0.75452  0.47173  0.61933  1.0000
  C   C2811     1.0  0.98248  0.38419  0.35698  1.0000
  H   H5005     1.0  0.78417  0.49432  0.56259  1.0000
  C   C2812     1.0  0.75240  0.00210  0.64372  1.0000
  H   H5006     1.0  0.77077  0.00182  0.34255  1.0000
  H   H5007     1.0  0.74416  0.49025  0.63260  1.0000
  N   N155      1.0  0.97396  0.38686  0.32573  1.0000
  H   H5008     1.0  0.75955  0.00287  0.64860  1.0000
  H   H5009     1.0  0.79782  0.49486  0.61613  1.0000
  H   H5010     1.0  0.76227  0.34464  0.75861  1.0000
  H   H5011     1.0  0.75899  0.02154  0.83049  1.0000
  H   H5012     1.0  0.75892  0.40283  0.87671  1.0000
  Fe  Fe307     1.0  0.74872  0.05765  0.72154  1.0000
  S   S622      1.0  0.75095  0.09100  0.70643  1.0000
  Fe  Fe308     1.0  0.75262  0.09221  0.73818  1.0000
  S   S623      1.0  0.76687  0.10226  0.74098  1.0000
  C   C2813     1.0  0.75248  0.42112  0.79162  1.0000
  H   H5013     1.0  0.78655  0.06392  0.75474  1.0000
  S   S624      1.0  0.75169  0.05807  0.75241  1.0000
  H   H5014     1.0  0.73974  0.06441  0.85417  1.0000
  Fe  Fe309     1.0  0.82524  0.20357  0.93639  1.0000
  S   S625      1.0  0.83751  0.19764  0.90725  1.0000
  S   S626      1.0  0.81034  0.22772  0.93023  1.0000
  Fe  Fe310     1.0  0.83907  0.17309  0.96565  1.0000
  S   S627      1.0  0.85225  0.16450  0.93827  1.0000
  H   H5015     1.0  0.86585  0.25518  0.97932  1.0000
  Fe  Fe311     1.0  0.84921  0.20001  0.92465  1.0000
  S   S628      1.0  0.86070  0.22264  0.90907  1.0000
  Fe  Fe312     1.0  0.83913  0.16289  0.92374  1.0000
  S   S629      1.0  0.84038  0.13547  0.90783  1.0000
  S   S630      1.0  0.83668  0.20852  0.95259  1.0000
  S   S631      1.0  0.82623  0.16886  0.95231  1.0000
  Fe  Fe313     1.0  0.78614  0.07517  0.84511  1.0000
  S   S632      1.0  0.80165  0.08532  0.82956  1.0000
  S   S633      1.0  0.77019  0.08891  0.83589  1.0000
  Fe  Fe314     1.0  0.79570  0.04104  0.87920  1.0000
  S   S634      1.0  0.81197  0.04852  0.86645  1.0000
  S   S635      1.0  0.79296  0.01513  0.90839  1.0000
  Fe  Fe315     1.0  0.80347  0.08325  0.86254  1.0000
  S   S636      1.0  0.80634  0.11187  0.87169  1.0000
  Fe  Fe316     1.0  0.80868  0.04974  0.83506  1.0000
  S   S637      1.0  0.82126  0.03417  0.81035  1.0000
  S   S638      1.0  0.78733  0.07541  0.87758  1.0000
  S   S639      1.0  0.79305  0.03994  0.84824  1.0000
  H   H5016     1.0  0.92287  0.27312  0.82976  1.0000
  H   H5017     1.0  0.78935  0.25146  0.92187  1.0000
  H   H5018     1.0  0.77524  0.21796  0.88539  1.0000
  H   H5019     1.0  0.75971  0.38754  0.74294  1.0000
  S   S640      1.0  0.77017  0.31888  0.87987  1.0000
  H   H5020     1.0  0.89605  0.19328  0.89963  1.0000
  H   H5021     1.0  0.74546  0.44626  0.85847  1.0000
  S   S641      1.0  0.81429  0.37712  0.93220  1.0000
  H   H5022     1.0  0.74933  0.06896  0.66347  1.0000
  H   H5023     1.0  0.75423  0.41783  0.71441  1.0000
  S   S642      1.0  0.81116  0.33034  0.93025  1.0000
  H   H5024     1.0  0.75597  0.40012  0.69730  1.0000
  Fe  Fe317     1.0  0.82408  0.34370  0.93363  1.0000
  S   S643      1.0  0.84077  0.33459  0.91485  1.0000
  Fe  Fe318     1.0  0.80097  0.36301  0.93145  1.0000
  S   S644      1.0  0.79078  0.37899  0.90751  1.0000
  H   H5025     1.0  0.92913  0.44571  0.88108  1.0000
  Fe  Fe319     1.0  0.97331  0.43292  0.89002  1.0000
  H   H5026     1.0  0.78255  0.06925  0.67864  1.0000
  S   S645      1.0  0.90737  0.27736  0.96899  1.0000
  H   H5027     1.0  0.76150  0.00303  0.89332  1.0000
  Fe  Fe320     1.0  0.88689  0.32909  0.95405  1.0000
  S   S646      1.0  0.89669  0.30950  0.93030  1.0000
  S   S647      1.0  0.87451  0.35926  0.94792  1.0000
  Fe  Fe321     1.0  0.89298  0.28105  0.95595  1.0000
  S   S648      1.0  0.88922  0.25006  0.95462  1.0000
  Fe  Fe322     1.0  0.91010  0.30771  0.94524  1.0000
  S   S649      1.0  0.92585  0.31267  0.92322  1.0000
  Fe  Fe323     1.0  0.80632  0.32410  0.96554  1.0000
  S   S650      1.0  0.90049  0.32938  0.96720  1.0000
  Fe  Fe324     1.0  0.95520  0.40842  0.90013  1.0000
  S   S651      1.0  0.94429  0.38996  0.92684  1.0000
  Fe  Fe325     1.0  0.96967  0.41520  0.85646  1.0000
  H   H5028     1.0  0.93454  0.26883  0.90807  1.0000
  S   S652      1.0  0.97303  0.39956  0.88865  1.0000
  S   S653      1.0  0.95183  0.42144  0.86760  1.0000
  C   C2814     1.0  0.77527  0.00901  0.89960  1.0000
  H   H5029     1.0  0.90385  0.29978  0.88703  1.0000
  H   H5030     1.0  0.74402  0.03005  0.89940  1.0000
  C   C2815     1.0  0.76756  0.26472  0.87321  1.0000
  H   H5031     1.0  0.75839  0.31092  0.77982  1.0000
  C   C2816     1.0  0.93099  0.33419  0.92415  1.0000
  C   C2817     1.0  0.93846  0.34253  0.90679  1.0000
  C   C2818     1.0  0.94255  0.35979  0.90718  1.0000
  C   C2819     1.0  0.93934  0.36856  0.92513  1.0000
  C   C2820     1.0  0.93191  0.36015  0.94248  1.0000
  C   C2821     1.0  0.92773  0.34313  0.94197  1.0000
  H   H5032     1.0  0.94108  0.33565  0.89297  1.0000
  H   H5033     1.0  0.94829  0.36610  0.89376  1.0000
  H   H5034     1.0  0.92945  0.36672  0.95648  1.0000
  H   H5035     1.0  0.92218  0.33661  0.95560  1.0000
  C   C2822     1.0  0.85014  0.34352  0.92211  1.0000
  C   C2823     1.0  0.86099  0.33441  0.91622  1.0000
  C   C2824     1.0  0.86851  0.33979  0.92363  1.0000
  C   C2825     1.0  0.86525  0.35457  0.93660  1.0000
  C   C2826     1.0  0.85447  0.36464  0.94148  1.0000
  C   C2827     1.0  0.84690  0.35895  0.93439  1.0000
  H   H5036     1.0  0.86350  0.32256  0.90662  1.0000
  H   H5037     1.0  0.87681  0.33230  0.91955  1.0000
  H   H5038     1.0  0.85191  0.37622  0.95137  1.0000
  H   H5039     1.0  0.83854  0.36632  0.93861  1.0000
  C   C2828     1.0  0.77611  0.33539  0.88737  1.0000
  C   C2829     1.0  0.77716  0.35558  0.87477  1.0000
  C   C2830     1.0  0.78169  0.36880  0.88108  1.0000
  C   C2831     1.0  0.78537  0.36179  0.89986  1.0000
  C   C2832     1.0  0.78453  0.34143  0.91233  1.0000
  C   C2833     1.0  0.77988  0.32828  0.90611  1.0000
  H   H5040     1.0  0.77468  0.36087  0.85993  1.0000
  H   H5041     1.0  0.78246  0.38441  0.87125  1.0000
  H   H5042     1.0  0.78730  0.33599  0.92693  1.0000
  H   H5043     1.0  0.77910  0.31274  0.91599  1.0000
  H   H5044     1.0  0.78274  0.25509  0.95977  1.0000
  H   H5045     1.0  0.78955  0.22051  0.91305  1.0000
  H   H5046     1.0  0.98220  0.45581  0.80579  1.0000
  H   H5047     1.0  0.74352  0.38172  0.70675  1.0000
  H   H5048     1.0  0.93855  0.24413  0.92614  1.0000
  H   H5049     1.0  0.88390  0.30550  0.89926  1.0000
  H   H5050     1.0  0.94838  0.47741  0.79058  1.0000
  H   H5051     1.0  0.88321  0.30034  0.87486  1.0000
  H   H5052     1.0  0.93465  0.27928  0.83251  1.0000
  C   C2834     1.0  0.86760  0.23077  0.92349  1.0000
  C   C2835     1.0  0.86832  0.25234  0.91909  1.0000
  C   C2836     1.0  0.87462  0.25881  0.92886  1.0000
  C   C2837     1.0  0.88051  0.24363  0.94271  1.0000
  C   C2838     1.0  0.87986  0.22211  0.94689  1.0000
  C   C2839     1.0  0.87337  0.21573  0.93754  1.0000
  H   H5053     1.0  0.86403  0.26409  0.90798  1.0000
  H   H5054     1.0  0.87508  0.27543  0.92522  1.0000
  H   H5055     1.0  0.88453  0.21019  0.95722  1.0000
  H   H5056     1.0  0.87311  0.19901  0.94067  1.0000
  C   C2840     1.0  0.83033  0.12853  0.89970  1.0000
  C   C2841     1.0  0.82084  0.14310  0.89634  1.0000
  C   C2842     1.0  0.81353  0.13748  0.88828  1.0000
  C   C2843     1.0  0.81546  0.11713  0.88372  1.0000
  C   C2844     1.0  0.82484  0.10237  0.88753  1.0000
  C   C2845     1.0  0.83224  0.10812  0.89528  1.0000
  H   H5057     1.0  0.81924  0.15886  0.89957  1.0000
  H   H5058     1.0  0.80633  0.14906  0.88543  1.0000
  H   H5059     1.0  0.82649  0.08668  0.88413  1.0000
  H   H5060     1.0  0.83954  0.09669  0.89776  1.0000
  H   H5061     1.0  0.75192  0.48737  0.79888  1.0000
  H   H5062     1.0  0.76350  0.36936  0.72620  1.0000
  H   H5063     1.0  0.84592  0.33553  0.98286  1.0000
  C   C2846     1.0  0.80690  0.24550  0.94705  1.0000
  C   C2847     1.0  0.80100  0.28191  0.95223  1.0000
  H   H5064     1.0  0.74933  0.10686  0.66010  1.0000
  H   H5065     1.0  0.96391  0.44242  0.75728  1.0000
  H   H5066     1.0  0.76863  0.41366  0.89128  1.0000
  H   H5067     1.0  0.96346  0.41259  0.80108  1.0000
  H   H5068     1.0  0.76866  0.26392  0.96928  1.0000
  H   H5069     1.0  0.78019  0.99868  0.75509  1.0000
  C   C2848     1.0  0.75399  0.00084  0.74020  1.0000
  H   H5070     1.0  0.78072  0.18500  0.91181  1.0000
  H   H5071     1.0  0.92670  0.26321  0.93468  1.0000
  H   H5072     1.0  0.79791  0.29871  0.94639  1.0000
  H   H5073     1.0  0.81026  0.00692  0.69686  1.0000
  H   H5074     1.0  0.74470  0.31903  0.77746  1.0000
  H   H5075     1.0  0.98631  0.48100  0.84940  1.0000
  H   H5076     1.0  0.79455  0.18656  0.90105  1.0000
  H   H5077     1.0  0.74891  0.42682  0.92546  1.0000
  C   C2849     1.0  0.76773  0.09897  0.76729  1.0000
  C   C2850     1.0  0.77722  0.09983  0.77174  1.0000
  C   C2851     1.0  0.77817  0.09618  0.79277  1.0000
  C   C2852     1.0  0.76944  0.09271  0.80937  1.0000
  C   C2853     1.0  0.75980  0.09285  0.80477  1.0000
  C   C2854     1.0  0.75903  0.09538  0.78387  1.0000
  H   H5078     1.0  0.78386  0.10316  0.75888  1.0000
  H   H5079     1.0  0.78555  0.09662  0.79615  1.0000
  H   H5080     1.0  0.75288  0.09088  0.81729  1.0000
  H   H5081     1.0  0.75163  0.09495  0.78058  1.0000
  C   C2855     1.0  0.98526  0.49002  0.92174  1.0000
  H   H5082     1.0  0.76217  0.04750  0.82423  1.0000
  H   H5083     1.0  0.90275  0.29314  0.86358  1.0000
  H   H5084     1.0  0.89242  0.23104  0.89966  1.0000
  S   S654      1.0  0.88218  0.30095  0.97851  1.0000
  C   C2856     1.0  0.75597  0.03815  0.83291  1.0000
  H   H5085     1.0  0.88819  0.32305  0.87453  1.0000
  C   C2857     1.0  0.74242  0.10419  0.87392  1.0000
  N   N156      1.0  0.83215  0.28126  0.89332  1.0000
  C   C2858     1.0  0.82258  0.28485  0.88399  1.0000
  C   C2859     1.0  0.84050  0.26192  0.88757  1.0000
  C   C2860     1.0  0.82836  0.27649  0.91703  1.0000
  C   C2861     1.0  0.83691  0.30079  0.88695  1.0000
  C   C2862     1.0  0.84000  0.31027  0.86303  1.0000
  C   C2863     1.0  0.81366  0.30497  0.88777  1.0000
  C   C2864     1.0  0.83697  0.27182  0.93006  1.0000
  C   C2865     1.0  0.84170  0.25730  0.86562  1.0000
  C   C2866     1.0  0.85168  0.24016  0.86028  1.0000
  C   C2867     1.0  0.84301  0.33182  0.85910  1.0000
  C   C2868     1.0  0.80520  0.30887  0.87505  1.0000
  C   C2869     1.0  0.83202  0.26743  0.95365  1.0000
  H   H5086     1.0  0.81890  0.27057  0.89022  1.0000
  H   H5087     1.0  0.82493  0.28641  0.86667  1.0000
  H   H5088     1.0  0.84845  0.26293  0.88891  1.0000
  H   H5089     1.0  0.83884  0.24693  0.89908  1.0000
  H   H5090     1.0  0.82454  0.26244  0.92221  1.0000
  H   H5091     1.0  0.82214  0.28998  0.92225  1.0000
  H   H5092     1.0  0.83147  0.31367  0.89481  1.0000
  H   H5093     1.0  0.84435  0.29725  0.89278  1.0000
  H   H5094     1.0  0.83340  0.31298  0.85503  1.0000
  H   H5095     1.0  0.84708  0.29940  0.85564  1.0000
  H   H5096     1.0  0.80951  0.30309  0.90459  1.0000
  H   H5097     1.0  0.81689  0.31965  0.88297  1.0000
  H   H5098     1.0  0.84069  0.28570  0.92671  1.0000
  H   H5099     1.0  0.84329  0.25763  0.92670  1.0000
  H   H5100     1.0  0.83473  0.25125  0.86568  1.0000
  H   H5101     1.0  0.84217  0.27174  0.85280  1.0000
  H   H5102     1.0  0.85133  0.22492  0.87220  1.0000
  H   H5103     1.0  0.85229  0.23712  0.84459  1.0000
  H   H5104     1.0  0.85895  0.24545  0.85984  1.0000
  H   H5105     1.0  0.84541  0.33821  0.84188  1.0000
  H   H5106     1.0  0.83611  0.34358  0.86583  1.0000
  H   H5107     1.0  0.84977  0.33000  0.86649  1.0000
  H   H5108     1.0  0.80888  0.30919  0.85811  1.0000
  H   H5109     1.0  0.80039  0.29643  0.88151  1.0000
  H   H5110     1.0  0.79977  0.32468  0.87611  1.0000
  H   H5111     1.0  0.83829  0.26392  0.96262  1.0000
  H   H5112     1.0  0.82592  0.28161  0.95795  1.0000
  H   H5113     1.0  0.82831  0.25339  0.95824  1.0000
  N   N157      1.0  0.90516  0.39900  0.91439  1.0000
  C   C2870     1.0  0.90159  0.38658  0.93648  1.0000
  C   C2871     1.0  0.91109  0.38375  0.89990  1.0000
  C   C2872     1.0  0.91284  0.41151  0.91535  1.0000
  C   C2873     1.0  0.89599  0.41483  0.90587  1.0000
  C   C2874     1.0  0.88621  0.40614  0.90686  1.0000
  C   C2875     1.0  0.89592  0.40011  0.95340  1.0000
  C   C2876     1.0  0.91897  0.42262  0.89377  1.0000
  C   C2877     1.0  0.90700  0.36302  0.90358  1.0000
  C   C2878     1.0  0.91220  0.35161  0.88530  1.0000
  C   C2879     1.0  0.87694  0.42439  0.90115  1.0000
  H   H5114     1.0  0.75478  0.27530  0.85613  1.0000
  H   H5115     1.0  0.90859  0.37505  0.94200  1.0000
  H   H5116     1.0  0.89617  0.37643  0.93690  1.0000
  H   H5117     1.0  0.91146  0.39226  0.88309  1.0000
  H   H5118     1.0  0.91956  0.37787  0.90147  1.0000
  H   H5119     1.0  0.91899  0.40090  0.92415  1.0000
  H   H5120     1.0  0.90861  0.42424  0.92436  1.0000
  H   H5121     1.0  0.89312  0.42849  0.91397  1.0000
  H   H5122     1.0  0.89869  0.42223  0.88898  1.0000
  H   H5123     1.0  0.88323  0.39699  0.92280  1.0000
  H   H5124     1.0  0.88823  0.39597  0.89520  1.0000
  H   H5125     1.0  0.90165  0.40734  0.95677  1.0000
  H   H5126     1.0  0.88931  0.41305  0.94822  1.0000
  H   H5127     1.0  0.91355  0.43213  0.88314  1.0000
  H   H5128     1.0  0.92498  0.41051  0.88571  1.0000
  H   H5129     1.0  0.90903  0.35181  0.91818  1.0000
  H   H5130     1.0  0.89828  0.36595  0.90561  1.0000
  H   H5131     1.0  0.90985  0.36170  0.87052  1.0000
  H   H5132     1.0  0.92102  0.34794  0.88292  1.0000
  H   H5133     1.0  0.90959  0.33629  0.88893  1.0000
  H   H5134     1.0  0.87424  0.43492  0.91269  1.0000
  H   H5135     1.0  0.87930  0.43404  0.88502  1.0000
  H   H5136     1.0  0.87013  0.41763  0.90159  1.0000
  H   H5137     1.0  0.85317  0.26121  0.97358  1.0000
  H   H5138     1.0  0.76929  0.01896  0.76383  1.0000
  C   C2880     1.0  0.89115  0.38625  0.97412  1.0000
  C   C2881     1.0  0.75013  0.44358  0.78538  1.0000
  H   H5139     1.0  0.74667  0.10397  0.85733  1.0000
  C   C2882     1.0  0.74704  0.06029  0.86063  1.0000
  H   H5140     1.0  0.78040  0.04253  0.69072  1.0000
  C   C2883     1.0  0.75438  0.06091  0.88994  1.0000
  S   S655      1.0  0.82030  0.33420  0.96881  1.0000
  H   H5141     1.0  0.76078  0.37643  0.90741  1.0000
  H   H5142     1.0  0.79165  0.00862  0.71663  1.0000
  H   H5143     1.0  0.85839  0.22491  0.97486  1.0000
  S   S656      1.0  0.75219  0.48167  0.75736  1.0000
  H   H5144     1.0  0.97038  0.49050  0.87568  1.0000
  H   H5145     1.0  0.77598  0.28195  0.94922  1.0000
  C   C2884     1.0  0.76322  0.06589  0.91656  1.0000
  H   H5146     1.0  0.75193  0.07180  0.85055  1.0000
  H   H5147     1.0  0.75629  0.34087  0.92184  1.0000
  C   C2885     1.0  0.77696  0.00843  0.76710  1.0000
  C   C2886     1.0  0.75053  0.35532  0.92634  1.0000
  H   H5148     1.0  0.75916  0.07230  0.87875  1.0000
  H   H5149     1.0  0.75966  0.04504  0.88907  1.0000
  H   H5150     1.0  0.74942  0.33141  0.79285  1.0000
  H   H5151     1.0  0.76976  0.00244  0.80067  1.0000
  H   H5152     1.0  0.74877  0.04523  0.82613  1.0000
  H   H5153     1.0  0.74885  0.02537  0.86502  1.0000
  H   H5154     1.0  0.76113  0.03338  0.86138  1.0000
  H   H5155     1.0  0.75178  0.35717  0.71558  1.0000
  H   H5156     1.0  0.91919  0.45074  0.90429  1.0000
  H   H5157     1.0  0.75163  0.35685  0.94153  1.0000
  N   N158      1.0  0.74605  0.41690  0.89996  1.0000
  H   H5158     1.0  0.74604  0.40732  0.87201  1.0000
  H   H5159     1.0  0.89746  0.37310  0.98025  1.0000
  N   N159      1.0  0.74425  0.06293  0.88312  1.0000
  C   C2887     1.0  0.78652  0.19072  0.89738  1.0000
  H   H5160     1.0  0.80959  0.00224  0.86520  1.0000
  H   H5161     1.0  0.74823  0.10423  0.88289  1.0000
  H   H5162     1.0  0.76219  0.06605  0.93341  1.0000
  H   H5163     1.0  0.76526  0.08120  0.90671  1.0000
  N   N160      1.0  0.82945  0.13048  0.81492  1.0000
  C   C2888     1.0  0.83930  0.13469  0.81840  1.0000
  C   C2889     1.0  0.83043  0.13352  0.79154  1.0000
  C   C2890     1.0  0.81984  0.14581  0.82433  1.0000
  C   C2891     1.0  0.82820  0.10790  0.82548  1.0000
  C   C2892     1.0  0.83785  0.08976  0.81950  1.0000
  C   C2893     1.0  0.84035  0.12941  0.84171  1.0000
  C   C2894     1.0  0.80907  0.14623  0.81953  1.0000
  C   C2895     1.0  0.83057  0.15661  0.77830  1.0000
  C   C2896     1.0  0.83092  0.15791  0.75517  1.0000
  C   C2897     1.0  0.83564  0.06784  0.83169  1.0000
  C   C2898     1.0  0.85044  0.13474  0.84341  1.0000
  C   C2899     1.0  0.80000  0.16219  0.83011  1.0000
  H   H5164     1.0  0.83957  0.15189  0.81218  1.0000
  H   H5165     1.0  0.84663  0.12580  0.80927  1.0000
  H   H5166     1.0  0.83795  0.12323  0.78460  1.0000
  H   H5167     1.0  0.82396  0.12796  0.78855  1.0000
  H   H5168     1.0  0.82116  0.16244  0.81946  1.0000
  H   H5169     1.0  0.81863  0.14192  0.84179  1.0000
  H   H5170     1.0  0.82627  0.10574  0.84292  1.0000
  H   H5171     1.0  0.82126  0.10465  0.82182  1.0000
  H   H5172     1.0  0.84514  0.09130  0.82321  1.0000
  H   H5173     1.0  0.83948  0.08986  0.80246  1.0000
  H   H5174     1.0  0.83350  0.13883  0.85127  1.0000
  H   H5175     1.0  0.84078  0.11216  0.84892  1.0000
  H   H5176     1.0  0.80698  0.13031  0.82557  1.0000
  H   H5177     1.0  0.80929  0.15101  0.80236  1.0000
  H   H5178     1.0  0.82339  0.16831  0.78407  1.0000
  H   H5179     1.0  0.83772  0.16168  0.77883  1.0000
  H   H5180     1.0  0.82372  0.15365  0.75369  1.0000
  H   H5181     1.0  0.83112  0.17451  0.74597  1.0000
  H   H5182     1.0  0.83816  0.14693  0.74831  1.0000
  H   H5183     1.0  0.83404  0.06665  0.84898  1.0000
  H   H5184     1.0  0.82867  0.06507  0.82772  1.0000
  H   H5185     1.0  0.84264  0.05505  0.82736  1.0000
  H   H5186     1.0  0.85764  0.12529  0.83459  1.0000
  H   H5187     1.0  0.85027  0.15210  0.83723  1.0000
  H   H5188     1.0  0.85094  0.13072  0.86027  1.0000
  H   H5189     1.0  0.79921  0.15778  0.84752  1.0000
  H   H5190     1.0  0.80145  0.17867  0.82404  1.0000
  H   H5191     1.0  0.79237  0.16193  0.82675  1.0000
  H   H5192     1.0  0.80497  0.00830  0.81876  1.0000
  C   C2900     1.0  0.74227  0.01385  0.65655  1.0000
  H   H5193     1.0  0.73798  0.08162  0.68064  1.0000
  C   C2901     1.0  0.74594  0.36299  0.75851  1.0000
  N   N161      1.0  0.78042  0.25125  0.89963  1.0000
  C   C2902     1.0  0.78857  0.25852  0.88029  1.0000
  C   C2903     1.0  0.76923  0.26093  0.89595  1.0000
  C   C2904     1.0  0.78159  0.25956  0.91739  1.0000
  C   C2905     1.0  0.78226  0.22715  0.90636  1.0000
  C   C2906     1.0  0.78311  0.21489  0.88933  1.0000
  C   C2907     1.0  0.77294  0.25671  0.93814  1.0000
  C   C2908     1.0  0.77525  0.26497  0.95506  1.0000
  H   H5194     1.0  0.74235  0.35309  0.92837  1.0000
  C   C2909     1.0  0.95975  0.42300  0.78790  1.0000
  C   C2910     1.0  0.74165  0.08079  0.66392  1.0000
  H   H5195     1.0  0.78698  0.27638  0.87609  1.0000
  H   H5196     1.0  0.78785  0.25385  0.86629  1.0000
  H   H5197     1.0  0.76354  0.25123  0.90693  1.0000
  H   H5198     1.0  0.76633  0.27710  0.89978  1.0000
  H   H5199     1.0  0.78166  0.27695  0.91208  1.0000
  H   H5200     1.0  0.93376  0.25172  0.83747  1.0000
  H   H5201     1.0  0.77570  0.22231  0.91959  1.0000
  H   H5202     1.0  0.78908  0.21941  0.87480  1.0000
  C   C2911     1.0  0.80896  0.23838  0.96732  1.0000
  H   H5203     1.0  0.77265  0.23962  0.94468  1.0000
  H   H5204     1.0  0.76493  0.26574  0.93551  1.0000
  H   H5205     1.0  0.75475  0.42205  0.83376  1.0000
  H   H5206     1.0  0.85911  0.31493  0.96155  1.0000
  N   N162      1.0  0.74646  0.37856  0.73747  1.0000
  H   H5207     1.0  0.77146  0.27778  0.86264  1.0000
  H   H5208     1.0  0.77849  0.42087  0.91342  1.0000
  C   C2912     1.0  0.97365  0.47576  0.74600  1.0000
  H   H5209     1.0  0.85415  0.29749  0.95220  1.0000
  H   H5210     1.0  0.86219  0.18529  0.98006  1.0000
  S   S657      1.0  0.80254  0.29344  0.98696  1.0000
  N   N163      1.0  0.90978  0.25391  0.89397  1.0000
  C   C2913     1.0  0.91491  0.26102  0.90742  1.0000
  C   C2914     1.0  0.89913  0.26899  0.89249  1.0000
  C   C2915     1.0  0.90770  0.23194  0.90538  1.0000
  C   C2916     1.0  0.91668  0.25254  0.87226  1.0000
  C   C2917     1.0  0.92418  0.26859  0.86227  1.0000
  C   C2918     1.0  0.92501  0.24511  0.91380  1.0000
  C   C2919     1.0  0.90094  0.22281  0.89603  1.0000
  C   C2920     1.0  0.89928  0.29242  0.88064  1.0000
  C   C2921     1.0  0.88795  0.30612  0.88244  1.0000
  C   C2922     1.0  0.92915  0.26808  0.83909  1.0000
  C   C2923     1.0  0.93158  0.25604  0.92110  1.0000
  C   C2924     1.0  0.90145  0.19900  0.90569  1.0000
  H   H5211     1.0  0.90914  0.26363  0.92245  1.0000
  H   H5212     1.0  0.91693  0.27687  0.89977  1.0000
  H   H5213     1.0  0.89468  0.26341  0.88414  1.0000
  H   H5214     1.0  0.89414  0.26923  0.90864  1.0000
  H   H5215     1.0  0.90363  0.23185  0.92217  1.0000
  H   H5216     1.0  0.91536  0.21998  0.90593  1.0000
  H   H5217     1.0  0.92198  0.23633  0.87239  1.0000
  H   H5218     1.0  0.91160  0.25433  0.86102  1.0000
  H   H5219     1.0  0.93081  0.26439  0.87058  1.0000
  H   H5220     1.0  0.92003  0.28527  0.86311  1.0000
  H   H5221     1.0  0.92260  0.23198  0.92712  1.0000
  H   H5222     1.0  0.93019  0.23777  0.90056  1.0000
  H   H5223     1.0  0.90373  0.22484  0.87867  1.0000
  H   H5224     1.0  0.90968  0.18953  0.90144  1.0000
  H   H5225     1.0  0.81022  0.07004  0.74864  1.0000
  H   H5226     1.0  0.81217  0.22160  0.97309  1.0000
  H   H5227     1.0  0.89882  0.19624  0.92315  1.0000
  C   C2925     1.0  0.85963  0.29800  0.96171  1.0000
  H   H5228     1.0  0.79656  0.04014  0.78126  1.0000
  C   C2926     1.0  0.75341  0.03797  0.85649  1.0000
  H   H5229     1.0  0.74673  0.41644  0.74936  1.0000
  Fe  Fe326     1.0  0.74196  0.33255  0.83744  1.0000
  H   H5230     1.0  0.76990  0.05241  0.91266  1.0000
  H   H5231     1.0  0.79079  0.01178  0.77591  1.0000
  C   C2927     1.0  0.76999  0.42902  0.91408  1.0000
  H   H5232     1.0  0.80791  0.03244  0.76104  1.0000
  C   C2928     1.0  0.94617  0.47987  0.82281  1.0000
  H   H5233     1.0  0.95638  0.41301  0.78184  1.0000
  C   C2929     1.0  0.73850  0.04605  0.89773  1.0000
  S   S658      1.0  0.76323  0.38095  0.78517  1.0000
  H   H5234     1.0  0.75075  0.04876  0.92424  1.0000
  C   C2930     1.0  0.80101  0.04547  0.76492  1.0000
  C   C2931     1.0  0.80550  0.06436  0.76459  1.0000
  C   C2932     1.0  0.80040  0.25023  0.88204  1.0000
  H   H5235     1.0  0.80625  0.27333  0.85415  1.0000
  H   H5236     1.0  0.80455  0.00925  0.74774  1.0000
  H   H5237     1.0  0.81628  0.25049  0.86263  1.0000
  H   H5238     1.0  0.76628  0.43094  0.93052  1.0000
  C   C2933     1.0  0.78468  0.02215  0.76697  1.0000
  H   H5239     1.0  0.74712  0.37020  0.77048  1.0000
  C   C2934     1.0  0.80337  0.27491  0.97226  1.0000
  H   H5240     1.0  0.76511  0.39982  0.91851  1.0000
  C   C2935     1.0  0.78652  0.05637  0.70944  1.0000
  H   H5241     1.0  0.77980  0.03398  0.77677  1.0000
  H   H5242     1.0  0.81080  0.05936  0.77594  1.0000
  H   H5243     1.0  0.75145  0.25890  0.88215  1.0000
  H   H5244     1.0  0.80239  0.23260  0.88762  1.0000
  Fe  Fe327     1.0  0.74464  0.47442  0.69144  1.0000
  S   S659      1.0  0.79502  0.35584  0.96666  1.0000
  C   C2936     1.0  0.81971  0.01507  0.79818  1.0000
  C   C2937     1.0  0.75738  0.38372  0.73005  1.0000
  H   H5245     1.0  0.77133  0.06518  0.70018  1.0000
  C   C2938     1.0  0.98291  0.47213  0.91818  1.0000
  H   H5246     1.0  0.79900  0.07771  0.76933  1.0000
  C   C2939     1.0  0.80791  0.25579  0.86068  1.0000
  H   H5247     1.0  0.79479  0.04888  0.70263  1.0000
  S   S660      1.0  0.95585  0.44031  0.90483  1.0000
  C   C2940     1.0  0.79800  0.00210  0.72568  1.0000
  H   H5248     1.0  0.80212  0.25770  0.89316  1.0000
  H   H5249     1.0  0.83419  0.01828  0.77490  1.0000
  H   H5250     1.0  0.77533  0.38909  0.69687  1.0000
  C   C2941     1.0  0.79980  0.01873  0.73581  1.0000
  N   N164      1.0  0.79003  0.03354  0.74565  1.0000
  C   C2942     1.0  0.79360  0.05176  0.74907  1.0000
  H   H5251     1.0  0.80532  0.02816  0.72380  1.0000
  H   H5252     1.0  0.97744  0.43566  0.78974  1.0000
  C   C2943     1.0  0.77548  0.00311  0.93647  1.0000
  H   H5253     1.0  0.74025  0.02628  0.77652  1.0000
  S   S661      1.0  0.75771  0.03146  0.70409  1.0000
  H   H5254     1.0  0.79788  0.06037  0.73388  1.0000
  N   N165      1.0  0.97994  0.46081  0.76176  1.0000
  H   H5255     1.0  0.80700  0.24747  0.84932  1.0000
  C   C2944     1.0  0.75878  0.40230  0.71039  1.0000
  C   C2945     1.0  0.81113  0.00464  0.80522  1.0000
  H   H5256     1.0  0.77731  0.99983  0.70361  1.0000
  H   H5257     1.0  0.88506  0.37926  0.97163  1.0000
  H   H5258     1.0  0.97435  0.41975  0.76474  1.0000
  C   C2946     1.0  0.77043  0.40391  0.70207  1.0000
  H   H5259     1.0  0.76042  0.44514  0.82789  1.0000
  H   H5260     1.0  0.77094  0.25025  0.86654  1.0000
  C   C2947     1.0  0.78212  0.04340  0.73163  1.0000
  H   H5261     1.0  0.77521  0.05447  0.73944  1.0000
  H   H5262     1.0  0.77846  0.03127  0.72956  1.0000
  C   C2948     1.0  0.76026  0.40897  0.77836  1.0000
  H   H5263     1.0  0.77105  0.41768  0.68835  1.0000
  C   C2949     1.0  0.76557  0.41921  0.75888  1.0000
  H   H5264     1.0  0.87253  0.19361  0.98623  1.0000
  Fe  Fe328     1.0  0.75469  0.36654  0.81727  1.0000
  H   H5265     1.0  0.78643  0.07277  0.71063  1.0000
  Fe  Fe329     1.0  0.95354  0.45254  0.87168  1.0000
  H   H5266     1.0  0.75782  0.44347  0.86596  1.0000
  C   C2950     1.0  0.75293  0.06332  0.91284  1.0000
  C   C2951     1.0  0.75154  0.32479  0.77847  1.0000
  H   H5267     1.0  0.73829  0.13889  0.86679  1.0000
  H   H5268     1.0  0.74898  0.03770  0.66046  1.0000
  H   H5269     1.0  0.97531  0.49269  0.83643  1.0000
  H   H5270     1.0  0.77364  0.40661  0.71438  1.0000
  S   S662      1.0  0.97095  0.44776  0.85718  1.0000
  C   C2952     1.0  0.92486  0.43794  0.89670  1.0000
  H   H5271     1.0  0.83475  0.35686  0.97699  1.0000
  C   C2953     1.0  0.82685  0.99574  0.76975  1.0000
  C   C2954     1.0  0.75445  0.34173  0.75873  1.0000
  C   C2955     1.0  0.76297  0.44152  0.75233  1.0000
  S   S663      1.0  0.75957  0.33082  0.82715  1.0000
  C   C2956     1.0  0.95148  0.48915  0.92318  1.0000
  C   C2957     1.0  0.75925  0.43008  0.83961  1.0000
  H   H5272     1.0  0.94605  0.46313  0.82940  1.0000
  H   H5273     1.0  0.75199  0.44383  0.90048  1.0000
  H   H5274     1.0  0.77171  0.40984  0.74885  1.0000
  C   C2958     1.0  0.74462  0.36912  0.72117  1.0000
  H   H5275     1.0  0.77895  0.01376  0.88316  1.0000
  H   H5276     1.0  0.86795  0.29114  0.95447  1.0000
  Fe  Fe330     1.0  0.75868  0.33711  0.85863  1.0000
  C   C2959     1.0  0.76136  0.00751  0.72198  1.0000
  C   C2960     1.0  0.74425  0.39554  0.91409  1.0000
  H   H5277     1.0  0.74828  0.41322  0.80659  1.0000
  S   S664      1.0  0.75507  0.37290  0.84796  1.0000
  C   C2961     1.0  0.75245  0.42667  0.90852  1.0000
  C   C2962     1.0  0.77978  0.05844  0.69379  1.0000
  C   C2963     1.0  0.78039  0.00876  0.91517  1.0000
  S   S665      1.0  0.97886  0.40330  0.82705  1.0000
  H   H5278     1.0  0.96631  0.45729  0.78751  1.0000
  Fe  Fe331     1.0  0.80936  0.36666  0.96746  1.0000
  Fe  Fe332     1.0  0.74959  0.49032  0.72442  1.0000
  Fe  Fe333     1.0  0.73800  0.37012  0.85735  1.0000
  H   H5279     1.0  0.74605  0.01066  0.74351  1.0000
  C   C2964     1.0  0.75531  0.45374  0.76562  1.0000
  C   C2965     1.0  0.73929  0.02243  0.79346  1.0000
  C   C2966     1.0  0.75573  0.27174  0.87267  1.0000
  H   H5280     1.0  0.73973  0.34151  0.70227  1.0000
  C   C2967     1.0  0.96802  0.43307  0.77018  1.0000
  H   H5281     1.0  0.75192  0.37208  0.89410  1.0000
  H   H5282     1.0  0.95315  0.43558  0.79404  1.0000
  C   C2968     1.0  0.75254  0.37508  0.90907  1.0000
  H   H5283     1.0  0.93079  0.42916  0.90653  1.0000
  H   H5284     1.0  0.75311  0.49011  0.82381  1.0000
  H   H5285     1.0  0.76708  0.44930  0.73719  1.0000
  C   C2969     1.0  0.76434  0.41566  0.90743  1.0000
  H   H5286     1.0  0.95963  0.47887  0.92139  1.0000
  H   H5287     1.0  0.80103  0.27274  0.92407  1.0000
  C   C2970     1.0  0.80266  0.26718  0.93971  1.0000
  H   H5288     1.0  0.97729  0.46372  0.93004  1.0000
  C   C2971     1.0  0.97292  0.44707  0.77815  1.0000
  H   H5289     1.0  0.76720  0.41952  0.84082  1.0000
  H   H5290     1.0  0.75206  0.28650  0.87895  1.0000
  H   H5291     1.0  0.76971  0.44503  0.90327  1.0000
  H   H5292     1.0  0.97176  0.46700  0.73624  1.0000
  H   H5293     1.0  0.97557  0.48603  0.77920  1.0000
  S   S666      1.0  0.76008  0.47687  0.69670  1.0000
  C   C2972     1.0  0.82756  0.01034  0.78051  1.0000
  C   C2973     1.0  0.75112  0.41440  0.87758  1.0000
  C   C2974     1.0  0.75310  0.43514  0.86101  1.0000
  C   C2975     1.0  0.94755  0.48789  0.80091  1.0000
  S   S667      1.0  0.74156  0.33478  0.87016  1.0000
  H   H5294     1.0  0.74663  0.07741  0.91651  1.0000
  C   C2976     1.0  0.80701  0.25306  0.98009  1.0000
  H   H5295     1.0  0.78689  0.18221  0.88509  1.0000
  C   C2977     1.0  0.98280  0.47437  0.77311  1.0000
  H   H5296     1.0  0.77663  0.00823  0.83490  1.0000
  H   H5297     1.0  0.74418  0.45301  0.79565  1.0000
  S   S668      1.0  0.74328  0.44554  0.68210  1.0000
  C   C2978     1.0  0.76539  0.00303  0.90537  1.0000
  C   C2979     1.0  0.74571  0.00405  0.80314  1.0000
  H   H5298     1.0  0.74199  0.00591  0.67340  1.0000
  H   H5299     1.0  0.88724  0.39619  0.98606  1.0000
  H   H5300     1.0  0.75543  0.33490  0.74492  1.0000
  C   C2980     1.0  0.74448  0.99874  0.82505  1.0000
  H   H5301     1.0  0.98258  0.43465  0.73329  1.0000
  C   C2981     1.0  0.85660  0.28592  0.98442  1.0000
  H   H5302     1.0  0.77940  0.00298  0.94856  1.0000
  H   H5303     1.0  0.94569  0.47874  0.92689  1.0000
  H   H5304     1.0  0.96575  0.48355  0.75446  1.0000
  H   H5305     1.0  0.74356  0.39560  0.93089  1.0000
  C   C2982     1.0  0.85730  0.26200  0.98543  1.0000
  C   C2983     1.0  0.76033  0.99808  0.92667  1.0000
  S   S669      1.0  0.94262  0.48439  0.86357  1.0000
  C   C2984     1.0  0.76535  0.99832  0.94220  1.0000
  C   C2985     1.0  0.94467  0.49370  0.83618  1.0000
  C   C2986     1.0  0.73892  0.41190  0.75427  1.0000
  C   C2987     1.0  0.97895  0.49389  0.73071  1.0000
  H   H5306     1.0  0.97391  0.49380  0.70267  1.0000
  H   H5307     1.0  0.98698  0.49082  0.80228  1.0000
  H   H5308     1.0  0.73793  0.40305  0.77097  1.0000
  H   H5309     1.0  0.73784  0.35947  0.76488  1.0000
  C   C2988     1.0  0.73785  0.39840  0.73989  1.0000
  H   H5310     1.0  0.92142  0.49493  0.78708  1.0000
  H   H5311     1.0  0.74952  0.84129  0.03831  1.0000
  S   S670      1.0  0.77084  0.90754  0.22661  1.0000
  H   H5312     1.0  0.86577  0.93090  0.17350  1.0000
  Fe  Fe334     1.0  0.77101  0.87992  0.21365  1.0000
  S   S671      1.0  0.78530  0.85265  0.20935  1.0000
  H   H5313     1.0  0.79165  0.94600  0.23986  1.0000
  C   C2989     1.0  0.77341  0.79683  0.20862  1.0000
  S   S672      1.0  0.81506  0.88139  0.27459  1.0000
  S   S673      1.0  0.83836  0.90300  0.28068  1.0000
  C   C2990     1.0  0.96349  0.51828  0.21511  1.0000
  N   N166      1.0  0.97284  0.52756  0.21369  1.0000
  Fe  Fe335     1.0  0.81795  0.84635  0.28868  1.0000
  S   S674      1.0  0.81948  0.82534  0.26656  1.0000
  C   C2991     1.0  0.78216  0.96415  0.19393  1.0000
  H   H5314     1.0  0.80939  0.93843  0.21784  1.0000
  H   H5315     1.0  0.74807  0.84800  0.21300  1.0000
  C   C2992     1.0  0.77046  0.92965  0.32027  1.0000
  S   S675      1.0  0.74609  0.92605  0.22007  1.0000
  C   C2993     1.0  0.95787  0.56504  0.25384  1.0000
  H   H5316     1.0  0.77781  0.95793  0.20938  1.0000
  H   H5317     1.0  0.82998  0.94337  0.15457  1.0000
  H   H5318     1.0  0.74637  0.55113  0.30768  1.0000
  H   H5319     1.0  0.77240  0.53658  0.28665  1.0000
  C   C2994     1.0  0.83352  0.93085  0.27397  1.0000
  C   C2995     1.0  0.82373  0.93982  0.26788  1.0000
  H   H5320     1.0  0.96653  0.56153  0.21260  1.0000
  Fe  Fe336     1.0  0.76260  0.92756  0.20065  1.0000
  H   H5321     1.0  0.76713  0.99398  0.20994  1.0000
  C   C2996     1.0  0.84011  0.94422  0.27315  1.0000
  H   H5322     1.0  0.81859  0.92953  0.26856  1.0000
  H   H5323     1.0  0.95216  0.54781  0.23832  1.0000
  C   C2997     1.0  0.95960  0.54630  0.24343  1.0000
  H   H5324     1.0  0.84762  0.93740  0.27798  1.0000
  H   H5325     1.0  0.81854  0.95008  0.14285  1.0000
  C   C2998     1.0  0.79370  0.97967  0.15383  1.0000
  C   C2999     1.0  0.75106  0.51309  0.29874  1.0000
  H   H5326     1.0  0.88065  0.89963  0.16700  1.0000
  C   C3000     1.0  0.73955  0.78373  0.18765  1.0000
  H   H5327     1.0  0.84822  0.94285  0.18851  1.0000
  H   H5328     1.0  0.75928  0.86081  0.18458  1.0000
  C   C3001     1.0  0.79442  0.84557  0.22599  1.0000
  C   C3002     1.0  0.80285  0.82781  0.22383  1.0000
  C   C3003     1.0  0.81040  0.82176  0.23645  1.0000
  C   C3004     1.0  0.80960  0.83335  0.25144  1.0000
  C   C3005     1.0  0.80116  0.85116  0.25371  1.0000
  C   C3006     1.0  0.79362  0.85734  0.24088  1.0000
  H   H5329     1.0  0.80357  0.81868  0.21232  1.0000
  H   H5330     1.0  0.81689  0.80802  0.23457  1.0000
  H   H5331     1.0  0.80038  0.86014  0.26537  1.0000
  H   H5332     1.0  0.78717  0.87110  0.24265  1.0000
  H   H5333     1.0  0.79718  0.90130  0.14822  1.0000
  C   C3007     1.0  0.96917  0.54663  0.22408  1.0000
  C   C3008     1.0  0.79766  0.93218  0.24604  1.0000
  H   H5334     1.0  0.74445  0.81323  0.17221  1.0000
  H   H5335     1.0  0.77688  0.84615  0.27438  1.0000
  H   H5336     1.0  0.76513  0.86166  0.14581  1.0000
  H   H5337     1.0  0.77364  0.94072  0.24371  1.0000
  C   C3009     1.0  0.96597  0.49866  0.20499  1.0000
  H   H5338     1.0  0.75384  0.53801  0.25617  1.0000
  H   H5339     1.0  0.84235  0.97652  0.26519  1.0000
  H   H5340     1.0  0.86774  0.89383  0.20113  1.0000
  N   N167      1.0  0.75478  0.81839  0.20219  1.0000
  Fe  Fe337     1.0  0.75442  0.90338  0.24479  1.0000
  S   S676      1.0  0.74938  0.90161  0.27974  1.0000
  H   H5341     1.0  0.78178  0.85598  0.30272  1.0000
  H   H5342     1.0  0.83788  0.94894  0.22528  1.0000
  H   H5343     1.0  0.78398  0.91709  0.15563  1.0000
  H   H5344     1.0  0.80134  0.93739  0.25610  1.0000
  H   H5345     1.0  0.87585  0.91422  0.14348  1.0000
  C   C3010     1.0  0.76530  0.84724  0.17900  1.0000
  S   S677      1.0  0.94751  0.53270  0.31421  1.0000
  H   H5346     1.0  0.87216  0.88912  0.15745  1.0000
  H   H5347     1.0  0.78773  0.89024  0.17068  1.0000
  H   H5348     1.0  0.95735  0.53096  0.20778  1.0000
  H   H5349     1.0  0.77138  0.84193  0.18869  1.0000
  C   C3011     1.0  0.76842  0.94634  0.25783  1.0000
  H   H5350     1.0  0.76432  0.51992  0.22539  1.0000
  H   H5351     1.0  0.75231  0.84756  0.06032  1.0000
  H   H5352     1.0  0.75088  0.60597  0.27882  1.0000
  H   H5353     1.0  0.74306  0.55531  0.28310  1.0000
  H   H5354     1.0  0.98511  0.49861  0.21344  1.0000
  C   C3012     1.0  0.74586  0.84772  0.05281  1.0000
  H   H5355     1.0  0.77731  0.84256  0.15036  1.0000
  H   H5356     1.0  0.74404  0.59132  0.30294  1.0000
  H   H5357     1.0  0.76179  0.56979  0.28954  1.0000
  C   C3013     1.0  0.77851  0.96513  0.17610  1.0000
  C   C3014     1.0  0.82547  0.93721  0.14683  1.0000
  N   N168      1.0  0.75713  0.53054  0.28753  1.0000
  H   H5358     1.0  0.77504  0.49697  0.22997  1.0000
  H   H5359     1.0  0.77266  0.97382  0.28623  1.0000
  C   C3015     1.0  0.74603  0.93140  0.30281  1.0000
  N   N169      1.0  0.85189  0.91269  0.21083  1.0000
  C   C3016     1.0  0.84413  0.93064  0.20009  1.0000
  C   C3017     1.0  0.86046  0.90191  0.19471  1.0000
  C   C3018     1.0  0.84572  0.89623  0.22512  1.0000
  C   C3019     1.0  0.98152  0.51100  0.22299  1.0000
  H   H5360     1.0  0.93877  0.59540  0.31964  1.0000
  C   C3020     1.0  0.83486  0.94299  0.21476  1.0000
  C   C3021     1.0  0.85238  0.87560  0.23682  1.0000
  Fe  Fe338     1.0  0.80266  0.88331  0.30423  1.0000
  C   C3022     1.0  0.74220  0.80428  0.18868  1.0000
  C   C3023     1.0  0.75516  0.57148  0.28189  1.0000
  C   C3024     1.0  0.82852  0.96251  0.20197  1.0000
  C   C3025     1.0  0.84556  0.85919  0.24876  1.0000
  H   H5361     1.0  0.84053  0.92430  0.19067  1.0000
  C   C3026     1.0  0.76690  0.52595  0.29649  1.0000
  C   C3027     1.0  0.98599  0.57774  0.26057  1.0000
  H   H5362     1.0  0.85782  0.88885  0.19146  1.0000
  H   H5363     1.0  0.84137  0.89132  0.21600  1.0000
  H   H5364     1.0  0.83950  0.90312  0.23769  1.0000
  H   H5365     1.0  0.78220  0.80628  0.22615  1.0000
  C   C3028     1.0  0.74318  0.92631  0.28668  1.0000
  C   C3029     1.0  0.79711  0.97947  0.17170  1.0000
  H   H5366     1.0  0.74006  0.84178  0.19977  1.0000
  H   H5367     1.0  0.82923  0.93271  0.22450  1.0000
  S   S678      1.0  0.80910  0.98715  0.16865  1.0000
  H   H5368     1.0  0.85553  0.87938  0.24864  1.0000
  H   H5369     1.0  0.85919  0.86781  0.22580  1.0000
  H   H5370     1.0  0.79389  0.97164  0.20563  1.0000
  H   H5371     1.0  0.77456  0.86877  0.15581  1.0000
  H   H5372     1.0  0.75818  0.78851  0.19233  1.0000
  H   H5373     1.0  0.81343  0.96898  0.25488  1.0000
  H   H5374     1.0  0.98124  0.52169  0.18263  1.0000
  C   C3030     1.0  0.98633  0.54831  0.18562  1.0000
  H   H5375     1.0  0.95947  0.51296  0.23180  1.0000
  C   C3031     1.0  0.76282  0.96982  0.25200  1.0000
  H   H5376     1.0  0.83356  0.97426  0.19311  1.0000
  Fe  Fe339     1.0  0.74801  0.89692  0.20750  1.0000
  H   H5377     1.0  0.82166  0.97045  0.21279  1.0000
  H   H5378     1.0  0.84277  0.85349  0.23770  1.0000
  H   H5379     1.0  0.85029  0.84518  0.25804  1.0000
  H   H5380     1.0  0.83855  0.86632  0.25986  1.0000
  H   H5381     1.0  0.76395  0.82498  0.22072  1.0000
  H   H5382     1.0  0.85739  0.92068  0.16384  1.0000
  C   C3032     1.0  0.74167  0.95149  0.30789  1.0000
  C   C3033     1.0  0.74070  0.51505  0.29156  1.0000
  S   S679      1.0  0.75525  0.87404  0.23380  1.0000
  C   C3034     1.0  0.76069  0.53124  0.26412  1.0000
  S   S680      1.0  0.76388  0.90018  0.18608  1.0000
  H   H5383     1.0  0.74719  0.86973  0.13308  1.0000
  H   H5384     1.0  0.95630  0.58054  0.24243  1.0000
  H   H5385     1.0  0.79360  0.91917  0.25593  1.0000
  H   H5386     1.0  0.76618  0.54241  0.25660  1.0000
  H   H5387     1.0  0.75826  0.97481  0.26695  1.0000
  C   C3035     1.0  0.82085  0.96211  0.26003  1.0000
  H   H5388     1.0  0.74789  0.50931  0.24176  1.0000
  H   H5389     1.0  0.96496  0.56402  0.25985  1.0000
  H   H5390     1.0  0.97820  0.58674  0.29037  1.0000
  H   H5391     1.0  0.76256  0.93605  0.26533  1.0000
  H   H5392     1.0  0.80873  0.93753  0.17894  1.0000
  H   H5393     1.0  0.97594  0.54945  0.22873  1.0000
  H   H5394     1.0  0.95091  0.56453  0.26741  1.0000
  H   H5395     1.0  0.77191  0.87429  0.27442  1.0000
  H   H5396     1.0  0.96066  0.53140  0.25562  1.0000
  C   C3036     1.0  0.86244  0.93910  0.21320  1.0000
  H   H5397     1.0  0.75935  0.96365  0.22476  1.0000
  H   H5398     1.0  0.86287  0.90701  0.23110  1.0000
  C   C3037     1.0  0.79126  0.97192  0.19179  1.0000
  S   S681      1.0  0.76644  0.95800  0.17836  1.0000
  H   H5399     1.0  0.85718  0.95306  0.20513  1.0000
  C   C3038     1.0  0.74111  0.88014  0.16255  1.0000
  N   N170      1.0  0.80926  0.90515  0.19739  1.0000
  C   C3039     1.0  0.80306  0.89700  0.18679  1.0000
  C   C3040     1.0  0.81725  0.88686  0.20729  1.0000
  C   C3041     1.0  0.80140  0.91471  0.21500  1.0000
  C   C3042     1.0  0.81469  0.92240  0.18246  1.0000
  C   C3043     1.0  0.82170  0.91733  0.16128  1.0000
  C   C3044     1.0  0.79446  0.91404  0.17618  1.0000
  C   C3045     1.0  0.80617  0.92436  0.22787  1.0000
  C   C3046     1.0  0.82233  0.86787  0.19602  1.0000
  C   C3047     1.0  0.83159  0.85274  0.20529  1.0000
  C   C3048     1.0  0.83713  0.96636  0.26586  1.0000
  C   C3049     1.0  0.79062  0.90502  0.16181  1.0000
  H   H5400     1.0  0.76298  0.85592  0.28472  1.0000
  H   H5401     1.0  0.79897  0.88474  0.19849  1.0000
  H   H5402     1.0  0.80842  0.88855  0.17449  1.0000
  H   H5403     1.0  0.82378  0.89292  0.20934  1.0000
  H   H5404     1.0  0.81349  0.87935  0.22363  1.0000
  H   H5405     1.0  0.79707  0.90251  0.22621  1.0000
  H   H5406     1.0  0.79516  0.92782  0.20881  1.0000
  C   C3050     1.0  0.97860  0.55373  0.29218  1.0000
  H   H5407     1.0  0.81998  0.92656  0.19009  1.0000
  H   H5408     1.0  0.81731  0.91204  0.15263  1.0000
  H   H5409     1.0  0.82890  0.90484  0.16410  1.0000
  H   H5410     1.0  0.78742  0.91917  0.18835  1.0000
  H   H5411     1.0  0.79750  0.92834  0.16637  1.0000
  C   C3051     1.0  0.77116  0.85783  0.28333  1.0000
  H   H5412     1.0  0.81265  0.91239  0.23456  1.0000
  H   H5413     1.0  0.81628  0.85845  0.19812  1.0000
  H   H5414     1.0  0.82537  0.87327  0.17890  1.0000
  H   H5415     1.0  0.83824  0.86093  0.20214  1.0000
  H   H5416     1.0  0.82895  0.84702  0.22258  1.0000
  H   H5417     1.0  0.83454  0.83857  0.19797  1.0000
  H   H5418     1.0  0.83072  0.93320  0.13192  1.0000
  C   C3052     1.0  0.76556  0.86925  0.31859  1.0000
  H   H5419     1.0  0.98331  0.56304  0.19204  1.0000
  H   H5420     1.0  0.74151  0.88194  0.07182  1.0000
  H   H5421     1.0  0.77347  0.94431  0.26908  1.0000
  H   H5422     1.0  0.82542  0.95778  0.19070  1.0000
  C   C3053     1.0  0.73851  0.82579  0.23282  1.0000
  C   C3054     1.0  0.78067  0.79142  0.22419  1.0000
  H   H5423     1.0  0.78844  0.78130  0.21811  1.0000
  C   C3055     1.0  0.78427  0.97309  0.15605  1.0000
  H   H5424     1.0  0.86976  0.93381  0.20166  1.0000
  C   C3056     1.0  0.77951  0.98099  0.27649  1.0000
  H   H5425     1.0  0.73967  0.91661  0.05022  1.0000
  C   C3057     1.0  0.85680  0.92027  0.22430  1.0000
  H   H5426     1.0  0.74806  0.88601  0.16145  1.0000
  S   S682      1.0  0.78700  0.90405  0.29983  1.0000
  Fe  Fe340     1.0  0.82615  0.88264  0.29332  1.0000
  H   H5427     1.0  0.74065  0.83706  0.06384  1.0000
  C   C3058     1.0  0.76666  0.50965  0.25778  1.0000
  H   H5428     1.0  0.75382  0.83619  0.17045  1.0000
  H   H5429     1.0  0.77674  0.52328  0.22850  1.0000
  H   H5430     1.0  0.80485  0.93553  0.31455  1.0000
  H   H5431     1.0  0.77700  0.78253  0.23982  1.0000
  H   H5432     1.0  0.79485  0.98296  0.27842  1.0000
  H   H5433     1.0  0.98026  0.52160  0.28893  1.0000
  C   C3059     1.0  0.86591  0.94680  0.22909  1.0000
  C   C3060     1.0  0.82765  0.97537  0.25878  1.0000
  H   H5434     1.0  0.78147  0.97400  0.14217  1.0000
  C   C3061     1.0  0.80185  0.96847  0.31807  1.0000
  H   H5435     1.0  0.76904  0.97929  0.24449  1.0000
  H   H5436     1.0  0.75524  0.90720  0.99144  1.0000
  C   C3062     1.0  0.74209  0.50129  0.24096  1.0000
  H   H5437     1.0  0.75830  0.57366  0.26460  1.0000
  H   H5438     1.0  0.77767  0.80499  0.19325  1.0000
  H   H5439     1.0  0.77155  0.50936  0.29586  1.0000
  S   S683      1.0  0.83047  0.84697  0.30501  1.0000
  H   H5440     1.0  0.87119  0.93347  0.23789  1.0000
  C   C3063     1.0  0.78370  0.98463  0.30957  1.0000
  H   H5441     1.0  0.98388  0.56554  0.15418  1.0000
  S   S684      1.0  0.97215  0.54915  0.31898  1.0000
  C   C3064     1.0  0.86391  0.91605  0.17256  1.0000
  N   N171      1.0  0.79183  0.98574  0.32075  1.0000
  C   C3065     1.0  0.77089  0.85551  0.15632  1.0000
  C   C3066     1.0  0.75987  0.82898  0.18030  1.0000
  H   H5442     1.0  0.97589  0.51058  0.25675  1.0000
  H   H5443     1.0  0.74426  0.84925  0.00176  1.0000
  H   H5444     1.0  0.77236  0.78155  0.20674  1.0000
  C   C3067     1.0  0.77091  0.51275  0.23391  1.0000
  C   C3068     1.0  0.98187  0.53725  0.28112  1.0000
  H   H5445     1.0  0.85885  0.95341  0.24046  1.0000
  H   H5446     1.0  0.76581  0.81693  0.17200  1.0000
  H   H5447     1.0  0.77825  0.97411  0.32007  1.0000
  H   H5448     1.0  0.76758  0.93440  0.30585  1.0000
  C   C3069     1.0  0.87374  0.90393  0.15939  1.0000
  H   H5449     1.0  0.74875  0.96477  0.24715  1.0000
  H   H5450     1.0  0.97109  0.54558  0.18234  1.0000
  C   C3070     1.0  0.76248  0.81102  0.21672  1.0000
  C   C3071     1.0  0.75133  0.79924  0.20061  1.0000
  C   C3072     1.0  0.74994  0.55178  0.29069  1.0000
  C   C3073     1.0  0.73932  0.87047  0.04718  1.0000
  C   C3074     1.0  0.98075  0.57393  0.28192  1.0000
  H   H5451     1.0  0.74477  0.88017  0.03550  1.0000
  H   H5452     1.0  0.74316  0.88385  0.99451  1.0000
  C   C3075     1.0  0.75517  0.97293  0.23726  1.0000
  H   H5453     1.0  0.75895  0.80147  0.23211  1.0000
  H   H5454     1.0  0.85074  0.92464  0.23832  1.0000
  H   H5455     1.0  0.79821  0.98541  0.13825  1.0000
  C   C3076     1.0  0.97752  0.53538  0.19057  1.0000
  H   H5456     1.0  0.74020  0.59451  0.27842  1.0000
  H   H5457     1.0  0.74901  0.98579  0.20083  1.0000
  H   H5458     1.0  0.74327  0.82016  0.24518  1.0000
  H   H5459     1.0  0.77976  0.53678  0.31726  1.0000
  H   H5460     1.0  0.74660  0.77370  0.17908  1.0000
  H   H5461     1.0  0.78290  0.97425  0.26215  1.0000
  C   C3077     1.0  0.74057  0.87100  0.14650  1.0000
  C   C3078     1.0  0.74538  0.83441  0.21107  1.0000
  H   H5462     1.0  0.74356  0.81182  0.00429  1.0000
  H   H5463     1.0  0.75192  0.92010  0.31084  1.0000
  H   H5464     1.0  0.74855  0.51264  0.31595  1.0000
  H   H5465     1.0  0.87033  0.95969  0.22066  1.0000
  H   H5466     1.0  0.79097  0.95840  0.29270  1.0000
  H   H5467     1.0  0.76792  0.88504  0.31248  1.0000
  H   H5468     1.0  0.80593  0.96956  0.30125  1.0000
  Fe  Fe341     1.0  0.95221  0.49874  0.31050  1.0000
  H   H5469     1.0  0.74887  0.78927  0.21657  1.0000
  H   H5470     1.0  0.74561  0.93430  0.01314  1.0000
  C   C3079     1.0  0.74705  0.59202  0.28577  1.0000
  H   H5471     1.0  0.75765  0.87242  0.31483  1.0000
  C   C3080     1.0  0.78812  0.97607  0.28894  1.0000
  H   H5472     1.0  0.76131  0.49821  0.26258  1.0000
  C   C3081     1.0  0.97837  0.49926  0.24613  1.0000
  H   H5473     1.0  0.95101  0.50478  0.19512  1.0000
  H   H5474     1.0  0.97007  0.50203  0.18817  1.0000
  H   H5475     1.0  0.74181  0.51921  0.27423  1.0000
  H   H5476     1.0  0.77361  0.50228  0.26519  1.0000
  H   H5477     1.0  0.77346  0.83676  0.31294  1.0000
  C   C3082     1.0  0.77356  0.85372  0.30509  1.0000
  H   H5478     1.0  0.74398  0.95556  0.32007  1.0000
  C   C3083     1.0  0.73740  0.84642  0.99753  1.0000
  S   S685      1.0  0.80468  0.84811  0.31741  1.0000
  H   H5479     1.0  0.75633  0.49713  0.29749  1.0000
  C   C3084     1.0  0.76492  0.52767  0.31981  1.0000
  H   H5480     1.0  0.76534  0.62791  0.44394  1.0000
  S   S686      1.0  0.81774  0.84295  0.36719  1.0000
  H   H5481     1.0  0.87179  0.57790  0.40271  1.0000
  Fe  Fe342     1.0  0.84400  0.73616  0.48393  1.0000
  S   S687      1.0  0.83261  0.72966  0.51511  1.0000
  S   S688      1.0  0.86084  0.73806  0.48046  1.0000
  Fe  Fe343     1.0  0.82743  0.74530  0.45816  1.0000
  S   S689      1.0  0.81430  0.74017  0.48697  1.0000
  S   S690      1.0  0.82547  0.74974  0.42486  1.0000
  Fe  Fe344     1.0  0.82152  0.75843  0.50081  1.0000
  S   S691      1.0  0.81066  0.78059  0.52164  1.0000
  Fe  Fe345     1.0  0.82626  0.71192  0.49920  1.0000
  S   S692      1.0  0.82158  0.68087  0.51633  1.0000
  S   S693      1.0  0.83345  0.76659  0.47063  1.0000
  S   S694      1.0  0.83885  0.71527  0.46964  1.0000
  H   H5482     1.0  0.97021  0.56745  0.37853  1.0000
  H   H5483     1.0  0.79255  0.66172  0.39512  1.0000
  S   S695      1.0  0.95383  0.51410  0.36042  1.0000
  C   C3085     1.0  0.81790  0.82148  0.47327  1.0000
  C   C3086     1.0  0.80369  0.62383  0.41410  1.0000
  C   C3087     1.0  0.92761  0.53125  0.39968  1.0000
  H   H5484     1.0  0.77222  0.60699  0.46219  1.0000
  C   C3088     1.0  0.87061  0.54053  0.43398  1.0000
  Fe  Fe346     1.0  0.82083  0.78806  0.62480  1.0000
  S   S696      1.0  0.83072  0.79291  0.59149  1.0000
  C   C3089     1.0  0.75673  0.62448  0.63099  1.0000
  H   H5485     1.0  0.78111  0.64467  0.43101  1.0000
  H   H5486     1.0  0.74551  0.85382  0.33921  1.0000
  S   S697      1.0  0.75897  0.53080  0.38531  1.0000
  H   H5487     1.0  0.89268  0.66622  0.40909  1.0000
  H   H5488     1.0  0.76885  0.63433  0.46507  1.0000
  C   C3090     1.0  0.88523  0.54965  0.38347  1.0000
  H   H5489     1.0  0.81665  0.80172  0.36147  1.0000
  S   S698      1.0  0.79075  0.64359  0.58472  1.0000
  Fe  Fe347     1.0  0.80623  0.60339  0.47466  1.0000
  S   S699      1.0  0.81588  0.57786  0.45695  1.0000
  S   S700      1.0  0.80637  0.63813  0.45983  1.0000
  Fe  Fe348     1.0  0.79847  0.57134  0.51314  1.0000
  S   S701      1.0  0.80730  0.54292  0.49892  1.0000
  S   S702      1.0  0.78987  0.56726  0.54704  1.0000
  Fe  Fe349     1.0  0.82075  0.56015  0.48736  1.0000
  S   S703      1.0  0.83747  0.54479  0.49143  1.0000
  Fe  Fe350     1.0  0.80155  0.56296  0.46985  1.0000
  S   S704      1.0  0.79768  0.54809  0.44733  1.0000
  S   S705      1.0  0.81239  0.58684  0.50389  1.0000
  S   S706      1.0  0.79143  0.59000  0.48519  1.0000
  Fe  Fe351     1.0  0.90465  0.58735  0.45987  1.0000
  S   S707      1.0  0.89003  0.57802  0.48271  1.0000
  S   S708      1.0  0.91852  0.56225  0.44766  1.0000
  Fe  Fe352     1.0  0.89655  0.63422  0.46169  1.0000
  S   S709      1.0  0.88147  0.62875  0.48478  1.0000
  S   S710      1.0  0.89974  0.66721  0.44874  1.0000
  Fe  Fe353     1.0  0.89172  0.59998  0.50104  1.0000
  S   S711      1.0  0.88819  0.59216  0.53661  1.0000
  Fe  Fe354     1.0  0.88113  0.60773  0.46439  1.0000
  S   S712      1.0  0.86604  0.61339  0.45336  1.0000
  S   S713      1.0  0.90706  0.60710  0.47970  1.0000
  S   S714      1.0  0.89557  0.61529  0.43991  1.0000
  H   H5490     1.0  0.81728  0.51863  0.54565  1.0000
  S   S715      1.0  0.90315  0.66491  0.62809  1.0000
  H   H5491     1.0  0.78444  0.96744  0.35051  1.0000
  S   S716      1.0  0.87792  0.66712  0.63171  1.0000
  Fe  Fe355     1.0  0.89360  0.65235  0.61351  1.0000
  S   S717      1.0  0.89706  0.65818  0.57795  1.0000
  H   H5492     1.0  0.74319  0.50027  0.46999  1.0000
  H   H5493     1.0  0.80880  0.59717  0.38654  1.0000
  S   S718      1.0  0.89468  0.62060  0.63639  1.0000
  C   C3091     1.0  0.89003  0.61138  0.54788  1.0000
  C   C3092     1.0  0.89467  0.62838  0.53526  1.0000
  C   C3093     1.0  0.89671  0.64280  0.54465  1.0000
  C   C3094     1.0  0.89375  0.64075  0.56661  1.0000
  C   C3095     1.0  0.88865  0.62434  0.57913  1.0000
  C   C3096     1.0  0.88700  0.60942  0.56981  1.0000
  H   H5494     1.0  0.89693  0.63013  0.51830  1.0000
  H   H5495     1.0  0.90062  0.65553  0.53487  1.0000
  H   H5496     1.0  0.88622  0.62282  0.59606  1.0000
  H   H5497     1.0  0.88344  0.59625  0.57964  1.0000
  H   H5498     1.0  0.89338  0.55505  0.43310  1.0000
  H   H5499     1.0  0.89156  0.58135  0.39898  1.0000
  C   C3097     1.0  0.92642  0.53665  0.41901  1.0000
  C   C3098     1.0  0.91916  0.55519  0.42400  1.0000
  C   C3099     1.0  0.91296  0.56815  0.40968  1.0000
  C   C3100     1.0  0.91414  0.56271  0.39034  1.0000
  H   H5500     1.0  0.93119  0.52650  0.43008  1.0000
  H   H5501     1.0  0.90748  0.58264  0.41328  1.0000
  H   H5502     1.0  0.90955  0.57301  0.37902  1.0000
  C   C3101     1.0  0.84520  0.56427  0.48218  1.0000
  C   C3102     1.0  0.84136  0.58420  0.47001  1.0000
  C   C3103     1.0  0.84776  0.59933  0.46158  1.0000
  C   C3104     1.0  0.85793  0.59479  0.46566  1.0000
  C   C3105     1.0  0.86166  0.57514  0.47843  1.0000
  C   C3106     1.0  0.85533  0.55979  0.48653  1.0000
  H   H5503     1.0  0.83351  0.58791  0.46677  1.0000
  H   H5504     1.0  0.84480  0.61457  0.45185  1.0000
  H   H5505     1.0  0.86946  0.57166  0.48184  1.0000
  H   H5506     1.0  0.85829  0.54443  0.49606  1.0000
  C   C3107     1.0  0.78654  0.61221  0.42365  1.0000
  C   C3108     1.0  0.79091  0.62213  0.57419  1.0000
  C   C3109     1.0  0.79109  0.60160  0.58699  1.0000
  C   C3110     1.0  0.79067  0.58475  0.57871  1.0000
  C   C3111     1.0  0.79039  0.58831  0.55740  1.0000
  C   C3112     1.0  0.79047  0.60873  0.54448  1.0000
  C   C3113     1.0  0.79059  0.62568  0.55293  1.0000
  H   H5507     1.0  0.79135  0.59886  0.60337  1.0000
  H   H5508     1.0  0.79065  0.56898  0.58876  1.0000
  H   H5509     1.0  0.79020  0.61158  0.52805  1.0000
  H   H5510     1.0  0.79050  0.64152  0.54294  1.0000
  C   C3114     1.0  0.76808  0.93237  0.35629  1.0000
  H   H5511     1.0  0.87252  0.61915  0.40622  1.0000
  N   N172      1.0  0.87997  0.55108  0.42349  1.0000
  C   C3115     1.0  0.76414  0.54654  0.44398  1.0000
  C   C3116     1.0  0.76542  0.55663  0.45860  1.0000
  C   C3117     1.0  0.77566  0.55703  0.46005  1.0000
  C   C3118     1.0  0.78467  0.54726  0.44691  1.0000
  C   C3119     1.0  0.78337  0.53698  0.43252  1.0000
  C   C3120     1.0  0.77315  0.53665  0.43101  1.0000
  H   H5512     1.0  0.75847  0.56425  0.46873  1.0000
  H   H5513     1.0  0.77660  0.56492  0.47124  1.0000
  H   H5514     1.0  0.79030  0.52925  0.42242  1.0000
  H   H5515     1.0  0.77235  0.84046  0.37902  1.0000
  H   H5516     1.0  0.76003  0.51353  0.49773  1.0000
  S   S719      1.0  0.92317  0.53846  0.36055  1.0000
  H   H5517     1.0  0.77600  0.51234  0.61273  1.0000
  H   H5518     1.0  0.85996  0.55879  0.41199  1.0000
  H   H5519     1.0  0.80559  0.58393  0.41353  1.0000
  C   C3121     1.0  0.92624  0.61900  0.42264  1.0000
  H   H5520     1.0  0.84539  0.73467  0.39359  1.0000
  H   H5521     1.0  0.79190  0.59250  0.38043  1.0000
  H   H5522     1.0  0.82304  0.62479  0.42202  1.0000
  C   C3122     1.0  0.87123  0.71888  0.46962  1.0000
  C   C3123     1.0  0.88157  0.72245  0.46392  1.0000
  C   C3124     1.0  0.89023  0.70673  0.45694  1.0000
  C   C3125     1.0  0.88862  0.68722  0.45591  1.0000
  C   C3126     1.0  0.87821  0.68391  0.46091  1.0000
  C   C3127     1.0  0.86950  0.69976  0.46771  1.0000
  H   H5523     1.0  0.88294  0.73722  0.46537  1.0000
  H   H5524     1.0  0.89824  0.70944  0.45298  1.0000
  H   H5525     1.0  0.87686  0.66924  0.45934  1.0000
  H   H5526     1.0  0.86153  0.69692  0.47205  1.0000
  C   C3128     1.0  0.82508  0.78893  0.57246  1.0000
  C   C3129     1.0  0.83173  0.78313  0.55391  1.0000
  C   C3130     1.0  0.82739  0.78008  0.53846  1.0000
  C   C3131     1.0  0.81633  0.78349  0.54117  1.0000
  C   C3132     1.0  0.80967  0.78949  0.55962  1.0000
  C   C3133     1.0  0.81403  0.79185  0.57538  1.0000
  H   H5527     1.0  0.84026  0.78103  0.55148  1.0000
  H   H5528     1.0  0.83259  0.77559  0.52423  1.0000
  H   H5529     1.0  0.80112  0.79212  0.56186  1.0000
  H   H5530     1.0  0.80884  0.79636  0.58960  1.0000
  C   C3134     1.0  0.81721  0.66951  0.50042  1.0000
  C   C3135     1.0  0.81245  0.65188  0.50968  1.0000
  C   C3136     1.0  0.80895  0.64256  0.49731  1.0000
  C   C3137     1.0  0.81034  0.65051  0.47552  1.0000
  C   C3138     1.0  0.81486  0.66851  0.46626  1.0000
  C   C3139     1.0  0.81825  0.67805  0.47871  1.0000
  H   H5531     1.0  0.81118  0.64573  0.52653  1.0000
  H   H5532     1.0  0.80492  0.62958  0.50480  1.0000
  H   H5533     1.0  0.81581  0.67496  0.44945  1.0000
  H   H5534     1.0  0.82170  0.69194  0.47148  1.0000
  C   C3140     1.0  0.92153  0.54435  0.38524  1.0000
  C   C3141     1.0  0.87579  0.57474  0.41594  1.0000
  H   H5535     1.0  0.75985  0.50542  0.47458  1.0000
  H   H5536     1.0  0.79205  0.82785  0.36438  1.0000
  H   H5537     1.0  0.80786  0.97093  0.32529  1.0000
  C   C3142     1.0  0.82103  0.81645  0.38153  1.0000
  C   C3143     1.0  0.82464  0.81295  0.40009  1.0000
  C   C3144     1.0  0.82638  0.79240  0.41315  1.0000
  C   C3145     1.0  0.82435  0.77527  0.40787  1.0000
  C   C3146     1.0  0.82110  0.77858  0.38892  1.0000
  C   C3147     1.0  0.81944  0.79914  0.37574  1.0000
  H   H5538     1.0  0.82602  0.82628  0.40443  1.0000
  H   H5539     1.0  0.82905  0.78994  0.42752  1.0000
  H   H5540     1.0  0.81959  0.76532  0.38468  1.0000
  Fe  Fe356     1.0  0.74920  0.97353  0.36258  1.0000
  C   C3148     1.0  0.88736  0.54045  0.40606  1.0000
  H   H5541     1.0  0.77225  0.52872  0.41980  1.0000
  H   H5542     1.0  0.81632  0.65187  0.41214  1.0000
  C   C3149     1.0  0.78351  0.90816  0.34069  1.0000
  C   C3150     1.0  0.77755  0.91710  0.35806  1.0000
  C   C3151     1.0  0.74733  0.58549  0.64907  1.0000
  H   H5543     1.0  0.78031  0.91245  0.37263  1.0000
  S   S720      1.0  0.80420  0.65589  0.62171  1.0000
  N   N173      1.0  0.86221  0.73495  0.58873  1.0000
  C   C3152     1.0  0.86042  0.75843  0.58851  1.0000
  C   C3153     1.0  0.85925  0.73300  0.56942  1.0000
  C   C3154     1.0  0.85461  0.72535  0.60782  1.0000
  C   C3155     1.0  0.87344  0.72264  0.59015  1.0000
  C   C3156     1.0  0.88258  0.73485  0.57959  1.0000
  C   C3157     1.0  0.86072  0.76354  0.60933  1.0000
  C   C3158     1.0  0.85397  0.70204  0.60917  1.0000
  C   C3159     1.0  0.86602  0.74197  0.54781  1.0000
  C   C3160     1.0  0.86096  0.74298  0.52979  1.0000
  C   C3161     1.0  0.89345  0.71957  0.57996  1.0000
  H   H5544     1.0  0.84511  0.68989  0.40794  1.0000
  C   C3162     1.0  0.84970  0.69120  0.63180  1.0000
  H   H5545     1.0  0.85249  0.76713  0.58492  1.0000
  H   H5546     1.0  0.86623  0.76621  0.57566  1.0000
  H   H5547     1.0  0.85996  0.71596  0.56944  1.0000
  H   H5548     1.0  0.85070  0.74094  0.56964  1.0000
  H   H5549     1.0  0.84635  0.73539  0.60867  1.0000
  H   H5550     1.0  0.85684  0.72530  0.62257  1.0000
  H   H5551     1.0  0.87413  0.71636  0.60697  1.0000
  H   H5552     1.0  0.87543  0.70810  0.58347  1.0000
  H   H5553     1.0  0.88203  0.74720  0.58824  1.0000
  H   H5554     1.0  0.88239  0.74294  0.56299  1.0000
  H   H5555     1.0  0.85333  0.76102  0.62131  1.0000
  H   H5556     1.0  0.86767  0.75306  0.61563  1.0000
  H   H5557     1.0  0.86185  0.69207  0.60348  1.0000
  H   H5558     1.0  0.84847  0.70223  0.59940  1.0000
  H   H5559     1.0  0.86686  0.75840  0.54647  1.0000
  H   H5560     1.0  0.87405  0.73126  0.54527  1.0000
  H   H5561     1.0  0.85992  0.72696  0.52991  1.0000
  H   H5562     1.0  0.85308  0.75429  0.53088  1.0000
  H   H5563     1.0  0.86621  0.74876  0.51452  1.0000
  H   H5564     1.0  0.89987  0.72867  0.57291  1.0000
  H   H5565     1.0  0.89409  0.71139  0.59646  1.0000
  H   H5566     1.0  0.89467  0.70731  0.57072  1.0000
  H   H5567     1.0  0.87681  0.55144  0.38312  1.0000
  H   H5568     1.0  0.86869  0.79024  0.59496  1.0000
  H   H5569     1.0  0.86910  0.69198  0.38570  1.0000
  H   H5570     1.0  0.90112  0.56943  0.63490  1.0000
  C   C3163     1.0  0.78219  0.62764  0.43915  1.0000
  N   N174      1.0  0.77303  0.51582  0.58176  1.0000
  N   N175      1.0  0.80074  0.82820  0.45907  1.0000
  C   C3164     1.0  0.81130  0.83404  0.45625  1.0000
  C   C3165     1.0  0.79432  0.84599  0.44524  1.0000
  C   C3166     1.0  0.79511  0.82628  0.48207  1.0000
  C   C3167     1.0  0.80313  0.80713  0.45254  1.0000
  C   C3168     1.0  0.79349  0.79780  0.45413  1.0000
  H   H5571     1.0  0.76963  0.97970  0.37901  1.0000
  C   C3169     1.0  0.78275  0.83039  0.48741  1.0000
  C   C3170     1.0  0.79936  0.85035  0.42120  1.0000
  C   C3171     1.0  0.79243  0.86947  0.40912  1.0000
  C   C3172     1.0  0.79691  0.77886  0.44330  1.0000
  C   C3173     1.0  0.80216  0.56198  0.38811  1.0000
  C   C3174     1.0  0.77849  0.82339  0.51114  1.0000
  H   H5572     1.0  0.81010  0.85134  0.45607  1.0000
  H   H5573     1.0  0.81651  0.83174  0.44067  1.0000
  H   H5574     1.0  0.78635  0.84301  0.44685  1.0000
  H   H5575     1.0  0.79273  0.86121  0.45061  1.0000
  H   H5576     1.0  0.79686  0.83814  0.48880  1.0000
  H   H5577     1.0  0.79827  0.81023  0.49142  1.0000
  H   H5578     1.0  0.80784  0.80845  0.43612  1.0000
  H   H5579     1.0  0.80833  0.79448  0.46211  1.0000
  H   H5580     1.0  0.78734  0.80980  0.44650  1.0000
  H   H5581     1.0  0.78998  0.79173  0.47098  1.0000
  C   C3175     1.0  0.76031  0.84224  0.35180  1.0000
  H   H5582     1.0  0.87364  0.68007  0.42223  1.0000
  H   H5583     1.0  0.77966  0.82190  0.47926  1.0000
  H   H5584     1.0  0.77937  0.84780  0.48263  1.0000
  H   H5585     1.0  0.80732  0.85411  0.41786  1.0000
  H   H5586     1.0  0.80021  0.83630  0.41458  1.0000
  H   H5587     1.0  0.78439  0.86647  0.41120  1.0000
  H   H5588     1.0  0.79161  0.88424  0.41459  1.0000
  H   H5589     1.0  0.79622  0.87213  0.39200  1.0000
  H   H5590     1.0  0.88738  0.52303  0.41016  1.0000
  H   H5591     1.0  0.89578  0.54114  0.40459  1.0000
  H   H5592     1.0  0.80023  0.78407  0.42616  1.0000
  H   H5593     1.0  0.77986  0.61199  0.41690  1.0000
  Fe  Fe357     1.0  0.74908  0.53136  0.41799  1.0000
  H   H5594     1.0  0.76094  0.54314  0.61141  1.0000
  H   H5595     1.0  0.78110  0.83207  0.52004  1.0000
  H   H5596     1.0  0.76964  0.82698  0.51469  1.0000
  H   H5597     1.0  0.78140  0.80589  0.51658  1.0000
  N   N176      1.0  0.92220  0.59430  0.58060  1.0000
  C   C3176     1.0  0.91246  0.59190  0.59811  1.0000
  C   C3177     1.0  0.92521  0.61525  0.57853  1.0000
  C   C3178     1.0  0.91932  0.59505  0.56022  1.0000
  C   C3179     1.0  0.93144  0.57560  0.58376  1.0000
  C   C3180     1.0  0.93525  0.57088  0.60458  1.0000
  C   C3181     1.0  0.90780  0.57206  0.60110  1.0000
  C   C3182     1.0  0.92784  0.59996  0.53963  1.0000
  C   C3183     1.0  0.92329  0.62324  0.59912  1.0000
  C   C3184     1.0  0.92860  0.64198  0.59526  1.0000
  C   C3185     1.0  0.94359  0.54989  0.60704  1.0000
  H   H5598     1.0  0.80025  0.94303  0.35966  1.0000
  C   C3186     1.0  0.92354  0.60236  0.52014  1.0000
  H   H5599     1.0  0.90600  0.60635  0.59542  1.0000
  H   H5600     1.0  0.91395  0.59149  0.61358  1.0000
  H   H5601     1.0  0.93372  0.61455  0.57034  1.0000
  H   H5602     1.0  0.92051  0.62861  0.56838  1.0000
  H   H5603     1.0  0.91183  0.60721  0.55850  1.0000
  H   H5604     1.0  0.91765  0.57953  0.56037  1.0000
  H   H5605     1.0  0.92964  0.56076  0.58235  1.0000
  H   H5606     1.0  0.93855  0.57813  0.57093  1.0000
  H   H5607     1.0  0.92864  0.56939  0.61866  1.0000
  H   H5608     1.0  0.93910  0.58372  0.60439  1.0000
  H   H5609     1.0  0.90464  0.57299  0.58723  1.0000
  H   H5610     1.0  0.91392  0.55704  0.60356  1.0000
  H   H5611     1.0  0.93500  0.58670  0.53927  1.0000
  H   H5612     1.0  0.93030  0.61503  0.53802  1.0000
  H   H5613     1.0  0.91462  0.62898  0.60488  1.0000
  H   H5614     1.0  0.92627  0.61061  0.61195  1.0000
  H   H5615     1.0  0.92711  0.64718  0.61030  1.0000
  H   H5616     1.0  0.93735  0.63714  0.58954  1.0000
  H   H5617     1.0  0.92523  0.65573  0.58355  1.0000
  C   C3187     1.0  0.79607  0.51220  0.60870  1.0000
  H   H5618     1.0  0.85836  0.67425  0.40989  1.0000
  H   H5619     1.0  0.95059  0.55057  0.59357  1.0000
  H   H5620     1.0  0.90072  0.53335  0.36791  1.0000
  C   C3188     1.0  0.74418  0.51425  0.49469  1.0000
  C   C3189     1.0  0.89851  0.57066  0.62027  1.0000
  H   H5621     1.0  0.91694  0.61671  0.51863  1.0000
  H   H5622     1.0  0.92995  0.60442  0.50571  1.0000
  H   H5623     1.0  0.92058  0.58799  0.52108  1.0000
  N   N177      1.0  0.85603  0.66279  0.53705  1.0000
  C   C3190     1.0  0.84892  0.66118  0.52386  1.0000
  C   C3191     1.0  0.84976  0.67669  0.55270  1.0000
  C   C3192     1.0  0.86474  0.67359  0.52240  1.0000
  C   C3193     1.0  0.86126  0.64107  0.54826  1.0000
  C   C3194     1.0  0.85369  0.62659  0.56267  1.0000
  C   C3195     1.0  0.85428  0.64816  0.50646  1.0000
  C   C3196     1.0  0.87228  0.67877  0.53331  1.0000
  C   C3197     1.0  0.83772  0.67660  0.56139  1.0000
  C   C3198     1.0  0.83337  0.68635  0.58082  1.0000
  C   C3199     1.0  0.85982  0.60561  0.57403  1.0000
  C   C3200     1.0  0.84600  0.64564  0.49611  1.0000
  C   C3201     1.0  0.88062  0.69006  0.51723  1.0000
  H   H5624     1.0  0.84518  0.67755  0.51602  1.0000
  H   H5625     1.0  0.84217  0.65388  0.53383  1.0000
  H   H5626     1.0  0.85364  0.67267  0.56636  1.0000
  H   H5627     1.0  0.84985  0.69389  0.54542  1.0000
  H   H5628     1.0  0.86119  0.68890  0.51247  1.0000
  H   H5629     1.0  0.86997  0.66345  0.51127  1.0000
  H   H5630     1.0  0.86718  0.63204  0.53682  1.0000
  H   H5631     1.0  0.86597  0.64282  0.55867  1.0000
  H   H5632     1.0  0.84898  0.62283  0.55353  1.0000
  H   H5633     1.0  0.84830  0.63452  0.57516  1.0000
  H   H5634     1.0  0.85997  0.65652  0.49381  1.0000
  H   H5635     1.0  0.85852  0.63186  0.51304  1.0000
  H   H5636     1.0  0.87662  0.66394  0.54214  1.0000
  H   H5637     1.0  0.86785  0.68923  0.54455  1.0000
  H   H5638     1.0  0.83315  0.68623  0.54917  1.0000
  H   H5639     1.0  0.83599  0.66045  0.56593  1.0000
  H   H5640     1.0  0.83437  0.70312  0.57685  1.0000
  H   H5641     1.0  0.82479  0.68606  0.58674  1.0000
  H   H5642     1.0  0.83762  0.67681  0.59354  1.0000
  H   H5643     1.0  0.86562  0.59661  0.56254  1.0000
  H   H5644     1.0  0.86412  0.60885  0.58431  1.0000
  H   H5645     1.0  0.85415  0.59559  0.58429  1.0000
  H   H5646     1.0  0.84191  0.66153  0.48822  1.0000
  H   H5647     1.0  0.84997  0.63588  0.48405  1.0000
  H   H5648     1.0  0.83996  0.63745  0.50796  1.0000
  H   H5649     1.0  0.88525  0.68036  0.50533  1.0000
  H   H5650     1.0  0.87674  0.70602  0.50915  1.0000
  H   H5651     1.0  0.88624  0.69234  0.52541  1.0000
  N   N178      1.0  0.79149  0.71808  0.57529  1.0000
  C   C3202     1.0  0.78498  0.70234  0.58984  1.0000
  C   C3203     1.0  0.79628  0.71098  0.55461  1.0000
  C   C3204     1.0  0.80056  0.71683  0.58518  1.0000
  C   C3205     1.0  0.78518  0.74097  0.57186  1.0000
  C   C3206     1.0  0.77312  0.74457  0.57254  1.0000
  C   C3207     1.0  0.78125  0.70439  0.61320  1.0000
  C   C3208     1.0  0.80899  0.73004  0.57160  1.0000
  C   C3209     1.0  0.78827  0.71163  0.54156  1.0000
  C   C3210     1.0  0.79368  0.70047  0.52322  1.0000
  C   C3211     1.0  0.76827  0.76834  0.56555  1.0000
  C   C3212     1.0  0.77288  0.69126  0.62548  1.0000
  C   C3213     1.0  0.81469  0.73572  0.58543  1.0000
  H   H5652     1.0  0.78968  0.68565  0.58994  1.0000
  H   H5653     1.0  0.77785  0.70311  0.58414  1.0000
  H   H5654     1.0  0.80183  0.72112  0.54391  1.0000
  H   H5655     1.0  0.80126  0.69437  0.55746  1.0000
  H   H5656     1.0  0.80488  0.69988  0.58950  1.0000
  H   H5657     1.0  0.79738  0.72245  0.60026  1.0000
  H   H5658     1.0  0.78560  0.74909  0.58394  1.0000
  H   H5659     1.0  0.78885  0.75040  0.55646  1.0000
  H   H5660     1.0  0.76873  0.73900  0.58884  1.0000
  H   H5661     1.0  0.77160  0.73589  0.56227  1.0000
  H   H5662     1.0  0.78812  0.69790  0.62089  1.0000
  H   H5663     1.0  0.77802  0.72129  0.61466  1.0000
  H   H5664     1.0  0.80540  0.74525  0.56184  1.0000
  H   H5665     1.0  0.81505  0.72055  0.56074  1.0000
  H   H5666     1.0  0.78177  0.70344  0.55112  1.0000
  H   H5667     1.0  0.78482  0.72851  0.53474  1.0000
  H   H5668     1.0  0.80019  0.70811  0.51257  1.0000
  H   H5669     1.0  0.79694  0.68328  0.52933  1.0000
  H   H5670     1.0  0.78780  0.70151  0.51394  1.0000
  H   H5671     1.0  0.77209  0.77460  0.54894  1.0000
  H   H5672     1.0  0.75961  0.77057  0.56662  1.0000
  H   H5673     1.0  0.76930  0.77769  0.57590  1.0000
  H   H5674     1.0  0.81260  0.54681  0.53604  1.0000
  H   H5675     1.0  0.84689  0.74661  0.34842  1.0000
  Fe  Fe358     1.0  0.81681  0.85217  0.33267  1.0000
  H   H5676     1.0  0.81757  0.72140  0.59710  1.0000
  H   H5677     1.0  0.82160  0.74253  0.57540  1.0000
  H   H5678     1.0  0.80917  0.74786  0.59412  1.0000
  H   H5679     1.0  0.76019  0.54290  0.57432  1.0000
  C   C3214     1.0  0.74661  0.82087  0.35508  1.0000
  H   H5680     1.0  0.75462  0.57474  0.64182  1.0000
  H   H5681     1.0  0.88486  0.66352  0.39253  1.0000
  H   H5682     1.0  0.77074  0.69242  0.64230  1.0000
  H   H5683     1.0  0.89192  0.58496  0.61816  1.0000
  H   H5684     1.0  0.80272  0.91773  0.35260  1.0000
  H   H5685     1.0  0.93850  0.59109  0.42849  1.0000
  H   H5686     1.0  0.76220  0.89446  0.34563  1.0000
  H   H5687     1.0  0.94635  0.54715  0.62184  1.0000
  H   H5688     1.0  0.78938  0.53344  0.58300  1.0000
  H   H5689     1.0  0.81797  0.80422  0.47722  1.0000
  H   H5690     1.0  0.84835  0.54413  0.44509  1.0000
  H   H5691     1.0  0.88290  0.51917  0.46346  1.0000
  H   H5692     1.0  0.94785  0.60185  0.34373  1.0000
  C   C3215     1.0  0.86279  0.54211  0.42018  1.0000
  S   S721      1.0  0.81715  0.75543  0.63692  1.0000
  C   C3216     1.0  0.93691  0.59700  0.39538  1.0000
  H   H5693     1.0  0.87335  0.52309  0.44003  1.0000
  H   H5694     1.0  0.78867  0.57868  0.40750  1.0000
  H   H5695     1.0  0.83347  0.81742  0.45167  1.0000
  H   H5696     1.0  0.92987  0.58962  0.39946  1.0000
  H   H5697     1.0  0.82742  0.69783  0.62381  1.0000
  H   H5698     1.0  0.85663  0.74442  0.37701  1.0000
  C   C3217     1.0  0.75845  0.88037  0.35248  1.0000
  Fe  Fe359     1.0  0.80121  0.77292  0.65169  1.0000
  S   S722      1.0  0.81075  0.60492  0.61921  1.0000
  H   H5699     1.0  0.83118  0.66946  0.63402  1.0000
  H   H5700     1.0  0.77389  0.54923  0.60138  1.0000
  H   H5701     1.0  0.84467  0.65695  0.43567  1.0000
  H   H5702     1.0  0.77288  0.54881  0.56499  1.0000
  H   H5703     1.0  0.89234  0.68454  0.38391  1.0000
  H   H5704     1.0  0.74216  0.87523  0.36160  1.0000
  C   C3218     1.0  0.85391  0.72936  0.38593  1.0000
  H   H5705     1.0  0.86213  0.71677  0.35751  1.0000
  H   H5706     1.0  0.80579  0.55141  0.40134  1.0000
  C   C3219     1.0  0.89787  0.52363  0.46493  1.0000
  H   H5707     1.0  0.79980  0.63891  0.41962  1.0000
  H   H5708     1.0  0.78928  0.83836  0.38759  1.0000
  C   C3220     1.0  0.82084  0.63644  0.40773  1.0000
  C   C3221     1.0  0.80203  0.59499  0.40027  1.0000
  N   N179      1.0  0.94686  0.58160  0.38709  1.0000
  C   C3222     1.0  0.94459  0.57425  0.36982  1.0000
  C   C3223     1.0  0.94914  0.56285  0.40521  1.0000
  H   H5709     1.0  0.83383  0.81529  0.47866  1.0000
  C   C3224     1.0  0.95589  0.59326  0.37897  1.0000
  H   H5710     1.0  0.74437  0.59771  0.63583  1.0000
  H   H5711     1.0  0.91980  0.60997  0.42721  1.0000
  C   C3225     1.0  0.95477  0.54071  0.39973  1.0000
  C   C3226     1.0  0.95825  0.52437  0.41878  1.0000
  C   C3227     1.0  0.78093  0.51687  0.52124  1.0000
  H   H5712     1.0  0.76033  0.54372  0.32226  1.0000
  H   H5713     1.0  0.93787  0.56585  0.37643  1.0000
  C   C3228     1.0  0.89214  0.53524  0.36843  1.0000
  H   H5714     1.0  0.95384  0.56652  0.41454  1.0000
  H   H5715     1.0  0.94158  0.56004  0.41660  1.0000
  C   C3229     1.0  0.78035  0.55533  0.64266  1.0000
  H   H5716     1.0  0.96181  0.50853  0.41454  1.0000
  H   H5717     1.0  0.95780  0.59734  0.39222  1.0000
  H   H5718     1.0  0.79074  0.57707  0.63656  1.0000
  H   H5719     1.0  0.76620  0.59473  0.64510  1.0000
  H   H5720     1.0  0.82975  0.84127  0.46238  1.0000
  H   H5721     1.0  0.75674  0.84163  0.36889  1.0000
  H   H5722     1.0  0.94909  0.53448  0.39505  1.0000
  H   H5723     1.0  0.96185  0.54147  0.38661  1.0000
  H   H5724     1.0  0.79081  0.52113  0.62076  1.0000
  H   H5725     1.0  0.79189  0.94413  0.32925  1.0000
  H   H5726     1.0  0.76748  0.53112  0.54260  1.0000
  H   H5727     1.0  0.93526  0.61176  0.38306  1.0000
  C   C3230     1.0  0.84574  0.73006  0.35592  1.0000
  C   C3231     1.0  0.85382  0.70461  0.42110  1.0000
  H   H5728     1.0  0.79469  0.66955  0.35625  1.0000
  H   H5729     1.0  0.84794  0.67576  0.63219  1.0000
  H   H5730     1.0  0.86669  0.53200  0.40839  1.0000
  H   H5731     1.0  0.79381  0.85449  0.36213  1.0000
  H   H5732     1.0  0.77784  0.56209  0.62787  1.0000
  C   C3232     1.0  0.79531  0.58283  0.39418  1.0000
  H   H5733     1.0  0.78106  0.84310  0.33886  1.0000
  Fe  Fe360     1.0  0.79708  0.63278  0.61435  1.0000
  N   N180      1.0  0.86037  0.71734  0.40250  1.0000
  C   C3233     1.0  0.87063  0.70353  0.39301  1.0000
  H   H5734     1.0  0.86944  0.58118  0.42863  1.0000
  C   C3234     1.0  0.86334  0.73371  0.41028  1.0000
  S   S723      1.0  0.88148  0.71063  0.65324  1.0000
  C   C3235     1.0  0.94105  0.58241  0.33303  1.0000
  C   C3236     1.0  0.87797  0.69021  0.40844  1.0000
  C   C3237     1.0  0.85395  0.75132  0.41848  1.0000
  H   H5735     1.0  0.80304  0.76610  0.45044  1.0000
  H   H5736     1.0  0.94317  0.61421  0.41131  1.0000
  C   C3238     1.0  0.85805  0.76808  0.42375  1.0000
  H   H5737     1.0  0.87536  0.71368  0.37979  1.0000
  H   H5738     1.0  0.81428  0.62998  0.56968  1.0000
  C   C3239     1.0  0.77547  0.52385  0.32636  1.0000
  H   H5739     1.0  0.86911  0.74194  0.39751  1.0000
  H   H5740     1.0  0.86747  0.72585  0.42357  1.0000
  C   C3240     1.0  0.94174  0.59202  0.35056  1.0000
  S   S724      1.0  0.76071  0.94506  0.37677  1.0000
  C   C3241     1.0  0.78023  0.50810  0.59734  1.0000
  H   H5741     1.0  0.88116  0.70080  0.41412  1.0000
  H   H5742     1.0  0.74530  0.92142  0.35042  1.0000
  H   H5743     1.0  0.84873  0.74418  0.43304  1.0000
  H   H5744     1.0  0.84902  0.75993  0.40667  1.0000
  H   H5745     1.0  0.76078  0.58203  0.60445  1.0000
  C   C3242     1.0  0.98417  0.50308  0.37218  1.0000
  H   H5746     1.0  0.78994  0.77200  0.44515  1.0000
  S   S725      1.0  0.75119  0.54637  0.44250  1.0000
  Fe  Fe361     1.0  0.93940  0.51963  0.34733  1.0000
  C   C3243     1.0  0.77998  0.91476  0.32172  1.0000
  H   H5747     1.0  0.86283  0.77665  0.40932  1.0000
  H   H5748     1.0  0.85120  0.77997  0.43035  1.0000
  H   H5749     1.0  0.86304  0.76045  0.43565  1.0000
  C   C3244     1.0  0.88417  0.58880  0.40896  1.0000
  H   H5750     1.0  0.88620  0.59071  0.42311  1.0000
  H   H5751     1.0  0.78696  0.62599  0.38208  1.0000
  H   H5752     1.0  0.76657  0.64506  0.63226  1.0000
  H   H5753     1.0  0.85513  0.51711  0.44247  1.0000
  H   H5754     1.0  0.94012  0.53620  0.60796  1.0000
  H   H5755     1.0  0.82160  0.52775  0.63482  1.0000
  C   C3245     1.0  0.75188  0.83928  0.34155  1.0000
  C   C3246     1.0  0.79291  0.63147  0.38681  1.0000
  H   H5756     1.0  0.85509  0.63878  0.60490  1.0000
  N   N181      1.0  0.76490  0.86204  0.34209  1.0000
  H   H5757     1.0  0.75926  0.50750  0.57767  1.0000
  H   H5758     1.0  0.88125  0.55789  0.45222  1.0000
  H   H5759     1.0  0.96549  0.57538  0.35426  1.0000
  H   H5760     1.0  0.80585  0.61211  0.42838  1.0000
  H   H5761     1.0  0.80859  0.56532  0.37398  1.0000
  H   H5762     1.0  0.92643  0.62435  0.43670  1.0000
  C   C3247     1.0  0.76448  0.93816  0.33764  1.0000
  H   H5763     1.0  0.95345  0.60900  0.36843  1.0000
  H   H5764     1.0  0.76558  0.69731  0.61896  1.0000
  N   N182      1.0  0.83150  0.56669  0.56470  1.0000
  C   C3248     1.0  0.83435  0.55027  0.58389  1.0000
  C   C3249     1.0  0.84124  0.56640  0.54689  1.0000
  C   C3250     1.0  0.82745  0.58825  0.57060  1.0000
  C   C3251     1.0  0.82282  0.56185  0.55765  1.0000
  C   C3252     1.0  0.82521  0.53921  0.55295  1.0000
  C   C3253     1.0  0.82480  0.54590  0.60256  1.0000
  C   C3254     1.0  0.82655  0.60816  0.55221  1.0000
  C   C3255     1.0  0.85079  0.57240  0.55094  1.0000
  C   C3256     1.0  0.85941  0.57565  0.53079  1.0000
  C   C3257     1.0  0.81536  0.53467  0.54943  1.0000
  C   C3258     1.0  0.82860  0.53053  0.62178  1.0000
  C   C3259     1.0  0.82269  0.62859  0.56084  1.0000
  H   H5765     1.0  0.83990  0.55539  0.59018  1.0000
  H   H5766     1.0  0.83892  0.53476  0.57966  1.0000
  H   H5767     1.0  0.84432  0.55016  0.54335  1.0000
  H   H5768     1.0  0.83915  0.57692  0.53194  1.0000
  H   H5769     1.0  0.83245  0.59044  0.58029  1.0000
  H   H5770     1.0  0.81933  0.58922  0.58092  1.0000
  H   H5771     1.0  0.81513  0.56416  0.56941  1.0000
  H   H5772     1.0  0.82117  0.57358  0.54298  1.0000
  H   H5773     1.0  0.82780  0.52635  0.56606  1.0000
  H   H5774     1.0  0.83153  0.53797  0.53843  1.0000
  H   H5775     1.0  0.82007  0.56089  0.60754  1.0000
  H   H5776     1.0  0.81943  0.53860  0.59817  1.0000
  H   H5777     1.0  0.82082  0.60788  0.54317  1.0000
  H   H5778     1.0  0.83435  0.60914  0.54116  1.0000
  H   H5779     1.0  0.84828  0.58734  0.55675  1.0000
  H   H5780     1.0  0.85443  0.55948  0.56292  1.0000
  H   H5781     1.0  0.86242  0.56079  0.52458  1.0000
  H   H5782     1.0  0.85622  0.58904  0.51857  1.0000
  H   H5783     1.0  0.86622  0.57966  0.53415  1.0000
  H   H5784     1.0  0.84759  0.53428  0.42339  1.0000
  Fe  Fe362     1.0  0.90329  0.63401  0.65242  1.0000
  H   H5785     1.0  0.80885  0.53514  0.56375  1.0000
  C   C3260     1.0  0.77256  0.99475  0.37462  1.0000
  H   H5786     1.0  0.83370  0.53747  0.62740  1.0000
  S   S726      1.0  0.74118  0.50832  0.37821  1.0000
  H   H5787     1.0  0.82770  0.62877  0.57144  1.0000
  H   H5788     1.0  0.82319  0.64275  0.54767  1.0000
  C   C3261     1.0  0.85275  0.63326  0.62179  1.0000
  C   C3262     1.0  0.88608  0.54844  0.44019  1.0000
  H   H5789     1.0  0.82828  0.63920  0.39606  1.0000
  H   H5790     1.0  0.83764  0.73086  0.36629  1.0000
  H   H5791     1.0  0.93495  0.57248  0.33886  1.0000
  H   H5792     1.0  0.78785  0.62480  0.44944  1.0000
  H   H5793     1.0  0.81925  0.61261  0.39393  1.0000
  C   C3263     1.0  0.93698  0.60472  0.41507  1.0000
  C   C3264     1.0  0.81421  0.62772  0.39822  1.0000
  C   C3265     1.0  0.78779  0.65496  0.38857  1.0000
  Fe  Fe363     1.0  0.74346  0.54123  0.37487  1.0000
  C   C3266     1.0  0.84273  0.62819  0.63078  1.0000
  H   H5794     1.0  0.78181  0.66356  0.35966  1.0000
  C   C3267     1.0  0.85123  0.68471  0.41759  1.0000
  C   C3268     1.0  0.79078  0.51613  0.59021  1.0000
  H   H5795     1.0  0.85768  0.69947  0.43487  1.0000
  H   H5796     1.0  0.87842  0.61025  0.38165  1.0000
  H   H5797     1.0  0.93324  0.51692  0.39595  1.0000
  H   H5798     1.0  0.77632  0.51931  0.50906  1.0000
  H   H5799     1.0  0.86591  0.54723  0.44803  1.0000
  H   H5800     1.0  0.97729  0.51074  0.36448  1.0000
  C   C3269     1.0  0.73849  0.50222  0.48605  1.0000
  C   C3270     1.0  0.78879  0.84261  0.37075  1.0000
  H   H5801     1.0  0.81784  0.68132  0.63036  1.0000
  H   H5802     1.0  0.92436  0.63340  0.41011  1.0000
  H   H5803     1.0  0.79080  0.89630  0.34196  1.0000
  H   H5804     1.0  0.77343  0.62480  0.61701  1.0000
  C   C3271     1.0  0.87998  0.61117  0.39666  1.0000
  C   C3272     1.0  0.77149  0.62394  0.45342  1.0000
  H   H5805     1.0  0.74223  0.82436  0.37075  1.0000
  H   H5806     1.0  0.79984  0.63143  0.37312  1.0000
  H   H5807     1.0  0.88722  0.56565  0.37703  1.0000
  H   H5808     1.0  0.78838  0.59599  0.43402  1.0000
  H   H5809     1.0  0.78710  0.50181  0.52075  1.0000
  S   S727      1.0  0.83404  0.63131  0.61427  1.0000
  C   C3273     1.0  0.85978  0.63129  0.63460  1.0000
  H   H5810     1.0  0.75569  0.83543  0.32583  1.0000
  C   C3274     1.0  0.74138  0.90812  0.36003  1.0000
  C   C3275     1.0  0.77344  0.51574  0.54304  1.0000
  H   H5811     1.0  0.74437  0.55009  0.63800  1.0000
  Fe  Fe364     1.0  0.81723  0.62739  0.62917  1.0000
  C   C3276     1.0  0.74653  0.88774  0.35152  1.0000
  H   H5812     1.0  0.85254  0.66479  0.44878  1.0000
  H   H5813     1.0  0.88602  0.62104  0.39291  1.0000
  C   C3277     1.0  0.77722  0.85206  0.36881  1.0000
  C   C3278     1.0  0.85423  0.71777  0.36866  1.0000
  N   N183      1.0  0.79618  0.61617  0.40621  1.0000
  H   H5814     1.0  0.81445  0.82739  0.48812  1.0000
  H   H5815     1.0  0.79712  0.55334  0.38442  1.0000
  H   H5816     1.0  0.78276  0.68593  0.36868  1.0000
  H   H5817     1.0  0.95130  0.52266  0.43221  1.0000
  C   C3279     1.0  0.77611  0.85711  0.34555  1.0000
  H   H5818     1.0  0.76637  0.58231  0.57701  1.0000
  C   C3280     1.0  0.82464  0.68381  0.63506  1.0000
  H   H5819     1.0  0.77613  0.67415  0.62474  1.0000
  S   S728      1.0  0.78738  0.62453  0.64715  1.0000
  C   C3281     1.0  0.78672  0.66930  0.36692  1.0000
  H   H5820     1.0  0.75267  0.80567  0.35728  1.0000
  H   H5821     1.0  0.83922  0.68028  0.44691  1.0000
  H   H5822     1.0  0.84597  0.71495  0.42643  1.0000
  H   H5823     1.0  0.75842  0.87624  0.36958  1.0000
  C   C3282     1.0  0.78702  0.98296  0.34415  1.0000
  H   H5824     1.0  0.85293  0.70133  0.37533  1.0000
  C   C3283     1.0  0.86124  0.78688  0.60624  1.0000
  C   C3284     1.0  0.76131  0.57436  0.59146  1.0000
  H   H5825     1.0  0.85425  0.79776  0.60023  1.0000
  H   H5826     1.0  0.84242  0.70183  0.63888  1.0000
  H   H5827     1.0  0.78489  0.53057  0.51723  1.0000
  C   C3285     1.0  0.85289  0.53386  0.43365  1.0000
  C   C3286     1.0  0.76626  0.55047  0.59725  1.0000
  C   C3287     1.0  0.88979  0.52510  0.45214  1.0000
  H   H5828     1.0  0.75319  0.57680  0.58880  1.0000
  H   H5829     1.0  0.80026  0.72965  0.63601  1.0000
  C   C3288     1.0  0.76802  0.53955  0.57869  1.0000
  H   H5830     1.0  0.76674  0.82746  0.35138  1.0000
  H   H5831     1.0  0.86755  0.63497  0.62751  1.0000
  H   H5832     1.0  0.78580  0.52125  0.55436  1.0000
  H   H5833     1.0  0.90512  0.52883  0.45441  1.0000
  H   H5834     1.0  0.77464  0.86697  0.37496  1.0000
  H   H5835     1.0  0.80366  0.51784  0.60304  1.0000
  C   C3289     1.0  0.88753  0.67525  0.39771  1.0000
  S   S729      1.0  0.80436  0.80590  0.63767  1.0000
  C   C3290     1.0  0.84663  0.67092  0.43856  1.0000
  H   H5836     1.0  0.89539  0.55625  0.62215  1.0000
  H   H5837     1.0  0.81255  0.63953  0.38367  1.0000
  H   H5838     1.0  0.86111  0.79010  0.62161  1.0000
  H   H5839     1.0  0.89357  0.51423  0.44102  1.0000
  C   C3291     1.0  0.82944  0.82411  0.46595  1.0000
  H   H5840     1.0  0.76425  0.64803  0.60646  1.0000
  H   H5841     1.0  0.78008  0.87060  0.33674  1.0000
  C   C3292     1.0  0.76581  0.63629  0.62114  1.0000
  H   H5842     1.0  0.84630  0.72180  0.34331  1.0000
  H   H5843     1.0  0.77962  0.65597  0.39854  1.0000
  H   H5844     1.0  0.93387  0.60259  0.35514  1.0000
  H   H5845     1.0  0.89077  0.54251  0.35223  1.0000
  H   H5846     1.0  0.74936  0.63655  0.63508  1.0000
  H   H5847     1.0  0.76054  0.51552  0.33067  1.0000
  H   H5848     1.0  0.75693  0.94890  0.33681  1.0000
  H   H5849     1.0  0.90029  0.50679  0.47335  1.0000
  H   H5850     1.0  0.89434  0.53371  0.47681  1.0000
  H   H5851     1.0  0.75592  0.61735  0.61862  1.0000
  H   H5852     1.0  0.74534  0.89112  0.33524  1.0000
  C   C3293     1.0  0.77966  0.51130  0.56070  1.0000
  H   H5853     1.0  0.95139  0.56215  0.36349  1.0000
  H   H5854     1.0  0.96432  0.52932  0.42371  1.0000
  H   H5855     1.0  0.85572  0.68778  0.64138  1.0000
  H   H5856     1.0  0.75178  0.52065  0.61000  1.0000
  H   H5857     1.0  0.83315  0.51490  0.61790  1.0000
  H   H5858     1.0  0.76923  0.50266  0.54576  1.0000
  H   H5859     1.0  0.79650  0.50749  0.57830  1.0000
  H   H5860     1.0  0.74082  0.81881  0.34713  1.0000
  H   H5861     1.0  0.89014  0.51920  0.37350  1.0000
  C   C3294     1.0  0.79416  0.72353  0.64869  1.0000
  Fe  Fe365     1.0  0.75591  0.49786  0.39141  1.0000
  H   H5862     1.0  0.80004  0.69087  0.64502  1.0000
  H   H5863     1.0  0.97618  0.60169  0.36978  1.0000
  S   S730      1.0  0.75288  0.99183  0.32895  1.0000
  C   C3295     1.0  0.80432  0.93411  0.34697  1.0000
  Fe  Fe366     1.0  0.88744  0.67688  0.64850  1.0000
  C   C3296     1.0  0.96655  0.58117  0.36727  1.0000
  C   C3297     1.0  0.97453  0.59570  0.35746  1.0000
  H   H5864     1.0  0.77391  0.52373  0.34341  1.0000
  H   H5865     1.0  0.74326  0.53136  0.48670  1.0000
  C   C3298     1.0  0.80030  0.94506  0.32665  1.0000
  H   H5866     1.0  0.74094  0.51301  0.51189  1.0000
  C   C3299     1.0  0.75613  0.50447  0.49162  1.0000
  H   H5867     1.0  0.75209  0.98504  0.64637  1.0000
  S   S731      1.0  0.82724  0.78725  0.65275  1.0000
  H   H5868     1.0  0.86522  0.74933  0.65337  1.0000
  Fe  Fe367     1.0  0.96221  0.52458  0.32696  1.0000
  H   H5869     1.0  0.78060  0.50818  0.32372  1.0000
  H   H5870     1.0  0.97142  0.60950  0.34548  1.0000
  S   S732      1.0  0.76677  0.52863  0.65088  1.0000
  S   S733      1.0  0.74086  0.56774  0.34684  1.0000
  C   C3300     1.0  0.75911  0.60684  0.65069  1.0000
  C   C3301     1.0  0.78763  0.56387  0.64753  1.0000
  H   H5871     1.0  0.81306  0.93273  0.34395  1.0000
  C   C3302     1.0  0.76457  0.50275  0.58903  1.0000
  C   C3303     1.0  0.83976  0.62115  0.65265  1.0000
  H   H5872     1.0  0.74197  0.90545  0.37669  1.0000
  H   H5873     1.0  0.77869  0.99288  0.38361  1.0000
  S   S734      1.0  0.74721  0.49736  0.42518  1.0000
  H   H5874     1.0  0.79310  0.98235  0.35287  1.0000
  H   H5875     1.0  0.98213  0.58652  0.34945  1.0000
  S   S735      1.0  0.78573  0.76514  0.65301  1.0000
  H   H5876     1.0  0.94888  0.57238  0.32710  1.0000
  H   H5877     1.0  0.98674  0.51553  0.37645  1.0000
  S   S736      1.0  0.81341  0.88803  0.32179  1.0000
  Fe  Fe368     1.0  0.80170  0.59857  0.65284  1.0000
  C   C3304     1.0  0.79406  0.70162  0.65378  1.0000
  C   C3305     1.0  0.75699  0.50440  0.61081  1.0000
  H   H5878     1.0  0.76138  0.50091  0.62352  1.0000
  H   H5879     1.0  0.78676  0.93687  0.67992  1.0000
  S   S737      1.0  0.76040  0.95932  0.89056  1.0000
  H   H5880     1.0  0.77208  0.95529  0.70261  1.0000
  H   H5881     1.0  0.83660  0.94572  0.78595  1.0000
  C   C3306     1.0  0.86142  0.73588  0.66041  1.0000
  H   H5882     1.0  0.84961  0.93714  0.79209  1.0000
  Fe  Fe369     1.0  0.75631  0.92737  0.90502  1.0000
  S   S738      1.0  0.76891  0.89796  0.91169  1.0000
  C   C3307     1.0  0.74028  0.61143  0.67174  1.0000
  C   C3308     1.0  0.77548  0.88304  0.74980  1.0000
  C   C3309     1.0  0.84551  0.78092  0.76149  1.0000
  C   C3310     1.0  0.84423  0.80490  0.67816  1.0000
  Fe  Fe370     1.0  0.80132  0.90305  0.79841  1.0000
  S   S739      1.0  0.81635  0.90825  0.77484  1.0000
  S   S740      1.0  0.80314  0.88016  0.82919  1.0000
  Fe  Fe371     1.0  0.78749  0.93193  0.76927  1.0000
  S   S741      1.0  0.80133  0.93981  0.74331  1.0000
  S   S742      1.0  0.77027  0.94378  0.76724  1.0000
  Fe  Fe372     1.0  0.80856  0.90462  0.75092  1.0000
  H   H5883     1.0  0.91119  0.51556  0.79790  1.0000
  Fe  Fe373     1.0  0.80805  0.94290  0.76914  1.0000
  S   S743      1.0  0.74312  0.93852  0.93089  1.0000
  S   S744      1.0  0.79414  0.89642  0.77513  1.0000
  S   S745      1.0  0.79355  0.93797  0.79459  1.0000
  H   H5884     1.0  0.79589  0.83993  0.72860  1.0000
  H   H5885     1.0  0.76994  0.58018  0.68079  1.0000
  H   H5886     1.0  0.75753  0.56304  0.67616  1.0000
  H   H5887     1.0  0.84447  0.61374  0.68241  1.0000
  C   C3311     1.0  0.94800  0.50942  0.79239  1.0000
  N   N184      1.0  0.73896  0.87169  0.96032  1.0000
  H   H5888     1.0  0.83362  0.80842  0.70809  1.0000
  H   H5889     1.0  0.74345  0.61543  0.70036  1.0000
  C   C3312     1.0  0.81465  0.86983  0.71527  1.0000
  S   S746      1.0  0.88830  0.64710  0.67432  1.0000
  S   S747      1.0  0.81872  0.88850  0.72400  1.0000
  H   H5890     1.0  0.74424  0.94327  0.83697  1.0000
  H   H5891     1.0  0.77146  0.92792  0.68359  1.0000
  S   S748      1.0  0.97181  0.59535  0.74003  1.0000
  Fe  Fe374     1.0  0.95798  0.54731  0.75656  1.0000
  S   S749      1.0  0.95107  0.57675  0.76973  1.0000
  H   H5892     1.0  0.82256  0.99172  0.85063  1.0000
  Fe  Fe375     1.0  0.95565  0.59454  0.73622  1.0000
  S   S750      1.0  0.94332  0.62272  0.72342  1.0000
  Fe  Fe376     1.0  0.96775  0.57456  0.77243  1.0000
  S   S751      1.0  0.97006  0.57488  0.80447  1.0000
  S   S752      1.0  0.96146  0.56501  0.72300  1.0000
  S   S753      1.0  0.97428  0.54346  0.76169  1.0000
  H   H5893     1.0  0.78211  0.96360  0.89771  1.0000
  H   H5894     1.0  0.77530  0.98181  0.83528  1.0000
  H   H5895     1.0  0.91475  0.52400  0.75884  1.0000
  H   H5896     1.0  0.81137  0.77163  0.75952  1.0000
  H   H5897     1.0  0.78364  0.88407  0.74929  1.0000
  H   H5898     1.0  0.85037  0.69656  0.73420  1.0000
  H   H5899     1.0  0.74188  0.51932  0.77697  1.0000
  H   H5900     1.0  0.74675  0.57472  0.69419  1.0000
  H   H5901     1.0  0.80167  0.86515  0.74192  1.0000
  H   H5902     1.0  0.83870  0.70350  0.72337  1.0000
  C   C3313     1.0  0.75148  0.49914  0.80813  1.0000
  H   H5903     1.0  0.84765  0.73394  0.71571  1.0000
  H   H5904     1.0  0.79621  0.95079  0.69830  1.0000
  C   C3314     1.0  0.77951  0.88968  0.70306  1.0000
  C   C3315     1.0  0.74167  0.62551  0.68515  1.0000
  C   C3316     1.0  0.77620  0.53840  0.65705  1.0000
  C   C3317     1.0  0.93680  0.62049  0.70480  1.0000
  C   C3318     1.0  0.92682  0.63396  0.70275  1.0000
  C   C3319     1.0  0.92124  0.63183  0.68876  1.0000
  C   C3320     1.0  0.92566  0.61628  0.67660  1.0000
  C   C3321     1.0  0.93572  0.60315  0.67832  1.0000
  C   C3322     1.0  0.94131  0.60535  0.69221  1.0000
  C   C3323     1.0  0.74041  0.51384  0.81098  1.0000
  H   H5905     1.0  0.94908  0.59528  0.69322  1.0000
  H   H5906     1.0  0.83731  0.70093  0.75133  1.0000
  H   H5907     1.0  0.82369  0.65398  0.67071  1.0000
  C   C3324     1.0  0.80969  0.77075  0.74462  1.0000
  H   H5908     1.0  0.79603  0.98808  0.73816  1.0000
  H   H5909     1.0  0.75101  0.97579  0.76777  1.0000
  C   C3325     1.0  0.94663  0.52308  0.80579  1.0000
  Fe  Fe377     1.0  0.79573  0.64527  0.65506  1.0000
  C   C3326     1.0  0.76084  0.91037  0.83056  1.0000
  C   C3327     1.0  0.77567  0.85755  0.69561  1.0000
  H   H5910     1.0  0.94686  0.53971  0.79941  1.0000
  H   H5911     1.0  0.97850  0.57852  0.86825  1.0000
  H   H5912     1.0  0.74003  0.52398  0.82189  1.0000
  H   H5913     1.0  0.75931  0.89976  0.84648  1.0000
  C   C3328     1.0  0.77074  0.87846  0.70322  1.0000
  H   H5914     1.0  0.81909  0.98246  0.87894  1.0000
  C   C3329     1.0  0.80592  0.86096  0.72699  1.0000
  H   H5915     1.0  0.84401  0.76737  0.77506  1.0000
  H   H5916     1.0  0.94352  0.52599  0.83795  1.0000
  H   H5917     1.0  0.74806  0.63442  0.67678  1.0000
  C   C3330     1.0  0.76941  0.88052  0.77284  1.0000
  H   H5918     1.0  0.78759  0.99068  0.82181  1.0000
  C   C3331     1.0  0.80827  0.84058  0.70027  1.0000
  C   C3332     1.0  0.75671  0.89800  0.97912  1.0000
  C   C3333     1.0  0.73950  0.84912  0.97329  1.0000
  H   H5919     1.0  0.76062  0.92051  0.70350  1.0000
  H   H5920     1.0  0.75995  0.59796  0.69528  1.0000
  C   C3334     1.0  0.77946  0.52981  0.67618  1.0000
  C   C3335     1.0  0.78694  0.53809  0.68084  1.0000
  H   H5921     1.0  0.81516  0.70270  0.65735  1.0000
  C   C3336     1.0  0.74143  0.92982  0.83521  1.0000
  C   C3337     1.0  0.82144  0.68779  0.65739  1.0000
  H   H5922     1.0  0.76903  0.89460  0.77906  1.0000
  H   H5923     1.0  0.78949  0.53139  0.69562  1.0000
  H   H5924     1.0  0.78574  0.87767  0.71056  1.0000
  H   H5925     1.0  0.80937  0.75402  0.74551  1.0000
  H   H5926     1.0  0.75312  0.92738  0.80516  1.0000
  H   H5927     1.0  0.92334  0.64597  0.71214  1.0000
  C   C3338     1.0  0.76199  0.58189  0.69172  1.0000
  H   H5928     1.0  0.77629  0.51671  0.68733  1.0000
  H   H5929     1.0  0.82762  0.80440  0.68925  1.0000
  C   C3339     1.0  0.98150  0.57983  0.80894  1.0000
  S   S754      1.0  0.79996  0.56606  0.67289  1.0000
  C   C3340     1.0  0.85102  0.85257  0.74664  1.0000
  H   H5930     1.0  0.75549  0.56762  0.72439  1.0000
  C   C3341     1.0  0.79096  0.55524  0.66658  1.0000
  C   C3342     1.0  0.76988  0.90322  0.73569  1.0000
  C   C3343     1.0  0.85161  0.70115  0.67901  1.0000
  C   C3344     1.0  0.83783  0.92040  0.72024  1.0000
  C   C3345     1.0  0.81713  0.84916  0.68867  1.0000
  C   C3346     1.0  0.82697  0.94638  0.69481  1.0000
  S   S755      1.0  0.80343  0.82311  0.69138  1.0000
  C   C3347     1.0  0.95029  0.50570  0.90271  1.0000
  C   C3348     1.0  0.78533  0.91693  0.71255  1.0000
  C   C3349     1.0  0.82032  0.86369  0.69619  1.0000
  C   C3350     1.0  0.74004  0.87117  0.93757  1.0000
  H   H5931     1.0  0.84201  0.87635  0.72613  1.0000
  S   S756      1.0  0.80593  0.77004  0.68172  1.0000
  H   H5932     1.0  0.78299  0.92964  0.72180  1.0000
  H   H5933     1.0  0.74753  0.83894  0.96868  1.0000
  C   C3351     1.0  0.84533  0.72189  0.67543  1.0000
  C   C3352     1.0  0.86765  0.71503  0.66301  1.0000
  S   S757      1.0  0.95026  0.51923  0.76502  1.0000
  S   S758      1.0  0.78610  0.66626  0.67773  1.0000
  N   N185      1.0  0.77573  0.90889  0.71302  1.0000
  C   C3353     1.0  0.77825  0.89348  0.88847  1.0000
  C   C3354     1.0  0.77728  0.90733  0.86893  1.0000
  C   C3355     1.0  0.78484  0.90335  0.85051  1.0000
  C   C3356     1.0  0.79338  0.88558  0.85168  1.0000
  C   C3357     1.0  0.79433  0.87187  0.87125  1.0000
  C   C3358     1.0  0.78679  0.87582  0.88959  1.0000
  H   H5934     1.0  0.77068  0.92102  0.86793  1.0000
  H   H5935     1.0  0.78402  0.91394  0.83546  1.0000
  H   H5936     1.0  0.80092  0.85814  0.87223  1.0000
  H   H5937     1.0  0.78758  0.86511  0.90465  1.0000
  H   H5938     1.0  0.84789  0.68761  0.68604  1.0000
  H   H5939     1.0  0.82622  0.73870  0.74815  1.0000
  H   H5940     1.0  0.76177  0.90109  0.73668  1.0000
  H   H5941     1.0  0.82711  0.87043  0.68703  1.0000
  H   H5942     1.0  0.75167  0.99396  0.79359  1.0000
  Fe  Fe378     1.0  0.75633  0.51073  0.67829  1.0000
  H   H5943     1.0  0.79107  0.90401  0.72066  1.0000
  H   H5944     1.0  0.82978  0.76477  0.75964  1.0000
  S   S759      1.0  0.80939  0.61866  0.66338  1.0000
  H   H5945     1.0  0.84526  0.76851  0.70547  1.0000
  S   S760      1.0  0.86547  0.62195  0.67283  1.0000
  N   N186      1.0  0.91836  0.56684  0.74745  1.0000
  C   C3359     1.0  0.90943  0.56609  0.73818  1.0000
  C   C3360     1.0  0.91853  0.55023  0.76785  1.0000
  C   C3361     1.0  0.91580  0.58860  0.75280  1.0000
  C   C3362     1.0  0.92913  0.56377  0.73246  1.0000
  C   C3363     1.0  0.93102  0.54921  0.71672  1.0000
  C   C3364     1.0  0.90703  0.58473  0.71918  1.0000
  C   C3365     1.0  0.92358  0.59242  0.76399  1.0000
  H   H5946     1.0  0.94178  0.51413  0.90461  1.0000
  H   H5947     1.0  0.78090  0.86044  0.67960  1.0000
  C   C3366     1.0  0.94282  0.54319  0.70650  1.0000
  C   C3367     1.0  0.90066  0.57942  0.70641  1.0000
  C   C3368     1.0  0.92074  0.61551  0.76673  1.0000
  H   H5948     1.0  0.90188  0.56636  0.75047  1.0000
  H   H5949     1.0  0.91093  0.55083  0.73316  1.0000
  H   H5950     1.0  0.92502  0.55056  0.77501  1.0000
  H   H5951     1.0  0.91092  0.55393  0.77955  1.0000
  H   H5952     1.0  0.90762  0.59180  0.76285  1.0000
  H   H5953     1.0  0.91582  0.60147  0.73818  1.0000
  H   H5954     1.0  0.93065  0.57941  0.72252  1.0000
  H   H5955     1.0  0.93560  0.55766  0.74146  1.0000
  H   H5956     1.0  0.92671  0.55772  0.70385  1.0000
  H   H5957     1.0  0.82577  0.96272  0.68463  1.0000
  H   H5958     1.0  0.90226  0.59937  0.72493  1.0000
  H   H5959     1.0  0.91447  0.58866  0.70841  1.0000
  H   H5960     1.0  0.93183  0.58933  0.75452  1.0000
  H   H5961     1.0  0.92328  0.58202  0.78002  1.0000
  H   H5962     1.0  0.76139  0.94696  0.72364  1.0000
  H   H5963     1.0  0.76187  0.61426  0.66044  1.0000
  C   C3369     1.0  0.75178  0.86194  0.90319  1.0000
  H   H5964     1.0  0.79731  0.97858  0.88429  1.0000
  C   C3370     1.0  0.75372  0.57834  0.68148  1.0000
  H   H5965     1.0  0.92874  0.52136  0.75766  1.0000
  C   C3371     1.0  0.75695  0.96368  0.69432  1.0000
  H   H5966     1.0  0.84765  0.95656  0.76813  1.0000
  H   H5967     1.0  0.90535  0.56563  0.69921  1.0000
  H   H5968     1.0  0.89302  0.57569  0.71657  1.0000
  H   H5969     1.0  0.89884  0.59343  0.69345  1.0000
  C   C3372     1.0  0.79862  0.78455  0.74287  1.0000
  H   H5970     1.0  0.91268  0.61908  0.77698  1.0000
  H   H5971     1.0  0.80920  0.97561  0.84594  1.0000
  Fe  Fe379     1.0  0.87971  0.63651  0.65601  1.0000
  H   H5972     1.0  0.83526  0.76715  0.69386  1.0000
  C   C3373     1.0  0.76302  0.56537  0.71230  1.0000
  H   H5973     1.0  0.79664  0.78415  0.72806  1.0000
  N   N187      1.0  0.95877  0.53592  0.87597  1.0000
  C   C3374     1.0  0.95749  0.52193  0.89792  1.0000
  C   C3375     1.0  0.96413  0.55352  0.87506  1.0000
  C   C3376     1.0  0.94776  0.54660  0.87186  1.0000
  C   C3377     1.0  0.96475  0.52345  0.85905  1.0000
  H   H5974     1.0  0.81938  0.94445  0.70629  1.0000
  S   S761      1.0  0.74564  0.93073  0.88357  1.0000
  C   C3378     1.0  0.94733  0.56336  0.85070  1.0000
  C   C3379     1.0  0.97483  0.54685  0.88236  1.0000
  H   H5975     1.0  0.82909  0.93453  0.68469  1.0000
  H   H5976     1.0  0.73759  0.96576  0.80802  1.0000
  H   H5977     1.0  0.77597  0.86831  0.74459  1.0000
  C   C3380     1.0  0.93591  0.57180  0.84749  1.0000
  H   H5978     1.0  0.95409  0.53205  0.90990  1.0000
  N   N188      1.0  0.75013  0.59587  0.66351  1.0000
  H   H5979     1.0  0.96586  0.56314  0.85866  1.0000
  H   H5980     1.0  0.95859  0.56486  0.88476  1.0000
  H   H5981     1.0  0.94282  0.55462  0.88492  1.0000
  H   H5982     1.0  0.94353  0.53443  0.87162  1.0000
  H   H5983     1.0  0.95921  0.51683  0.85420  1.0000
  H   H5984     1.0  0.96812  0.53432  0.84442  1.0000
  S   S762      1.0  0.74730  0.52443  0.70652  1.0000
  C   C3381     1.0  0.92050  0.52657  0.76648  1.0000
  H   H5985     1.0  0.94742  0.53389  0.71873  1.0000
  H   H5986     1.0  0.77222  0.70165  0.69411  1.0000
  H   H5987     1.0  0.95217  0.55624  0.83708  1.0000
  H   H5988     1.0  0.95033  0.57744  0.85040  1.0000
  H   H5989     1.0  0.84238  0.82230  0.67101  1.0000
  H   H5990     1.0  0.78251  0.96581  0.72880  1.0000
  S   S763      1.0  0.75313  0.97615  0.83629  1.0000
  H   H5991     1.0  0.76844  0.91673  0.74349  1.0000
  H   H5992     1.0  0.78045  0.84597  0.70666  1.0000
  H   H5993     1.0  0.84027  0.90963  0.70896  1.0000
  H   H5994     1.0  0.76119  0.87879  0.77437  1.0000
  H   H5995     1.0  0.97429  0.53624  0.89829  1.0000
  S   S764      1.0  0.83140  0.72557  0.68303  1.0000
  H   H5996     1.0  0.93241  0.55855  0.84732  1.0000
  H   H5997     1.0  0.93087  0.58005  0.86024  1.0000
  H   H5998     1.0  0.93592  0.58343  0.83210  1.0000
  N   N189      1.0  0.81534  0.66973  0.69675  1.0000
  C   C3382     1.0  0.80935  0.65252  0.70963  1.0000
  C   C3383     1.0  0.80857  0.69169  0.69891  1.0000
  H   H5999     1.0  0.98160  0.67652  0.90645  1.0000
  C   C3384     1.0  0.82595  0.66624  0.70240  1.0000
  C   C3385     1.0  0.82567  0.66535  0.72567  1.0000
  C   C3386     1.0  0.81564  0.62911  0.70982  1.0000
  C   C3387     1.0  0.83581  0.94327  0.70639  1.0000
  C   C3388     1.0  0.80123  0.69421  0.72070  1.0000
  C   C3389     1.0  0.79653  0.71785  0.72110  1.0000
  C   C3390     1.0  0.83674  0.65598  0.73059  1.0000
  C   C3391     1.0  0.80845  0.61327  0.72137  1.0000
  H   H6000     1.0  0.92095  0.62693  0.75120  1.0000
  H   H6001     1.0  0.80194  0.65487  0.70396  1.0000
  H   H6002     1.0  0.80652  0.65364  0.72640  1.0000
  H   H6003     1.0  0.81369  0.70367  0.69389  1.0000
  H   H6004     1.0  0.80297  0.69714  0.68804  1.0000
  C   C3392     1.0  0.98050  0.49604  0.84491  1.0000
  H   H6005     1.0  0.97275  0.57406  0.89629  1.0000
  H   H6006     1.0  0.83139  0.65142  0.69788  1.0000
  H   H6007     1.0  0.83012  0.67924  0.69299  1.0000
  H   H6008     1.0  0.82027  0.65532  0.73689  1.0000
  H   H6009     1.0  0.82307  0.68184  0.72856  1.0000
  H   H6010     1.0  0.81906  0.62627  0.69369  1.0000
  H   H6011     1.0  0.82228  0.62528  0.71806  1.0000
  H   H6012     1.0  0.76323  0.92464  0.83181  1.0000
  H   H6013     1.0  0.75535  0.86729  0.96259  1.0000
  H   H6014     1.0  0.79446  0.68632  0.72376  1.0000
  H   H6015     1.0  0.80545  0.68703  0.73378  1.0000
  H   H6016     1.0  0.80296  0.72637  0.71887  1.0000
  H   H6017     1.0  0.79202  0.72564  0.70838  1.0000
  H   H6018     1.0  0.79099  0.71931  0.73652  1.0000
  H   H6019     1.0  0.83645  0.65642  0.74706  1.0000
  H   H6020     1.0  0.83952  0.63907  0.72887  1.0000
  H   H6021     1.0  0.84259  0.66532  0.71979  1.0000
  H   H6022     1.0  0.81311  0.59666  0.72112  1.0000
  H   H6023     1.0  0.80519  0.61468  0.73806  1.0000
  H   H6024     1.0  0.80175  0.61621  0.71347  1.0000
  H   H6025     1.0  0.79827  0.80138  0.74296  1.0000
  H   H6026     1.0  0.75170  0.87910  0.89580  1.0000
  H   H6027     1.0  0.97912  0.50773  0.87228  1.0000
  N   N190      1.0  0.84587  0.91529  0.73380  1.0000
  C   C3393     1.0  0.84192  0.92960  0.74949  1.0000
  C   C3394     1.0  0.78492  0.98274  0.85610  1.0000
  C   C3395     1.0  0.84628  0.89243  0.74612  1.0000
  C   C3396     1.0  0.85684  0.91712  0.72039  1.0000
  C   C3397     1.0  0.85988  0.93922  0.71531  1.0000
  C   C3398     1.0  0.84804  0.92371  0.76748  1.0000
  C   C3399     1.0  0.84887  0.87514  0.73292  1.0000
  H   H6028     1.0  0.84399  0.85012  0.75972  1.0000
  C   C3400     1.0  0.81754  0.66851  0.67383  1.0000
  C   C3401     1.0  0.87017  0.93994  0.69843  1.0000
  H   H6029     1.0  0.75769  0.50857  0.79990  1.0000
  H   H6030     1.0  0.80660  0.98134  0.70398  1.0000
  H   H6031     1.0  0.83347  0.92935  0.75731  1.0000
  H   H6032     1.0  0.84176  0.94664  0.74160  1.0000
  C   C3402     1.0  0.91946  0.51189  0.78849  1.0000
  Fe  Fe380     1.0  0.74849  0.96405  0.87123  1.0000
  H   H6033     1.0  0.83855  0.89100  0.75748  1.0000
  H   H6034     1.0  0.85239  0.88754  0.75586  1.0000
  H   H6035     1.0  0.86314  0.90544  0.72808  1.0000
  H   H6036     1.0  0.85791  0.91247  0.70516  1.0000
  H   H6037     1.0  0.86121  0.94229  0.72962  1.0000
  H   H6038     1.0  0.85361  0.95267  0.70971  1.0000
  H   H6039     1.0  0.84575  0.90949  0.77932  1.0000
  H   H6040     1.0  0.85679  0.91982  0.76141  1.0000
  H   H6041     1.0  0.85597  0.87686  0.71988  1.0000
  H   H6042     1.0  0.76955  0.56725  0.71839  1.0000
  H   H6043     1.0  0.76147  0.99451  0.95870  1.0000
  H   H6044     1.0  0.84306  0.94585  0.69409  1.0000
  C   C3403     1.0  0.83487  0.79914  0.69594  1.0000
  H   H6045     1.0  0.81665  0.77529  0.71118  1.0000
  C   C3404     1.0  0.81601  0.98760  0.86424  1.0000
  H   H6046     1.0  0.78984  0.99359  0.85633  1.0000
  C   C3405     1.0  0.75095  0.91728  0.82109  1.0000
  H   H6047     1.0  0.81482  0.98646  0.71839  1.0000
  H   H6048     1.0  0.76988  0.98217  0.78750  1.0000
  H   H6049     1.0  0.93922  0.59118  0.66889  1.0000
  C   C3406     1.0  0.98593  0.56622  0.82569  1.0000
  H   H6050     1.0  0.95229  0.49710  0.88976  1.0000
  H   H6051     1.0  0.82737  0.73962  0.72107  1.0000
  H   H6052     1.0  0.73942  0.67249  0.88155  1.0000
  H   H6053     1.0  0.76551  0.88894  0.69248  1.0000
  H   H6054     1.0  0.92823  0.53417  0.72431  1.0000
  C   C3407     1.0  0.74814  0.88040  0.96124  1.0000
  H   H6055     1.0  0.87230  0.95566  0.69554  1.0000
  C   C3408     1.0  0.80808  0.99373  0.71030  1.0000
  C   C3409     1.0  0.76818  0.92580  0.70091  1.0000
  H   H6056     1.0  0.80568  0.92533  0.70127  1.0000
  Fe  Fe381     1.0  0.97720  0.56416  0.72925  1.0000
  C   C3410     1.0  0.84677  0.61927  0.66550  1.0000
  H   H6057     1.0  0.76496  0.54884  0.70966  1.0000
  H   H6058     1.0  0.85385  0.78245  0.75908  1.0000
  C   C3411     1.0  0.76712  0.96859  0.75004  1.0000
  H   H6059     1.0  0.78352  0.89424  0.68619  1.0000
  C   C3412     1.0  0.75072  0.85788  0.92701  1.0000
  H   H6060     1.0  0.79621  0.91164  0.68250  1.0000
  C   C3413     1.0  0.84210  0.70632  0.73535  1.0000
  H   H6061     1.0  0.75054  0.89180  0.94616  1.0000
  C   C3414     1.0  0.98568  0.59782  0.79753  1.0000
  C   C3415     1.0  0.84389  0.77689  0.74149  1.0000
  H   H6062     1.0  0.81684  0.79597  0.72283  1.0000
  H   H6063     1.0  0.76570  0.87452  0.71921  1.0000
  Fe  Fe382     1.0  0.74633  0.97103  0.91462  1.0000
  H   H6064     1.0  0.92665  0.61793  0.77414  1.0000
  C   C3416     1.0  0.83220  0.77535  0.74401  1.0000
  C   C3417     1.0  0.76502  0.94811  0.70659  1.0000
  C   C3418     1.0  0.97829  0.56654  0.88344  1.0000
  H   H6065     1.0  0.75775  0.86181  0.92948  1.0000
  H   H6066     1.0  0.80489  0.94162  0.67540  1.0000
  H   H6067     1.0  0.94598  0.55774  0.69799  1.0000
  H   H6068     1.0  0.82728  0.79160  0.74555  1.0000
  H   H6069     1.0  0.86914  0.93797  0.68335  1.0000
  H   H6070     1.0  0.79472  0.94569  0.92157  1.0000
  H   H6071     1.0  0.74519  0.85730  0.89969  1.0000
  C   C3419     1.0  0.84226  0.73002  0.73131  1.0000
  H   H6072     1.0  0.96532  0.51265  0.90138  1.0000
  H   H6073     1.0  0.75108  0.84050  0.93356  1.0000
  C   C3420     1.0  0.78619  0.69367  0.67023  1.0000
  S   S765      1.0  0.81803  0.96772  0.76138  1.0000
  H   H6074     1.0  0.77521  0.95157  0.93606  1.0000
  H   H6075     1.0  0.75503  0.97955  0.69851  1.0000
  C   C3421     1.0  0.77820  0.72964  0.67588  1.0000
  N   N191      1.0  0.79628  0.94968  0.87680  1.0000
  C   C3422     1.0  0.79149  0.95941  0.85753  1.0000
  C   C3423     1.0  0.80294  0.92739  0.87573  1.0000
  C   C3424     1.0  0.78712  0.94762  0.89575  1.0000
  C   C3425     1.0  0.80267  0.96366  0.87984  1.0000
  C   C3426     1.0  0.77457  0.97550  0.73203  1.0000
  H   H6076     1.0  0.84970  0.76224  0.73796  1.0000
  C   C3427     1.0  0.79011  0.93652  0.91741  1.0000
  C   C3428     1.0  0.80930  0.92333  0.85365  1.0000
  C   C3429     1.0  0.81735  0.90192  0.85547  1.0000
  C   C3430     1.0  0.80275  0.84646  0.71950  1.0000
  H   H6077     1.0  0.84593  0.79042  0.72838  1.0000
  C   C3431     1.0  0.78008  0.93526  0.93498  1.0000
  H   H6078     1.0  0.78629  0.94928  0.85663  1.0000
  H   H6079     1.0  0.79768  0.95966  0.84272  1.0000
  H   H6080     1.0  0.80862  0.92260  0.88641  1.0000
  H   H6081     1.0  0.79780  0.91537  0.88175  1.0000
  H   H6082     1.0  0.78185  0.93849  0.89339  1.0000
  H   H6083     1.0  0.76758  0.90155  0.82019  1.0000
  H   H6084     1.0  0.79256  0.77839  0.75646  1.0000
  H   H6085     1.0  0.80652  0.95566  0.89347  1.0000
  H   H6086     1.0  0.83332  0.95567  0.71593  1.0000
  H   H6087     1.0  0.81855  0.95577  0.85996  1.0000
  H   H6088     1.0  0.81028  0.66689  0.66990  1.0000
  C   C3432     1.0  0.94474  0.51532  0.82765  1.0000
  H   H6089     1.0  0.76928  0.85023  0.69491  1.0000
  H   H6090     1.0  0.79485  0.91997  0.91737  1.0000
  H   H6091     1.0  0.80372  0.92280  0.84435  1.0000
  H   H6092     1.0  0.81370  0.93597  0.84448  1.0000
  H   H6093     1.0  0.82125  0.89887  0.83945  1.0000
  H   H6094     1.0  0.82357  0.90216  0.86335  1.0000
  H   H6095     1.0  0.81330  0.88863  0.86457  1.0000
  H   H6096     1.0  0.84006  0.79599  0.76525  1.0000
  H   H6097     1.0  0.84560  0.73175  0.74388  1.0000
  H   H6098     1.0  0.76034  0.96570  0.67710  1.0000
  H   H6099     1.0  0.77360  0.86601  0.78259  1.0000
  C   C3433     1.0  0.77832  0.70770  0.68137  1.0000
  C   C3434     1.0  0.80015  0.93643  0.69148  1.0000
  C   C3435     1.0  0.79186  0.92524  0.69025  1.0000
  H   H6100     1.0  0.77518  0.92584  0.93198  1.0000
  H   H6101     1.0  0.78236  0.92732  0.95035  1.0000
  N   N192      1.0  0.82977  0.76811  0.72680  1.0000
  C   C3436     1.0  0.83668  0.77468  0.70537  1.0000
  C   C3437     1.0  0.83087  0.74411  0.73200  1.0000
  C   C3438     1.0  0.81832  0.77824  0.72529  1.0000
  C   C3439     1.0  0.81179  0.96981  0.86110  1.0000
  H   H6102     1.0  0.75996  0.90780  0.96362  1.0000
  H   H6103     1.0  0.86748  0.68153  0.67472  1.0000
  C   C3440     1.0  0.86273  0.69769  0.67252  1.0000
  H   H6104     1.0  0.94393  0.53318  0.69502  1.0000
  H   H6105     1.0  0.73871  0.94606  0.79419  1.0000
  S   S766      1.0  0.74176  0.50704  0.67067  1.0000
  H   H6106     1.0  0.82140  0.84494  0.67374  1.0000
  C   C3441     1.0  0.98687  0.67750  0.89045  1.0000
  H   H6107     1.0  0.91350  0.64208  0.68753  1.0000
  H   H6108     1.0  0.84552  0.75532  0.66322  1.0000
  H   H6109     1.0  0.83292  0.99268  0.75588  1.0000
  H   H6110     1.0  0.83001  0.91744  0.73035  1.0000
  H   H6111     1.0  0.75947  0.85229  0.89607  1.0000
  H   H6112     1.0  0.85811  0.84987  0.75333  1.0000
  C   C3442     1.0  0.78617  0.73757  0.65971  1.0000
  H   H6113     1.0  0.98122  0.49559  0.93612  1.0000
  Fe  Fe383     1.0  0.81035  0.80201  0.66703  1.0000
  H   H6114     1.0  0.77199  0.74048  0.68433  1.0000
  C   C3443     1.0  0.74632  0.89289  0.97867  1.0000
  H   H6115     1.0  0.77781  0.98380  0.86916  1.0000
  S   S767      1.0  0.91869  0.61182  0.65996  1.0000
  H   H6116     1.0  0.74947  0.95782  0.69829  1.0000
  H   H6117     1.0  0.74055  0.90839  0.97544  1.0000
  H   H6118     1.0  0.98285  0.55217  0.83435  1.0000
  C   C3444     1.0  0.84530  0.94194  0.77906  1.0000
  H   H6119     1.0  0.92506  0.51379  0.79697  1.0000
  H   H6120     1.0  0.87683  0.92712  0.70367  1.0000
  H   H6121     1.0  0.98641  0.56168  0.88675  1.0000
  H   H6122     1.0  0.85255  0.84058  0.73692  1.0000
  S   S768      1.0  0.74763  0.99216  0.93407  1.0000
  C   C3445     1.0  0.97378  0.50397  0.86466  1.0000
  H   H6123     1.0  0.98124  0.53878  0.87099  1.0000
  H   H6124     1.0  0.80402  0.98131  0.79998  1.0000
  H   H6125     1.0  0.84573  0.79588  0.66565  1.0000
  C   C3446     1.0  0.77451  0.99324  0.78847  1.0000
  Fe  Fe384     1.0  0.82229  0.75579  0.66561  1.0000
  H   H6126     1.0  0.96479  0.51179  0.71881  1.0000
  C   C3447     1.0  0.77162  0.99473  0.71777  1.0000
  C   C3448     1.0  0.75679  0.98115  0.75393  1.0000
  C   C3449     1.0  0.85026  0.73928  0.66612  1.0000
  H   H6127     1.0  0.97855  0.50628  0.73922  1.0000
  H   H6128     1.0  0.74002  0.91948  0.85129  1.0000
  H   H6129     1.0  0.83211  0.61695  0.65964  1.0000
  H   H6130     1.0  0.94990  0.49710  0.93652  1.0000
  H   H6131     1.0  0.73897  0.88785  0.92782  1.0000
  H   H6132     1.0  0.73919  0.54218  0.74686  1.0000
  H   H6133     1.0  0.74079  0.55929  0.67276  1.0000
  C   C3450     1.0  0.73861  0.57216  0.65929  1.0000
  H   H6134     1.0  0.98501  0.69418  0.88122  1.0000
  H   H6135     1.0  0.98493  0.50822  0.83426  1.0000
  H   H6136     1.0  0.97707  0.51852  0.70249  1.0000
  H   H6137     1.0  0.74908  0.90268  0.81943  1.0000
  H   H6138     1.0  0.85156  0.80120  0.68437  1.0000
  H   H6139     1.0  0.74253  0.54140  0.78559  1.0000
  C   C3451     1.0  0.97330  0.50511  0.71255  1.0000
  C   C3452     1.0  0.81056  0.98944  0.79461  1.0000
  C   C3453     1.0  0.81842  0.98513  0.77670  1.0000
  C   C3454     1.0  0.78088  0.99127  0.83573  1.0000
  H   H6140     1.0  0.82839  0.69078  0.66094  1.0000
  H   H6141     1.0  0.78197  0.98331  0.79318  1.0000
  H   H6142     1.0  0.98219  0.60867  0.78482  1.0000
  H   H6143     1.0  0.76273  0.88303  0.98277  1.0000
  C   C3455     1.0  0.85679  0.62437  0.65650  1.0000
  H   H6144     1.0  0.98521  0.66672  0.88235  1.0000
  C   C3456     1.0  0.73807  0.52841  0.78964  1.0000
