data_image0
_chemical_formula_structural       CSHFeS2FeSFeS2CHSHFeS2FeSFeS3FeS2FeS2FeSFeS3FeHSFeCSHFeSHSH3C6H6CHC6H4C6H5C7H4C6H6C6H3C6H14C2HSHC4HCH2C2H22CHNC10H15CH5SH5SH4NC12H17CH6CFeH2CH2CHCHCH4CH6CH5SC2SHCH2NCH2CH5CH5C2H2C2H5CHCHCH2CHCHCH5CHC4H4C2H2C3HCH3CH4CH5C6H3CH2CH2CH7CSH2C2NCHC2HC2HCH6CH9CH2FeSCH6NH3NH2CH2CHCH2CFe2S2FeS2FeSFeHS2FeS2FeHSCFeSNSFeNSFeS2FeSH2S2FeS2HSHFeSFeS2HC3HCH3C6H3CH2C3H2CHC7H4C6H5C6H4C6H3C6H4C6H3NC11H5CH8CH15CH2CH4CNH3C3HCHCHC3HC2H4NCHCH2C2HCHCH4CH11CH4SH2C2HCH4NC5HC2HCH14CH12CH17CH4CHCH6CH2CH5C3HSH3CH3C3HCH2NC3HCH3CH3CH2CH4SH3C2H4CSHC3H4CH5SHNS2CSCH2CHCSCH5CHCH2C2H3CHCHC2H2CH3NH8CH9CHC2H4FeHCH2CH2C2H3CSFeS2FeCSH2FeS3FeS2FeHSFeHSHS2HCHC6H5C3H2C6H5CFeNH3CHCH2SCHCH8C2H5CHCHC2H2CH2CH2C3HSHC2HC3H7NCH2C2HCH2FeH3CHCH6CHCH7C2HSHSFeS2FeS2CHFeS3FeS2FeS2FeSCHS2C7H5C3H3C2H4C5H2C7H4CH3CH2NHCH3CH7C3H4CHCNHCH4C2H5CH5CHC3HCH5CH3C2H2C3H2CNC5HC2HCH3FeH2CH12CH6CHCHCH3CH4C2H2NHCH3C2NHCH2C2H3FeCHCHCHC2H8CH6CHFeH3CH2NH2SHSHFeSHFeSFeS2CFeS2CSCFeSFeS2C7HCH2C4H3FeHC4H3CHC6H4C3HCHCH2NC3NH2CH2C2H9C2H4CHC3H7CH2CH9C2H4CH7C3HCH4C2H3C2SHNCFeSCHCH9CH5CH2CHFeCH3CH3CH3SCH2C2H2SHC2H2CH3SFeS2FeSHFeSFeSCSFeS2FeS2H2FeHS2H3C2H2C6H4C6H5C3H4C2H2NC2HCH2CHCHCHCHCH4CH3C2H3C2H4C3HCFeH7CHCHC2H2CHCHFeNH2CHC2HCHCH2CH5CH3CH2CH2CH7CHSC2H5CSH12FeSHFeSHFeSFeS3FeHSFeS2H2FeS3FeS2FeHSFeSHS2FeS2FeS2FeSFeCS2H4C6H4C6HCHC6H2C6H4C6H4C2HCH2C6H4C6H4C6H6C2H7CH5NH3C3H3C2HN2HCHNC12H26CH2CH5CHC2H9CH6CHCHCHCHNCH2C3H2C2H4CH6CH9CHS2HSH5CHC2HCHC2NH2CHCH11CHCH4C2HC2H5CH4SCH4SHC3NH10CHCH3CHC3H3CHCH2CHC3H4SHC2HC2H3NHCH3FeCH3CHCH2CHCHCH4C2H2CH3CH2NH3C3H3CSHC2H5FeCH4C2H3CHCHCH8NC2HCFeHSFeS2FeSHS2FeS2FeS2FeCFeS3FeS2FeS2FeSCHS2FeS2FeS2FeSFeS3H2C6H6C6H5C6H4C6H3C6H4C6H3C6H6C2H2CH7CH3C3H4CHCH7CHC2HNC4HC5NH20CHCH2C2HC3H5C2HCH4CHCH2CH3CH7C2H3NC12H29NH6C2H2CHCH3CH2CH6CH2CH2C2H2CH2FeHCH3NC6H3C2H3CH4CHCH3CHC2H4CH3CH5CH4C2H5C2SCSCHSH4N2H2CH3CH2CHCH9C3NHCHNCH7C2HCHSHC4HCHC2H2CHCH3CH5CH3CH6CH2CH2CH4SHCH11CHCHC2H4CH4CHFeS2FeS2H2FeS3FeSHFeS2FeSFeS3FeS2FeS2FeSFeHS2CSFeS2FeSFeSHSH2C3HCH2C6H4C6H4C2H2CH3C6H4C7H4C6H4C6H3C7H3NC8HC3H28NC2H5C3HCH6CH3CHCNH5NC3H8C2HCH5CH3C2H8CH4CH5CHCH2CH2SHCHC2H10CNCH2CH3C2HC2H2CH8CH2CHCH6CH2C6H3C3HFeH7CH2CH2SCHC3NHCHC2SH4CNHCHC2HC3H4CHCHC3SH5CH5CHCHCNH2NHCH2CHCHFeH2CH3CH4CH2CH5SHC2H2CH6NC2FeHSFeHSHFeS3FeS2FeS2FeSH2S2FeS2FeS2H2FeS3FeS2FeS2FeSFeCS2HC6H5C6H4C6H4C6H4C6H4C6H3C6H3NC6HCHC2H3CHCH4SH5CH3CH13CH6CHCH3CH3CH3SHNHFeCHFeCH2CHCHC2HCHC2H3CH2CH2C4H3SHNC3H3C2H4NH6NC10H20CH7CH2C2H2CH4CHCH6CH2CH2C2HCHNCH4CH8C2HCHCH4CH8CH2CH5SC2H6CHCH2SH5C2NCH5C2HCSH3CH6C3SH5C3HCHCH3CH9CHCH2CH3CSCSCFeS2FeSFeHSHFeS2FeCSFeCFeHS2HSC6H2C2HC3H5C3H5C7H5C4H3CH4NCHCH2CH4SHCH3CH5NHC4HC3HC3H7CH5CHFeCHC2H7CHCH6CH2CH8C2H5CNHC4H2CH6C5H6SH7CHCHCHSHC2H3CH4C2H5C2NH4CH2C3HNHCH3CH2CHCH3CH2CNHCHC3H3FeS2FeS2FeCFeCS2FeCSFeS2CHFeS4CH3C6H5CH3C6H4C5H8CHNSC3HCHSHC2HC2H2CH3CH2CH3C2H3CH2CH6CH4CH2CH6CH2SHCHCH2CH6C2H9CH2CH3NHCH3CHFeCH2CH5CH2C2H2CH2CHCNCH8CH4CH2SH2CHSFeS2HSHFeSFeS2CFeSCFeS2FeSFeS3H2C6H2CHC6H4C4H4CH10CH2C3H5C3H4C2H4CH4CH2CHC2HCHC3HCH13CH2NC11H14CH2CH4CH3CHCH2NH3FeH5CH2C5HCHSH2NC2H6NH3CH4CH8CH2CH4SFeS2FeSHFeSFeS3CSCFeS2FeSFeS3C6H5C2H2FeC4H5C3HCHC7H11CHCH5C2HC5H3C2HNCHCHNHCH4CH5CH2CH5CH5C2HCHNH13C3H5C2HC3HCH3C2H2CH4CH8CHCH2CH2CH5CH2CH2CHCH2CH5C2H3Fe2S2FeS2FeSFeS3HSHFeS2FeSFeS3HSCFeSHFeSFeS2HFe2SFeS2FeSHS2C6HCH3C5H3CHC6H7CH2C6H4C6H3C7H3C6H14C3H2CH4C5H2CH2SHCH3C2H2CSH2CH6CH2CH3CH2CH3CHC3H5CH5C2HNC3H2C3HCH7CH5CH6NH5CHCH4CFeH4NHS2H2C2HC2H5C2HC2H5CH4CH11C2H4C2HCNC12H21CH5CH2CH2CH5CSHC2H4CH2CHC2H6CHC2H4SH2SCH2NH3CH3C2NC2H4CHCHCH6CH4CH3CH3CH3CNC2H6CFeHFeS2FeS2FeSFeS3FeS2FeHSHFeS3FeHSFeS2CHFeS3FeS2FeHSH2FeHS2H2C3H5C4HCH2CH3C3H3C6H4C6H3C6H4C6H4CNC6H4C6H5C2H2CH4CH2NC6HCHC2H15CHCH10CHNHC2H6C2HCH3C2H2CH4NH12NC4HC3HCH9CH15CHSH2CHCH2CH4NHCHCHC2H3CFeCSHCHC2HCHC2H2CH3CH3SH2SN2HCNC3HCSH4C2HSH4CH2CH3CHCH3CH2CH2C2H3CH2C2HCHSH2FeC2H4CHCHCH2CH5CH3C2H3CH2CHC2H2CHCHCHFeH10CHCH2C4H3C2H
_chemical_formula_sum              "C1728 S384 H3072 Fe192 N96"
_cell_length_a       59.3563
_cell_length_b       59.4711
_cell_length_c       64.5072
_cell_angle_alpha    86.6602
_cell_angle_beta     86.7169
_cell_angle_gamma    87.3134

_space_group_name_H-M_alt    "P 1"
_space_group_IT_number       1

loop_
  _space_group_symop_operation_xyz
  'x, y, z'

loop_
  _atom_site_type_symbol
  _atom_site_label
  _atom_site_symmetry_multiplicity
  _atom_site_fract_x
  _atom_site_fract_y
  _atom_site_fract_z
  _atom_site_occupancy
  C   C1        1.0  0.37620  0.00582  0.09622  1.0000
  S   S1        1.0  0.10342  0.36285  0.20929  1.0000
  H   H1        1.0  0.28858  0.00640  0.22479  1.0000
  Fe  Fe1       1.0  0.08902  0.29938  0.20592  1.0000
  S   S2        1.0  0.08055  0.32602  0.18104  1.0000
  S   S3        1.0  0.07369  0.26485  0.21000  1.0000
  Fe  Fe2       1.0  0.11558  0.33870  0.18495  1.0000
  S   S4        1.0  0.14259  0.34450  0.15859  1.0000
  Fe  Fe3       1.0  0.06912  0.34768  0.20748  1.0000
  S   S5        1.0  0.03457  0.36545  0.21404  1.0000
  S   S6        1.0  0.12461  0.31003  0.20781  1.0000
  C   C2        1.0  0.44535  0.06355  0.99065  1.0000
  H   H2        1.0  0.42365  0.16495  0.23229  1.0000
  S   S7        1.0  0.08761  0.08116  0.21127  1.0000
  H   H3        1.0  0.43013  0.05326  0.99150  1.0000
  Fe  Fe4       1.0  0.09414  0.14000  0.18313  1.0000
  S   S8        1.0  0.07725  0.11197  0.16868  1.0000
  S   S9        1.0  0.10150  0.17373  0.16648  1.0000
  Fe  Fe5       1.0  0.05994  0.10597  0.20052  1.0000
  S   S10       1.0  0.02298  0.09993  0.21136  1.0000
  Fe  Fe6       1.0  0.10632  0.08964  0.18057  1.0000
  S   S11       1.0  0.12535  0.06185  0.16252  1.0000
  S   S12       1.0  0.07534  0.13546  0.21407  1.0000
  S   S13       1.0  0.12416  0.11811  0.19254  1.0000
  Fe  Fe7       1.0  0.28093  0.40642  0.08834  1.0000
  S   S14       1.0  0.25148  0.43165  0.08854  1.0000
  S   S15       1.0  0.28547  0.38177  0.06271  1.0000
  Fe  Fe8       1.0  0.29828  0.42261  0.12784  1.0000
  S   S16       1.0  0.27074  0.44963  0.13043  1.0000
  S   S17       1.0  0.32553  0.42054  0.15121  1.0000
  Fe  Fe9       1.0  0.24750  0.42254  0.12296  1.0000
  S   S18       1.0  0.21478  0.42145  0.14365  1.0000
  Fe  Fe10      1.0  0.27711  0.45642  0.09594  1.0000
  S   S19       1.0  0.31524  0.00872  0.09698  1.0000
  S   S20       1.0  0.27500  0.39521  0.12220  1.0000
  S   S21       1.0  0.30659  0.43160  0.09392  1.0000
  Fe  Fe11      1.0  0.28897  0.03531  0.08809  1.0000
  H   H4        1.0  0.30446  0.28378  0.01054  1.0000
  S   S22       1.0  0.28827  0.05734  0.05831  1.0000
  Fe  Fe12      1.0  0.31006  0.02163  0.12927  1.0000
  C   C3        1.0  0.42557  0.16956  0.21535  1.0000
  S   S23       1.0  0.33886  0.02630  0.15020  1.0000
  H   H5        1.0  0.17301  0.10931  0.03622  1.0000
  Fe  Fe13      1.0  0.25848  0.02657  0.12801  1.0000
  S   S24       1.0  0.23241  0.04700  0.14790  1.0000
  H   H6        1.0  0.24101  0.39079  0.21771  1.0000
  S   S25       1.0  0.28656  0.05004  0.11930  1.0000
  H   H7        1.0  0.39500  0.11059  0.15847  1.0000
  H   H8        1.0  0.41807  0.11553  0.05509  1.0000
  H   H9        1.0  0.35658  0.44182  0.07805  1.0000
  C   C4        1.0  0.15516  0.05771  0.15888  1.0000
  C   C5        1.0  0.16422  0.03801  0.14989  1.0000
  C   C6        1.0  0.18778  0.03431  0.14643  1.0000
  C   C7        1.0  0.20256  0.05039  0.15183  1.0000
  C   C8        1.0  0.19349  0.07008  0.16081  1.0000
  C   C9        1.0  0.16997  0.07374  0.16430  1.0000
  H   H10       1.0  0.15292  0.02549  0.14563  1.0000
  H   H11       1.0  0.19448  0.01899  0.13968  1.0000
  H   H12       1.0  0.20473  0.08269  0.16497  1.0000
  H   H13       1.0  0.16323  0.08916  0.17080  1.0000
  H   H14       1.0  0.38951  0.33808  0.05904  1.0000
  H   H15       1.0  0.37318  0.37157  0.07578  1.0000
  C   C10       1.0  0.21685  0.03273  0.22279  1.0000
  H   H16       1.0  0.37020  0.05016  0.04195  1.0000
  C   C11       1.0  0.08184  0.23996  0.19742  1.0000
  C   C12       1.0  0.09877  0.23935  0.18148  1.0000
  C   C13       1.0  0.10439  0.21903  0.17183  1.0000
  C   C14       1.0  0.09341  0.19917  0.17828  1.0000
  C   C15       1.0  0.07634  0.19990  0.19408  1.0000
  C   C16       1.0  0.07060  0.22020  0.20362  1.0000
  H   H17       1.0  0.10740  0.25453  0.17649  1.0000
  H   H18       1.0  0.11747  0.21865  0.15944  1.0000
  H   H19       1.0  0.06740  0.18486  0.19878  1.0000
  H   H20       1.0  0.38093  0.22348  0.98825  1.0000
  C   C17       1.0  0.16317  0.36553  0.15562  1.0000
  C   C18       1.0  0.16017  0.38604  0.16523  1.0000
  C   C19       1.0  0.17602  0.40293  0.16108  1.0000
  C   C20       1.0  0.19541  0.39939  0.14790  1.0000
  C   C21       1.0  0.19867  0.37873  0.13860  1.0000
  C   C22       1.0  0.18250  0.36203  0.14227  1.0000
  H   H21       1.0  0.14520  0.38919  0.17518  1.0000
  H   H22       1.0  0.17296  0.41911  0.16762  1.0000
  H   H23       1.0  0.21339  0.37576  0.12829  1.0000
  H   H24       1.0  0.18490  0.34634  0.13460  1.0000
  H   H25       1.0  0.20506  0.01899  0.22652  1.0000
  C   C23       1.0  0.38985  0.34334  0.09228  1.0000
  C   C24       1.0  0.33928  0.08566  0.19265  1.0000
  C   C25       1.0  0.32348  0.08569  0.17726  1.0000
  C   C26       1.0  0.32291  0.06744  0.16441  1.0000
  C   C27       1.0  0.33853  0.04923  0.16649  1.0000
  C   C28       1.0  0.35445  0.04926  0.18180  1.0000
  C   C29       1.0  0.35464  0.06726  0.19504  1.0000
  H   H26       1.0  0.31158  0.09989  0.17528  1.0000
  H   H27       1.0  0.31057  0.06765  0.15274  1.0000
  H   H28       1.0  0.36665  0.03526  0.18346  1.0000
  H   H29       1.0  0.36707  0.06718  0.20668  1.0000
  C   C30       1.0  0.33873  0.35632  0.19231  1.0000
  C   C31       1.0  0.32210  0.35697  0.17766  1.0000
  C   C32       1.0  0.31735  0.37681  0.16551  1.0000
  C   C33       1.0  0.32967  0.39596  0.16748  1.0000
  C   C34       1.0  0.34624  0.39535  0.18221  1.0000
  C   C35       1.0  0.35066  0.37563  0.19472  1.0000
  H   H30       1.0  0.31284  0.34206  0.17572  1.0000
  H   H31       1.0  0.30453  0.37707  0.15427  1.0000
  H   H32       1.0  0.35581  0.41012  0.18387  1.0000
  H   H33       1.0  0.37260  0.09142  0.15741  1.0000
  H   H34       1.0  0.02054  0.36953  0.17128  1.0000
  H   H35       1.0  0.40234  0.34046  0.10438  1.0000
  C   C36       1.0  0.31378  0.06379  0.04441  1.0000
  C   C37       1.0  0.33430  0.05294  0.04949  1.0000
  C   C38       1.0  0.35438  0.05876  0.03825  1.0000
  C   C39       1.0  0.35410  0.07552  0.02203  1.0000
  C   C40       1.0  0.33351  0.08598  0.01664  1.0000
  C   C41       1.0  0.31341  0.08009  0.02779  1.0000
  H   H36       1.0  0.33470  0.04010  0.06205  1.0000
  H   H37       1.0  0.33310  0.09884  0.00407  1.0000
  H   H38       1.0  0.29755  0.08841  0.02369  1.0000
  C   C42       1.0  0.35246  0.37377  0.02431  1.0000
  C   C43       1.0  0.34901  0.39147  0.03776  1.0000
  C   C44       1.0  0.32845  0.39423  0.04944  1.0000
  C   C45       1.0  0.31138  0.37905  0.04810  1.0000
  C   C46       1.0  0.31486  0.36132  0.03471  1.0000
  C   C47       1.0  0.33534  0.35865  0.02288  1.0000
  H   H39       1.0  0.36214  0.40329  0.03888  1.0000
  H   H40       1.0  0.32572  0.40826  0.05927  1.0000
  H   H41       1.0  0.30172  0.34950  0.03362  1.0000
  H   H42       1.0  0.33796  0.34474  0.01287  1.0000
  H   H43       1.0  0.37064  0.00604  0.08004  1.0000
  H   H44       1.0  0.00087  0.26602  0.15229  1.0000
  H   H45       1.0  0.37368  0.19457  0.14876  1.0000
  H   H46       1.0  0.34062  0.17791  0.18419  1.0000
  H   H47       1.0  0.28907  0.43238  0.04562  1.0000
  H   H48       1.0  0.32500  0.43936  0.02429  1.0000
  H   H49       1.0  0.12744  0.02373  0.20342  1.0000
  H   H50       1.0  0.21972  0.04695  0.08186  1.0000
  H   H51       1.0  0.02873  0.25434  0.19057  1.0000
  H   H52       1.0  0.01962  0.22301  0.16925  1.0000
  C   C48       1.0  0.15393  0.18003  0.19302  1.0000
  C   C49       1.0  0.29174  0.44849  0.03639  1.0000
  H   H53       1.0  0.27525  0.45548  0.03105  1.0000
  S   S26       1.0  0.25931  0.01373  0.09571  1.0000
  H   H54       1.0  0.30812  0.05273  0.21598  1.0000
  C   C50       1.0  0.32725  0.18850  0.22570  1.0000
  C   C51       1.0  0.18494  0.38341  0.22180  1.0000
  C   C52       1.0  0.25675  0.38658  0.20846  1.0000
  C   C53       1.0  0.19037  0.10608  0.22393  1.0000
  H   H55       1.0  0.29739  0.35550  0.99001  1.0000
  C   C54       1.0  0.00596  0.36543  0.18138  1.0000
  H   H56       1.0  0.17290  0.03360  0.09990  1.0000
  H   H57       1.0  0.29846  0.46062  0.04667  1.0000
  C   C55       1.0  0.30852  0.44490  0.01788  1.0000
  C   C56       1.0  0.32775  0.47951  0.14077  1.0000
  H   H58       1.0  0.35655  0.16740  0.21669  1.0000
  H   H59       1.0  0.26566  0.08534  0.23036  1.0000
  H   H60       1.0  0.26834  0.40058  0.20921  1.0000
  H   H61       1.0  0.15993  0.35874  0.21676  1.0000
  H   H62       1.0  0.00992  0.31843  0.19287  1.0000
  H   H63       1.0  0.34619  0.27951  0.01180  1.0000
  H   H64       1.0  0.49270  0.11462  0.99015  1.0000
  H   H65       1.0  0.14243  0.19081  0.18335  1.0000
  H   H66       1.0  0.17141  0.18180  0.18622  1.0000
  H   H67       1.0  0.14939  0.16220  0.19243  1.0000
  H   H68       1.0  0.34584  0.26965  0.21572  1.0000
  H   H69       1.0  0.31745  0.47222  0.15422  1.0000
  H   H70       1.0  0.31410  0.02298  0.19739  1.0000
  H   H71       1.0  0.17802  0.12405  0.19609  1.0000
  H   H72       1.0  0.42250  0.17235  0.00269  1.0000
  H   H73       1.0  0.03343  0.34380  0.13906  1.0000
  H   H74       1.0  0.43946  0.09272  0.05606  1.0000
  H   H75       1.0  0.42178  0.09667  0.03420  1.0000
  H   H76       1.0  0.17890  0.03888  0.07230  1.0000
  H   H77       1.0  0.24102  0.08204  0.07255  1.0000
  H   H78       1.0  0.15027  0.10282  0.13369  1.0000
  H   H79       1.0  0.04919  0.22867  0.16585  1.0000
  C   C57       1.0  0.37404  0.24463  0.21645  1.0000
  H   H80       1.0  0.05578  0.32639  0.12744  1.0000
  N   N1        1.0  0.36797  0.37758  0.10855  1.0000
  C   C58       1.0  0.34767  0.36370  0.11433  1.0000
  C   C59       1.0  0.38183  0.37935  0.12738  1.0000
  C   C60       1.0  0.35933  0.40106  0.10195  1.0000
  C   C61       1.0  0.38217  0.36854  0.09046  1.0000
  C   C62       1.0  0.33101  0.36140  0.09704  1.0000
  C   C63       1.0  0.37747  0.41897  0.09744  1.0000
  C   C64       1.0  0.38276  0.35875  0.14332  1.0000
  C   C65       1.0  0.39959  0.36189  0.15988  1.0000
  C   C66       1.0  0.31327  0.34426  0.10390  1.0000
  C   C67       1.0  0.36647  0.44220  0.09214  1.0000
  H   H81       1.0  0.33776  0.37115  0.12760  1.0000
  H   H82       1.0  0.35276  0.34637  0.12006  1.0000
  H   H83       1.0  0.39950  0.38354  0.12245  1.0000
  H   H84       1.0  0.37497  0.39357  0.13679  1.0000
  H   H85       1.0  0.34695  0.40752  0.11401  1.0000
  H   H86       1.0  0.35000  0.40086  0.08754  1.0000
  H   H87       1.0  0.39789  0.37800  0.08775  1.0000
  H   H88       1.0  0.32183  0.37776  0.09369  1.0000
  H   H89       1.0  0.33983  0.35576  0.08251  1.0000
  H   H90       1.0  0.38896  0.41453  0.08398  1.0000
  H   H91       1.0  0.17793  0.07369  0.11872  1.0000
  H   H92       1.0  0.36595  0.35680  0.15157  1.0000
  H   H93       1.0  0.38754  0.34283  0.13585  1.0000
  H   H94       1.0  0.36998  0.17002  0.18134  1.0000
  H   H95       1.0  0.28242  0.43041  0.00123  1.0000
  C   C68       1.0  0.13280  0.44003  0.23376  1.0000
  H   H96       1.0  0.30372  0.34933  0.11833  1.0000
  H   H97       1.0  0.30113  0.34339  0.09153  1.0000
  H   H98       1.0  0.32137  0.32722  0.10670  1.0000
  H   H99       1.0  0.29630  0.17105  0.23347  1.0000
  H   H100      1.0  0.36356  0.37526  0.20595  1.0000
  S   S27       1.0  0.37972  0.08290  0.00885  1.0000
  H   H101      1.0  0.29101  0.09285  0.21503  1.0000
  H   H102      1.0  0.37545  0.33232  0.09590  1.0000
  H   H103      1.0  0.21580  0.08512  0.11564  1.0000
  H   H104      1.0  0.16648  0.17873  0.22350  1.0000
  H   H105      1.0  0.30892  0.02301  0.01635  1.0000
  S   S28       1.0  0.34448  0.33092  0.20685  1.0000
  H   H106      1.0  0.17183  0.08406  0.20656  1.0000
  H   H107      1.0  0.17732  0.07785  0.06265  1.0000
  H   H108      1.0  0.41704  0.36268  0.15276  1.0000
  H   H109      1.0  0.40124  0.08058  0.16080  1.0000
  N   N2        1.0  0.38636  0.07043  0.09840  1.0000
  C   C69       1.0  0.39072  0.07049  0.12121  1.0000
  C   C70       1.0  0.38775  0.04639  0.09182  1.0000
  C   C71       1.0  0.40516  0.08255  0.08623  1.0000
  C   C72       1.0  0.36401  0.08216  0.09314  1.0000
  C   C73       1.0  0.34447  0.08195  0.11023  1.0000
  C   C74       1.0  0.39466  0.09398  0.12935  1.0000
  C   C75       1.0  0.40486  0.08216  0.06216  1.0000
  C   C76       1.0  0.37310  0.02930  0.10474  1.0000
  C   C77       1.0  0.19466  0.08171  0.06673  1.0000
  C   C78       1.0  0.32286  0.09302  0.10177  1.0000
  C   C79       1.0  0.39066  0.09406  0.15296  1.0000
  C   C80       1.0  0.42216  0.09776  0.05132  1.0000
  H   H110      1.0  0.40592  0.05949  0.12473  1.0000
  H   H111      1.0  0.37672  0.06279  0.13094  1.0000
  H   H112      1.0  0.38284  0.04570  0.07553  1.0000
  H   H113      1.0  0.40555  0.03949  0.09210  1.0000
  H   H114      1.0  0.42196  0.07541  0.09089  1.0000
  H   H115      1.0  0.40466  0.10064  0.08987  1.0000
  H   H116      1.0  0.36630  0.10033  0.08864  1.0000
  H   H117      1.0  0.35755  0.07520  0.07910  1.0000
  H   H118      1.0  0.34865  0.09157  0.12360  1.0000
  H   H119      1.0  0.34069  0.06471  0.11628  1.0000
  H   H120      1.0  0.41240  0.09854  0.12538  1.0000
  H   H121      1.0  0.38339  0.10732  0.12221  1.0000
  H   H122      1.0  0.38800  0.08765  0.05665  1.0000
  H   H123      1.0  0.40917  0.06493  0.05696  1.0000
  H   H124      1.0  0.30805  0.29942  0.23326  1.0000
  H   H125      1.0  0.35504  0.03440  0.10403  1.0000
  H   H126      1.0  0.05726  0.22065  0.21576  1.0000
  C   C81       1.0  0.21580  0.08859  0.09844  1.0000
  H   H127      1.0  0.45127  0.17943  0.99563  1.0000
  H   H128      1.0  0.31680  0.08302  0.08934  1.0000
  H   H129      1.0  0.30951  0.09390  0.11452  1.0000
  H   H130      1.0  0.32578  0.11046  0.09540  1.0000
  H   H131      1.0  0.20131  0.38313  0.22923  1.0000
  H   H132      1.0  0.01989  0.17590  0.20852  1.0000
  C   C82       1.0  0.17655  0.35945  0.22378  1.0000
  Fe  Fe14      1.0  0.10390  0.11114  0.22245  1.0000
  H   H133      1.0  0.24313  0.40239  0.18036  1.0000
  H   H134      1.0  0.24249  0.00960  0.20956  1.0000
  C   C83       1.0  0.35690  0.18924  0.15527  1.0000
  H   H135      1.0  0.19045  0.11896  0.06870  1.0000
  H   H136      1.0  0.04152  0.26884  0.16832  1.0000
  C   C84       1.0  0.40141  0.33603  0.07179  1.0000
  H   H137      1.0  0.40711  0.31799  0.07345  1.0000
  C   C85       1.0  0.01113  0.29981  0.19205  1.0000
  H   H138      1.0  0.04265  0.30982  0.16144  1.0000
  C   C86       1.0  0.18650  0.03408  0.08733  1.0000
  H   H139      1.0  0.26600  0.38206  0.17565  1.0000
  H   H140      1.0  0.32225  0.38786  0.98984  1.0000
  H   H141      1.0  0.30539  0.38812  0.21507  1.0000
  H   H142      1.0  0.25144  0.11761  0.08831  1.0000
  C   C87       1.0  0.25068  0.38579  0.18580  1.0000
  H   H143      1.0  0.41640  0.34617  0.06746  1.0000
  H   H144      1.0  0.23814  0.37279  0.18416  1.0000
  H   H145      1.0  0.37292  0.28090  0.21907  1.0000
  H   H146      1.0  0.34562  0.41617  0.99774  1.0000
  H   H147      1.0  0.14338  0.00916  0.22350  1.0000
  H   H148      1.0  0.48721  0.29913  0.00889  1.0000
  C   C88       1.0  0.12930  0.18178  0.22662  1.0000
  H   H149      1.0  0.15499  0.20583  0.21463  1.0000
  H   H150      1.0  0.33187  0.26234  0.03192  1.0000
  H   H151      1.0  0.32425  0.48773  0.08674  1.0000
  H   H152      1.0  0.26869  0.28190  0.00361  1.0000
  H   H153      1.0  0.25351  0.49785  0.12421  1.0000
  S   S29       1.0  0.33980  0.10931  0.20792  1.0000
  C   C89       1.0  0.00389  0.26854  0.16886  1.0000
  C   C90       1.0  0.35998  0.22385  0.22336  1.0000
  S   S30       1.0  0.37818  0.37124  0.00939  1.0000
  H   H154      1.0  0.38773  0.42058  0.11108  1.0000
  C   C91       1.0  0.26792  0.36379  0.21646  1.0000
  H   H155      1.0  0.15180  0.39934  0.22327  1.0000
  H   H156      1.0  0.43341  0.15474  0.20754  1.0000
  N   N3        1.0  0.19762  0.07569  0.08956  1.0000
  C   C92       1.0  0.15443  0.04286  0.21385  1.0000
  H   H157      1.0  0.01098  0.11215  0.16835  1.0000
  H   H158      1.0  0.39901  0.34745  0.17162  1.0000
  C   C93       1.0  0.25202  0.31374  0.99587  1.0000
  H   H159      1.0  0.35514  0.44774  0.10536  1.0000
  H   H160      1.0  0.37972  0.45473  0.08900  1.0000
  H   H161      1.0  0.20962  0.04650  0.10821  1.0000
  H   H162      1.0  0.25637  0.35041  0.21312  1.0000
  H   H163      1.0  0.16649  0.03630  0.20164  1.0000
  C   C94       1.0  0.32046  0.00900  0.20791  1.0000
  H   H164      1.0  0.39411  0.19556  0.23357  1.0000
  H   H165      1.0  0.29093  0.04882  0.99869  1.0000
  H   H166      1.0  0.22328  0.02209  0.19111  1.0000
  H   H167      1.0  0.01834  0.31366  0.23133  1.0000
  H   H168      1.0  0.12810  0.16310  0.22741  1.0000
  C   C95       1.0  0.20430  0.05538  0.21704  1.0000
  C   C96       1.0  0.29796  0.04885  0.23069  1.0000
  H   H169      1.0  0.28647  0.49702  0.14153  1.0000
  H   H170      1.0  0.39521  0.37759  0.16805  1.0000
  C   C97       1.0  0.15234  0.18747  0.21534  1.0000
  C   C98       1.0  0.01612  0.16763  0.19418  1.0000
  H   H171      1.0  0.13221  0.09367  0.11449  1.0000
  H   H172      1.0  0.20049  0.09932  0.02589  1.0000
  H   H173      1.0  0.02954  0.29557  0.19090  1.0000
  H   H174      1.0  0.15901  0.08955  0.23136  1.0000
  H   H175      1.0  0.30622  0.42305  0.23437  1.0000
  C   C99       1.0  0.31471  0.16697  0.23143  1.0000
  H   H176      1.0  0.33939  0.04206  0.99944  1.0000
  C   C100      1.0  0.36273  0.20537  0.19013  1.0000
  H   H177      1.0  0.20614  0.07090  0.05681  1.0000
  C   C101      1.0  0.03188  0.23554  0.16299  1.0000
  H   H178      1.0  0.21005  0.00917  0.07341  1.0000
  H   H179      1.0  0.20447  0.00460  0.10120  1.0000
  C   C102      1.0  0.20447  0.05089  0.09211  1.0000
  H   H180      1.0  0.02953  0.17168  0.18198  1.0000
  C   C103      1.0  0.13601  0.02581  0.21803  1.0000
  H   H181      1.0  0.34207  0.22887  0.22055  1.0000
  C   C104      1.0  0.33540  0.26477  0.01486  1.0000
  H   H182      1.0  0.13708  0.12320  0.11609  1.0000
  H   H183      1.0  0.27376  0.09605  0.08878  1.0000
  H   H184      1.0  0.23774  0.31072  0.00745  1.0000
  H   H185      1.0  0.19279  0.42452  0.20191  1.0000
  H   H186      1.0  0.39213  0.16086  0.20953  1.0000
  C   C105      1.0  0.40251  0.17578  0.20667  1.0000
  H   H187      1.0  0.13400  0.44638  0.21726  1.0000
  C   C106      1.0  0.03748  0.32727  0.13219  1.0000
  C   C107      1.0  0.28357  0.08973  0.23108  1.0000
  C   C108      1.0  0.25651  0.10070  0.09517  1.0000
  C   C109      1.0  0.18175  0.45890  0.20635  1.0000
  H   H188      1.0  0.17778  0.11618  0.10629  1.0000
  H   H189      1.0  0.21755  0.06801  0.21521  1.0000
  H   H190      1.0  0.19668  0.46352  0.21449  1.0000
  H   H191      1.0  0.00099  0.32596  0.15746  1.0000
  C   C110      1.0  0.23293  0.02538  0.20481  1.0000
  C   C111      1.0  0.19917  0.10637  0.05877  1.0000
  H   H192      1.0  0.24519  0.03858  0.20018  1.0000
  H   H193      1.0  0.18788  0.38787  0.20495  1.0000
  C   C112      1.0  0.03215  0.30795  0.14812  1.0000
  C   C113      1.0  0.35320  0.18371  0.22403  1.0000
  C   C114      1.0  0.18595  0.46562  0.18326  1.0000
  H   H194      1.0  0.25696  0.10132  0.11233  1.0000
  C   C115      1.0  0.17554  0.08529  0.22312  1.0000
  H   H195      1.0  0.32098  0.19618  0.21092  1.0000
  H   H196      1.0  0.18865  0.48399  0.18122  1.0000
  H   H197      1.0  0.03724  0.29197  0.14071  1.0000
  C   C116      1.0  0.17788  0.43329  0.20964  1.0000
  H   H198      1.0  0.16329  0.42945  0.20057  1.0000
  H   H199      1.0  0.40516  0.17914  0.18960  1.0000
  H   H200      1.0  0.37790  0.02767  0.12113  1.0000
  H   H201      1.0  0.43701  0.18383  0.21271  1.0000
  C   C117      1.0  0.35743  0.18406  0.17872  1.0000
  H   H202      1.0  0.31058  0.46137  0.00926  1.0000
  H   H203      1.0  0.03383  0.28702  0.22853  1.0000
  H   H204      1.0  0.20121  0.45640  0.17671  1.0000
  H   H205      1.0  0.32490  0.47017  0.12680  1.0000
  H   H206      1.0  0.01665  0.14909  0.19742  1.0000
  C   C118      1.0  0.16653  0.04665  0.23399  1.0000
  C   C119      1.0  0.00666  0.30823  0.15467  1.0000
  C   C120      1.0  0.31424  0.00776  0.00782  1.0000
  C   C121      1.0  0.30064  0.42669  0.00390  1.0000
  C   C122      1.0  0.26284  0.29120  0.98942  1.0000
  C   C123      1.0  0.31322  0.26868  0.00400  1.0000
  H   H207      1.0  0.17119  0.46185  0.17438  1.0000
  H   H208      1.0  0.24640  0.06655  0.09652  1.0000
  H   H209      1.0  0.34392  0.20278  0.15174  1.0000
  C   C124      1.0  0.34452  0.02826  0.98906  1.0000
  H   H210      1.0  0.16681  0.46906  0.21214  1.0000
  H   H211      1.0  0.37708  0.24622  0.19932  1.0000
  C   C125      1.0  0.19684  0.01011  0.08629  1.0000
  H   H212      1.0  0.21749  0.10939  0.05842  1.0000
  H   H213      1.0  0.14597  0.05870  0.20771  1.0000
  C   C126      1.0  0.16549  0.10401  0.10205  1.0000
  H   H214      1.0  0.16234  0.13064  0.22002  1.0000
  H   H215      1.0  0.10664  0.21998  0.23348  1.0000
  H   H216      1.0  0.27809  0.39320  0.99258  1.0000
  H   H217      1.0  0.31758  0.15485  0.21898  1.0000
  H   H218      1.0  0.20735  0.10315  0.21629  1.0000
  H   H219      1.0  0.19812  0.05447  0.20120  1.0000
  H   H220      1.0  0.15938  0.10897  0.08643  1.0000
  C   C127      1.0  0.24022  0.08310  0.08968  1.0000
  S   S31       1.0  0.07636  0.32058  0.23218  1.0000
  H   H221      1.0  0.21242  0.10704  0.09638  1.0000
  H   H222      1.0  0.26451  0.32373  0.00313  1.0000
  C   C128      1.0  0.17573  0.07958  0.10226  1.0000
  C   C129      1.0  0.39150  0.19700  0.21657  1.0000
  N   N4        1.0  0.36680  0.20216  0.21307  1.0000
  C   C130      1.0  0.36207  0.26646  0.22337  1.0000
  H   H223      1.0  0.35263  0.17386  0.14759  1.0000
  C   C131      1.0  0.14505  0.10594  0.11750  1.0000
  C   C132      1.0  0.19153  0.11109  0.03665  1.0000
  H   H224      1.0  0.45241  0.06273  0.00626  1.0000
  C   C133      1.0  0.30630  0.00823  0.22889  1.0000
  C   C134      1.0  0.02758  0.25782  0.17354  1.0000
  H   H225      1.0  0.02769  0.32617  0.11814  1.0000
  C   C135      1.0  0.17945  0.12684  0.21284  1.0000
  H   H226      1.0  0.18992  0.14163  0.21412  1.0000
  H   H227      1.0  0.34585  0.47715  0.14424  1.0000
  H   H228      1.0  0.37753  0.21323  0.18167  1.0000
  H   H229      1.0  0.30114  0.41083  0.01402  1.0000
  H   H230      1.0  0.39059  0.24321  0.22378  1.0000
  H   H231      1.0  0.19544  0.12861  0.03117  1.0000
  C   C136      1.0  0.00839  0.36164  0.20278  1.0000
  H   H232      1.0  0.16218  0.06948  0.09680  1.0000
  H   H233      1.0  0.26993  0.31718  0.22577  1.0000
  H   H234      1.0  0.28077  0.04574  0.22572  1.0000
  H   H235      1.0  0.34825  0.21762  0.18747  1.0000
  H   H236      1.0  0.18876  0.34792  0.21550  1.0000
  H   H237      1.0  0.40199  0.21103  0.21015  1.0000
  H   H238      1.0  0.11594  0.18806  0.21605  1.0000
  H   H239      1.0  0.30305  0.25370  0.00788  1.0000
  H   H240      1.0  0.28343  0.36050  0.20635  1.0000
  C   C137      1.0  0.30798  0.38657  0.23196  1.0000
  H   H241      1.0  0.03064  0.23812  0.14589  1.0000
  H   H242      1.0  0.33412  0.41098  0.22848  1.0000
  Fe  Fe15      1.0  0.11107  0.33368  0.23185  1.0000
  S   S32       1.0  0.27609  0.49088  0.07817  1.0000
  C   C138      1.0  0.01674  0.29514  0.23084  1.0000
  H   H243      1.0  0.12491  0.42341  0.23468  1.0000
  H   H244      1.0  0.33858  0.01124  0.21010  1.0000
  H   H245      1.0  0.32074  0.37268  0.23493  1.0000
  H   H246      1.0  0.34481  0.24947  0.00929  1.0000
  H   H247      1.0  0.34072  0.44500  0.99036  1.0000
  H   H248      1.0  0.08282  0.17964  0.23272  1.0000
  N   N5        1.0  0.17444  0.42432  0.23188  1.0000
  H   H249      1.0  0.21085  0.41931  0.23278  1.0000
  H   H250      1.0  0.34128  0.03914  0.23196  1.0000
  H   H251      1.0  0.49645  0.27024  0.01466  1.0000
  N   N6        1.0  0.18531  0.06304  0.23193  1.0000
  H   H252      1.0  0.12315  0.03186  0.22987  1.0000
  H   H253      1.0  0.30291  0.34085  0.23165  1.0000
  C   C139      1.0  0.00179  0.28983  0.21340  1.0000
  H   H254      1.0  0.47987  0.27763  0.99227  1.0000
  H   H255      1.0  0.35770  0.01842  0.99771  1.0000
  C   C140      1.0  0.16742  0.40026  0.23190  1.0000
  H   H256      1.0  0.22730  0.03471  0.23622  1.0000
  C   C141      1.0  0.43589  0.17243  0.98993  1.0000
  H   H257      1.0  0.34332  0.00387  0.02763  1.0000
  H   H258      1.0  0.48262  0.11212  0.23639  1.0000
  C   C142      1.0  0.49330  0.28316  0.00190  1.0000
  Fe  Fe16      1.0  0.36314  0.33106  0.23652  1.0000
  Fe  Fe17      1.0  0.18046  0.40799  0.37097  1.0000
  S   S33       1.0  0.20796  0.43246  0.37234  1.0000
  S   S34       1.0  0.17298  0.38105  0.39656  1.0000
  Fe  Fe18      1.0  0.16624  0.42797  0.32922  1.0000
  S   S35       1.0  0.19180  0.45492  0.32812  1.0000
  S   S36       1.0  0.14087  0.42598  0.30439  1.0000
  Fe  Fe19      1.0  0.21596  0.42634  0.33843  1.0000
  S   S37       1.0  0.25056  0.42430  0.32046  1.0000
  Fe  Fe20      1.0  0.18156  0.45890  0.36209  1.0000
  H   H259      1.0  0.06394  0.07517  0.47347  1.0000
  S   S38       1.0  0.19062  0.39952  0.33799  1.0000
  S   S39       1.0  0.15402  0.43424  0.36210  1.0000
  Fe  Fe21      1.0  0.16354  0.03650  0.38238  1.0000
  S   S40       1.0  0.19852  0.02035  0.38404  1.0000
  S   S41       1.0  0.14008  0.04407  0.41038  1.0000
  Fe  Fe22      1.0  0.16018  0.02463  0.33690  1.0000
  H   H260      1.0  0.26168  0.04007  0.25791  1.0000
  S   S42       1.0  0.13805  0.02458  0.30943  1.0000
  C   C143      1.0  0.09287  0.33296  0.31925  1.0000
  Fe  Fe23      1.0  0.20562  0.03654  0.35159  1.0000
  S   S43       1.0  0.23255  0.05976  0.33596  1.0000
  N   N7        1.0  0.17371  0.41460  0.47989  1.0000
  S   S44       1.0  0.17130  0.05507  0.35161  1.0000
  Fe  Fe24      1.0  0.40121  0.34358  0.26315  1.0000
  N   N8        1.0  0.09387  0.49525  0.43631  1.0000
  S   S45       1.0  0.43324  0.36386  0.26291  1.0000
  Fe  Fe25      1.0  0.35307  0.33658  0.28280  1.0000
  S   S46       1.0  0.34808  0.30830  0.26206  1.0000
  S   S47       1.0  0.32297  0.34232  0.30616  1.0000
  Fe  Fe26      1.0  0.38354  0.29619  0.26787  1.0000
  S   S48       1.0  0.39878  0.26038  0.27137  1.0000
  H   H261      1.0  0.14014  0.35283  0.32644  1.0000
  H   H262      1.0  0.26544  0.34353  0.28026  1.0000
  S   S49       1.0  0.38785  0.32247  0.29092  1.0000
  S   S50       1.0  0.36662  0.36001  0.25685  1.0000
  Fe  Fe27      1.0  0.35922  0.13722  0.27551  1.0000
  S   S51       1.0  0.37916  0.11071  0.29394  1.0000
  S   S52       1.0  0.34448  0.17067  0.28645  1.0000
  H   H263      1.0  0.19622  0.39524  0.26365  1.0000
  S   S53       1.0  0.37677  0.07882  0.25395  1.0000
  H   H264      1.0  0.10555  0.37716  0.25801  1.0000
  Fe  Fe28      1.0  0.35467  0.08634  0.28278  1.0000
  S   S54       1.0  0.33653  0.05845  0.30242  1.0000
  Fe  Fe29      1.0  0.39963  0.10544  0.26373  1.0000
  S   S55       1.0  0.43766  0.10717  0.25443  1.0000
  S   S56       1.0  0.33373  0.11329  0.26663  1.0000
  H   H265      1.0  0.04180  0.28074  0.46807  1.0000
  C   C144      1.0  0.46465  0.10324  0.26550  1.0000
  C   C145      1.0  0.48427  0.10701  0.25262  1.0000
  C   C146      1.0  0.08419  0.31805  0.38956  1.0000
  H   H266      1.0  0.23416  0.41291  0.26461  1.0000
  C   C147      1.0  0.46719  0.09654  0.28644  1.0000
  H   H267      1.0  0.36935  0.03054  0.27157  1.0000
  H   H268      1.0  0.37867  0.02495  0.24502  1.0000
  H   H269      1.0  0.45237  0.09353  0.29659  1.0000
  C   C148      1.0  0.38328  0.23575  0.27589  1.0000
  C   C149      1.0  0.36013  0.23665  0.28144  1.0000
  C   C150      1.0  0.34847  0.21655  0.28485  1.0000
  C   C151      1.0  0.35978  0.19548  0.28247  1.0000
  C   C152      1.0  0.38290  0.19459  0.27687  1.0000
  C   C153      1.0  0.39460  0.21465  0.27374  1.0000
  H   H270      1.0  0.35129  0.25281  0.28325  1.0000
  H   H271      1.0  0.19170  0.01143  0.47942  1.0000
  H   H272      1.0  0.39179  0.17845  0.27511  1.0000
  C   C154      1.0  0.17493  0.01773  0.47423  1.0000
  H   H273      1.0  0.18768  0.02700  0.44254  1.0000
  H   H274      1.0  0.21808  0.36678  0.28398  1.0000
  C   C155      1.0  0.47922  0.36892  0.26452  1.0000
  C   C156      1.0  0.46185  0.35349  0.26501  1.0000
  C   C157      1.0  0.46752  0.33052  0.26853  1.0000
  H   H275      1.0  0.43885  0.29417  0.29720  1.0000
  H   H276      1.0  0.26128  0.02718  0.29494  1.0000
  C   C158      1.0  0.29506  0.02325  0.26267  1.0000
  H   H277      1.0  0.45450  0.31839  0.26870  1.0000
  C   C159      1.0  0.19024  0.44177  0.42473  1.0000
  C   C160      1.0  0.26136  0.05821  0.32635  1.0000
  C   C161      1.0  0.27686  0.04120  0.33298  1.0000
  C   C162      1.0  0.29973  0.04148  0.32549  1.0000
  C   C163      1.0  0.30743  0.05864  0.31122  1.0000
  C   C164      1.0  0.29178  0.07526  0.30416  1.0000
  C   C165      1.0  0.26903  0.07521  0.31187  1.0000
  H   H278      1.0  0.27131  0.02802  0.34412  1.0000
  H   H279      1.0  0.31159  0.02838  0.33095  1.0000
  H   H280      1.0  0.29721  0.08820  0.29276  1.0000
  H   H281      1.0  0.25722  0.08839  0.30651  1.0000
  C   C166      1.0  0.13298  0.04986  0.29434  1.0000
  C   C167      1.0  0.14363  0.06966  0.29794  1.0000
  C   C168      1.0  0.13994  0.08926  0.28506  1.0000
  C   C169      1.0  0.12559  0.08919  0.26852  1.0000
  C   C170      1.0  0.11472  0.06949  0.26509  1.0000
  C   C171      1.0  0.11846  0.04989  0.27793  1.0000
  H   H282      1.0  0.15488  0.06983  0.31050  1.0000
  H   H283      1.0  0.14836  0.10444  0.28786  1.0000
  H   H284      1.0  0.11012  0.03467  0.27506  1.0000
  H   H285      1.0  0.09999  0.46303  0.42279  1.0000
  H   H286      1.0  0.40478  0.37251  0.33621  1.0000
  C   C172      1.0  0.27025  0.40111  0.31652  1.0000
  C   C173      1.0  0.26714  0.37968  0.32611  1.0000
  C   C174      1.0  0.28339  0.36195  0.32269  1.0000
  C   C175      1.0  0.30287  0.36528  0.30954  1.0000
  C   C176      1.0  0.30591  0.38667  0.29985  1.0000
  C   C177      1.0  0.28970  0.40442  0.30330  1.0000
  H   H287      1.0  0.25236  0.37684  0.33637  1.0000
  H   H288      1.0  0.28090  0.34554  0.33040  1.0000
  H   H289      1.0  0.32095  0.38961  0.28999  1.0000
  H   H290      1.0  0.29239  0.42095  0.29590  1.0000
  C   C178      1.0  0.13882  0.40064  0.29179  1.0000
  C   C179      1.0  0.12124  0.39861  0.27845  1.0000
  C   C180      1.0  0.11927  0.37865  0.26813  1.0000
  C   C181      1.0  0.13464  0.36044  0.27148  1.0000
  C   C182      1.0  0.15230  0.36252  0.28467  1.0000
  C   C183      1.0  0.15451  0.38262  0.29464  1.0000
  H   H291      1.0  0.10896  0.41242  0.27620  1.0000
  H   H292      1.0  0.17486  0.35340  0.24039  1.0000
  H   H293      1.0  0.16830  0.38405  0.30457  1.0000
  C   C184      1.0  0.13603  0.10502  0.45086  1.0000
  C   C185      1.0  0.12316  0.08627  0.45613  1.0000
  C   C186      1.0  0.12475  0.06774  0.44352  1.0000
  C   C187      1.0  0.13963  0.06753  0.42584  1.0000
  C   C188      1.0  0.15298  0.08601  0.42078  1.0000
  C   C189      1.0  0.15108  0.10477  0.43324  1.0000
  H   H294      1.0  0.11159  0.08623  0.46963  1.0000
  H   H295      1.0  0.11430  0.05351  0.44744  1.0000
  H   H296      1.0  0.16447  0.08600  0.40714  1.0000
  H   H297      1.0  0.16115  0.11923  0.42911  1.0000
  C   C190      1.0  0.11659  0.39351  0.44680  1.0000
  C   C191      1.0  0.12055  0.40971  0.43050  1.0000
  C   C192      1.0  0.13749  0.40591  0.41484  1.0000
  C   C193      1.0  0.15061  0.38576  0.41528  1.0000
  C   C194      1.0  0.14632  0.36928  0.43136  1.0000
  C   C195      1.0  0.12936  0.37312  0.44709  1.0000
  H   H298      1.0  0.14070  0.41882  0.40275  1.0000
  H   H299      1.0  0.15639  0.35363  0.43181  1.0000
  H   H300      1.0  0.12636  0.36044  0.45955  1.0000
  N   N9        1.0  0.30853  0.13130  0.34509  1.0000
  C   C196      1.0  0.30429  0.15378  0.35468  1.0000
  C   C197      1.0  0.29261  0.11449  0.35555  1.0000
  C   C198      1.0  0.33229  0.12299  0.34980  1.0000
  C   C199      1.0  0.30648  0.13284  0.32180  1.0000
  C   C200      1.0  0.28863  0.15027  0.31297  1.0000
  C   C201      1.0  0.32183  0.17180  0.34801  1.0000
  C   C202      1.0  0.33992  0.09932  0.34238  1.0000
  C   C203      1.0  0.26698  0.11969  0.35371  1.0000
  C   C204      1.0  0.25321  0.10331  0.36789  1.0000
  C   C205      1.0  0.28453  0.14647  0.29030  1.0000
  C   C206      1.0  0.31264  0.19559  0.35237  1.0000
  H   H301      1.0  0.15829  0.01999  0.44507  1.0000
  H   H302      1.0  0.30403  0.15151  0.37198  1.0000
  H   H303      1.0  0.28732  0.16119  0.35135  1.0000
  H   H304      1.0  0.29555  0.09770  0.34890  1.0000
  H   H305      1.0  0.29593  0.11201  0.37240  1.0000
  C   C207      1.0  0.44295  0.35224  0.35285  1.0000
  H   H306      1.0  0.34483  0.13466  0.34225  1.0000
  H   H307      1.0  0.32288  0.13711  0.31360  1.0000
  H   H308      1.0  0.30302  0.11603  0.31642  1.0000
  H   H309      1.0  0.29459  0.16763  0.31353  1.0000
  H   H310      1.0  0.27216  0.14968  0.32181  1.0000
  H   H311      1.0  0.33727  0.16847  0.35687  1.0000
  H   H312      1.0  0.32696  0.17147  0.33122  1.0000
  H   H313      1.0  0.33844  0.09884  0.32536  1.0000
  C   C208      1.0  0.17531  0.15963  0.27514  1.0000
  H   H314      1.0  0.26169  0.13692  0.35814  1.0000
  H   H315      1.0  0.26238  0.11741  0.33754  1.0000
  H   H316      1.0  0.23496  0.10603  0.36507  1.0000
  H   H317      1.0  0.25826  0.08556  0.36470  1.0000
  H   H318      1.0  0.25565  0.10599  0.38450  1.0000
  H   H319      1.0  0.27839  0.12932  0.28875  1.0000
  H   H320      1.0  0.27162  0.15907  0.28454  1.0000
  H   H321      1.0  0.30033  0.14862  0.28050  1.0000
  H   H322      1.0  0.30767  0.19679  0.36915  1.0000
  H   H323      1.0  0.32591  0.20785  0.34801  1.0000
  H   H324      1.0  0.29782  0.20023  0.34300  1.0000
  H   H325      1.0  0.29900  0.03541  0.27430  1.0000
  H   H326      1.0  0.17895  0.43322  0.41483  1.0000
  H   H327      1.0  0.47896  0.19395  0.29394  1.0000
  H   H328      1.0  0.08262  0.09198  0.44051  1.0000
  C   C209      1.0  0.08351  0.16332  0.44056  1.0000
  H   H329      1.0  0.06734  0.16663  0.44966  1.0000
  H   H330      1.0  0.29042  0.37975  0.26137  1.0000
  C   C210      1.0  0.11678  0.45634  0.24552  1.0000
  H   H331      1.0  0.49070  0.08783  0.31035  1.0000
  H   H332      1.0  0.16565  0.31866  0.36041  1.0000
  H   H333      1.0  0.08895  0.47482  0.37570  1.0000
  H   H334      1.0  0.36986  0.07703  0.34061  1.0000
  C   C211      1.0  0.48901  0.09334  0.29422  1.0000
  N   N10       1.0  0.30785  0.02818  0.24210  1.0000
  H   H335      1.0  0.33061  0.21735  0.28925  1.0000
  H   H336      1.0  0.10315  0.18335  0.27540  1.0000
  H   H337      1.0  0.18582  0.05145  0.47386  1.0000
  C   C212      1.0  0.09634  0.35037  0.36448  1.0000
  C   C213      1.0  0.25816  0.01513  0.28306  1.0000
  C   C214      1.0  0.27663  0.31826  0.24136  1.0000
  H   H338      1.0  0.24091  0.37677  0.24967  1.0000
  C   C215      1.0  0.41205  0.37555  0.32011  1.0000
  H   H339      1.0  0.29559  0.34084  0.25847  1.0000
  C   C216      1.0  0.10654  0.47309  0.38079  1.0000
  H   H340      1.0  0.06115  0.17595  0.27714  1.0000
  C   C217      1.0  0.28567  0.38201  0.24494  1.0000
  C   C218      1.0  0.26896  0.02296  0.26197  1.0000
  C   C219      1.0  0.29695  0.07082  0.24260  1.0000
  H   H341      1.0  0.40531  0.36324  0.31001  1.0000
  C   C220      1.0  0.17056  0.04252  0.47995  1.0000
  C   C221      1.0  0.09636  0.35708  0.32588  1.0000
  H   H342      1.0  0.41882  0.29034  0.31916  1.0000
  H   H343      1.0  0.19686  0.06670  0.29616  1.0000
  H   H344      1.0  0.10348  0.06928  0.25254  1.0000
  H   H345      1.0  0.10483  0.36645  0.31234  1.0000
  N   N11       1.0  0.10940  0.35922  0.34508  1.0000
  C   C222      1.0  0.13240  0.34764  0.34197  1.0000
  H   H346      1.0  0.00917  0.28871  0.24604  1.0000
  C   C223      1.0  0.11276  0.38407  0.34699  1.0000
  H   H347      1.0  0.09415  0.00711  0.34233  1.0000
  H   H348      1.0  0.08426  0.17480  0.42636  1.0000
  C   C224      1.0  0.47349  0.35145  0.32405  1.0000
  C   C225      1.0  0.09100  0.39961  0.34677  1.0000
  H   H349      1.0  0.08809  0.30023  0.39475  1.0000
  C   C226      1.0  0.09530  0.42302  0.35377  1.0000
  H   H350      1.0  0.44025  0.14851  0.28211  1.0000
  C   C227      1.0  0.44823  0.16509  0.28003  1.0000
  H   H351      1.0  0.07910  0.36506  0.32785  1.0000
  H   H352      1.0  0.15282  0.49019  0.47075  1.0000
  H   H353      1.0  0.12455  0.39058  0.33422  1.0000
  H   H354      1.0  0.12103  0.38686  0.36166  1.0000
  C   C228      1.0  0.10614  0.25345  0.25962  1.0000
  H   H355      1.0  0.04996  0.11277  0.45764  1.0000
  H   H356      1.0  0.08243  0.32362  0.33131  1.0000
  H   H357      1.0  0.17699  0.04172  0.27434  1.0000
  H   H358      1.0  0.15563  0.36979  0.35512  1.0000
  H   H359      1.0  0.48233  0.33682  0.33197  1.0000
  H   H360      1.0  0.06299  0.31584  0.46368  1.0000
  H   H361      1.0  0.08502  0.40183  0.33073  1.0000
  H   H362      1.0  0.33459  0.12287  0.36685  1.0000
  H   H363      1.0  0.25951  0.37330  0.28204  1.0000
  H   H364      1.0  0.09983  0.36016  0.37811  1.0000
  H   H365      1.0  0.17875  0.33769  0.34075  1.0000
  C   C229      1.0  0.15270  0.16184  0.26488  1.0000
  H   H366      1.0  0.48211  0.38646  0.31604  1.0000
  H   H367      1.0  0.07949  0.43375  0.35338  1.0000
  H   H368      1.0  0.10832  0.43120  0.34321  1.0000
  H   H369      1.0  0.20729  0.43323  0.42382  1.0000
  S   S57       1.0  0.39841  0.31674  0.24052  1.0000
  H   H370      1.0  0.14106  0.19340  0.27675  1.0000
  H   H371      1.0  0.11081  0.45519  0.38533  1.0000
  C   C230      1.0  0.08012  0.33360  0.29925  1.0000
  C   C231      1.0  0.48585  0.37302  0.32824  1.0000
  H   H372      1.0  0.04717  0.13723  0.38147  1.0000
  C   C232      1.0  0.10496  0.17947  0.25870  1.0000
  H   H373      1.0  0.50060  0.16949  0.31897  1.0000
  H   H374      1.0  0.38499  0.39973  0.31213  1.0000
  H   H375      1.0  0.32981  0.08582  0.35031  1.0000
  H   H376      1.0  0.30079  0.00654  0.26960  1.0000
  N   N12       1.0  0.06687  0.10914  0.41430  1.0000
  C   C233      1.0  0.04609  0.10649  0.40237  1.0000
  C   C234      1.0  0.06631  0.09259  0.43291  1.0000
  C   C235      1.0  0.06669  0.13311  0.42082  1.0000
  C   C236      1.0  0.08825  0.10441  0.40116  1.0000
  C   C237      1.0  0.09033  0.08110  0.39137  1.0000
  H   H377      1.0  0.09838  0.22105  0.27366  1.0000
  C   C238      1.0  0.09397  0.48043  0.41815  1.0000
  C   C239      1.0  0.04735  0.09695  0.44996  1.0000
  H   H378      1.0  0.07666  0.20265  0.24940  1.0000
  C   C240      1.0  0.11015  0.08006  0.37516  1.0000
  H   H379      1.0  0.22380  0.05684  0.28469  1.0000
  H   H380      1.0  0.06753  0.15271  0.26047  1.0000
  H   H381      1.0  0.00911  0.12164  0.37950  1.0000
  H   H382      1.0  0.15676  0.05026  0.47063  1.0000
  H   H383      1.0  0.06458  0.07518  0.42790  1.0000
  H   H384      1.0  0.48030  0.37949  0.34357  1.0000
  H   H385      1.0  0.05022  0.13788  0.42891  1.0000
  H   H386      1.0  0.06819  0.14499  0.40691  1.0000
  H   H387      1.0  0.09064  0.11793  0.38865  1.0000
  H   H388      1.0  0.10331  0.10492  0.41062  1.0000
  H   H389      1.0  0.07500  0.07727  0.38349  1.0000
  H   H390      1.0  0.09332  0.06756  0.40364  1.0000
  H   H391      1.0  0.44605  0.35480  0.39557  1.0000
  H   H392      1.0  0.43842  0.33492  0.30327  1.0000
  C   C241      1.0  0.07192  0.29919  0.46640  1.0000
  H   H393      1.0  0.12508  0.47772  0.44524  1.0000
  H   H394      1.0  0.20428  0.37749  0.47944  1.0000
  H   H395      1.0  0.03043  0.09827  0.44346  1.0000
  H   H396      1.0  0.28889  0.06847  0.25844  1.0000
  H   H397      1.0  0.18276  0.34077  0.36790  1.0000
  H   H398      1.0  0.03898  0.24146  0.48376  1.0000
  H   H399      1.0  0.10697  0.09200  0.36165  1.0000
  H   H400      1.0  0.12608  0.08425  0.38200  1.0000
  H   H401      1.0  0.11237  0.06275  0.36953  1.0000
  H   H402      1.0  0.46324  0.32933  0.39988  1.0000
  H   H403      1.0  0.10099  0.42181  0.36992  1.0000
  H   H404      1.0  0.11806  0.32262  0.37756  1.0000
  C   C242      1.0  0.25348  0.35769  0.27600  1.0000
  H   H405      1.0  0.13855  0.42379  0.47580  1.0000
  H   H406      1.0  0.32158  0.40754  0.25450  1.0000
  H   H407      1.0  0.18012  0.14149  0.27809  1.0000
  H   H408      1.0  0.12727  0.22854  0.27520  1.0000
  H   H409      1.0  0.47582  0.34909  0.36716  1.0000
  H   H410      1.0  0.41983  0.33162  0.32565  1.0000
  H   H411      1.0  0.08941  0.34310  0.28641  1.0000
  H   H412      1.0  0.15939  0.19671  0.25437  1.0000
  H   H413      1.0  0.09979  0.45664  0.23911  1.0000
  H   H414      1.0  0.17249  0.02983  0.24032  1.0000
  H   H415      1.0  0.05999  0.11254  0.37003  1.0000
  H   H416      1.0  0.11070  0.42541  0.43015  1.0000
  H   H417      1.0  0.07524  0.49824  0.46599  1.0000
  H   H418      1.0  0.07836  0.31617  0.29442  1.0000
  H   H419      1.0  0.06660  0.31946  0.38442  1.0000
  H   H420      1.0  0.36631  0.09188  0.36426  1.0000
  H   H421      1.0  0.06038  0.48555  0.44719  1.0000
  C   C243      1.0  0.43801  0.33240  0.32053  1.0000
  H   H422      1.0  0.18245  0.07967  0.26101  1.0000
  H   H423      1.0  0.48038  0.15011  0.27046  1.0000
  H   H424      1.0  0.43514  0.32765  0.39105  1.0000
  H   H425      1.0  0.07785  0.35312  0.36265  1.0000
  C   C244      1.0  0.10086  0.32526  0.37173  1.0000
  H   H426      1.0  0.19183  0.45944  0.41848  1.0000
  C   C245      1.0  0.44855  0.30856  0.32568  1.0000
  H   H427      1.0  0.44052  0.17624  0.29198  1.0000
  H   H428      1.0  0.26391  0.01133  0.25044  1.0000
  H   H429      1.0  0.04315  0.08835  0.40064  1.0000
  H   H430      1.0  0.28498  0.28230  0.24280  1.0000
  H   H431      1.0  0.16368  0.45050  0.44689  1.0000
  H   H432      1.0  0.37583  0.10649  0.34021  1.0000
  C   C246      1.0  0.11294  0.22874  0.26487  1.0000
  H   H433      1.0  0.16431  0.34851  0.28722  1.0000
  H   H434      1.0  0.11819  0.47843  0.36750  1.0000
  C   C247      1.0  0.08330  0.46242  0.46293  1.0000
  H   H435      1.0  0.03452  0.08207  0.47957  1.0000
  H   H436      1.0  0.18323  0.41974  0.27516  1.0000
  H   H437      1.0  0.47855  0.19466  0.26659  1.0000
  H   H438      1.0  0.44434  0.37524  0.30277  1.0000
  H   H439      1.0  0.11511  0.45099  0.26232  1.0000
  C   C248      1.0  0.48996  0.32327  0.27251  1.0000
  C   C249      1.0  0.21919  0.41812  0.27456  1.0000
  C   C250      1.0  0.19370  0.06684  0.25311  1.0000
  H   H440      1.0  0.07777  0.29276  0.45110  1.0000
  S   S58       1.0  0.19417  0.00644  0.33592  1.0000
  H   H441      1.0  0.19176  0.45127  0.45618  1.0000
  H   H442      1.0  0.44604  0.30401  0.34249  1.0000
  H   H443      1.0  0.10065  0.46092  0.46851  1.0000
  C   C251      1.0  0.33204  0.03229  0.24628  1.0000
  H   H444      1.0  0.16172  0.00666  0.48122  1.0000
  H   H445      1.0  0.10268  0.26244  0.27415  1.0000
  H   H446      1.0  0.07733  0.39245  0.35722  1.0000
  C   C252      1.0  0.17044  0.33631  0.35662  1.0000
  C   C253      1.0  0.36987  0.01794  0.25947  1.0000
  C   C254      1.0  0.14487  0.18696  0.26103  1.0000
  H   H447      1.0  0.44464  0.17255  0.26432  1.0000
  C   C255      1.0  0.18687  0.37265  0.47691  1.0000
  H   H448      1.0  0.08701  0.30129  0.47541  1.0000
  H   H449      1.0  0.47512  0.38673  0.26177  1.0000
  N   N13       1.0  0.44844  0.35208  0.32965  1.0000
  C   C256      1.0  0.47370  0.16177  0.28223  1.0000
  C   C257      1.0  0.10943  0.48774  0.39901  1.0000
  C   C258      1.0  0.19723  0.41372  0.26452  1.0000
  H   H450      1.0  0.47658  0.34870  0.30723  1.0000
  C   C259      1.0  0.18055  0.44160  0.44717  1.0000
  H   H451      1.0  0.06298  0.34166  0.30165  1.0000
  H   H452      1.0  0.13498  0.22468  0.23771  1.0000
  H   H453      1.0  0.49526  0.22878  0.27164  1.0000
  C   C260      1.0  0.45045  0.33781  0.38981  1.0000
  H   H454      1.0  0.18531  0.37139  0.45992  1.0000
  H   H455      1.0  0.15335  0.05256  0.24563  1.0000
  H   H456      1.0  0.20328  0.03132  0.26306  1.0000
  C   C261      1.0  0.46007  0.33972  0.36732  1.0000
  H   H457      1.0  0.46485  0.32253  0.36255  1.0000
  H   H458      1.0  0.41035  0.40230  0.29561  1.0000
  C   C262      1.0  0.43707  0.29073  0.31431  1.0000
  H   H459      1.0  0.22003  0.43629  0.27749  1.0000
  H   H460      1.0  0.21079  0.07394  0.25143  1.0000
  H   H461      1.0  0.19971  0.44382  0.24455  1.0000
  H   H462      1.0  0.44399  0.38857  0.32662  1.0000
  S   S59       1.0  0.09614  0.39991  0.46678  1.0000
  H   H463      1.0  0.10798  0.16085  0.25882  1.0000
  H   H464      1.0  0.10263  0.13619  0.42683  1.0000
  H   H465      1.0  0.17406  0.16781  0.29024  1.0000
  C   C263      1.0  0.11753  0.49520  0.44375  1.0000
  C   C264      1.0  0.34597  0.01161  0.25527  1.0000
  H   H466      1.0  0.14210  0.35115  0.37424  1.0000
  H   H467      1.0  0.08551  0.32870  0.40301  1.0000
  H   H468      1.0  0.16487  0.40945  0.44850  1.0000
  H   H469      1.0  0.15467  0.15289  0.25028  1.0000
  C   C265      1.0  0.17837  0.41713  0.45661  1.0000
  S   S60       1.0  0.38055  0.13350  0.24621  1.0000
  H   H470      1.0  0.31429  0.07660  0.24396  1.0000
  C   C266      1.0  0.14969  0.35244  0.35812  1.0000
  C   C267      1.0  0.06334  0.17112  0.26074  1.0000
  C   C268      1.0  0.40374  0.39892  0.31192  1.0000
  H   H471      1.0  0.22438  0.33681  0.28256  1.0000
  H   H472      1.0  0.47628  0.15322  0.29772  1.0000
  H   H473      1.0  0.13122  0.32912  0.34163  1.0000
  H   H474      1.0  0.03075  0.11291  0.41128  1.0000
  C   C269      1.0  0.08188  0.18452  0.24902  1.0000
  H   H475      1.0  0.12739  0.48564  0.40291  1.0000
  H   H476      1.0  0.44503  0.27382  0.31805  1.0000
  H   H477      1.0  0.08181  0.44953  0.45138  1.0000
  H   H478      1.0  0.18874  0.16746  0.26480  1.0000
  H   H479      1.0  0.33265  0.04565  0.25762  1.0000
  S   S61       1.0  0.13183  0.33455  0.26019  1.0000
  H   H480      1.0  0.40921  0.41215  0.32176  1.0000
  N   N14       1.0  0.27324  0.36196  0.23914  1.0000
  S   S62       1.0  0.17721  0.48869  0.38350  1.0000
  S   S63       1.0  0.13306  0.12925  0.46547  1.0000
  C   C270      1.0  0.23073  0.35291  0.28730  1.0000
  S   S64       1.0  0.12212  0.11376  0.25210  1.0000
  C   C271      1.0  0.04585  0.11879  0.38047  1.0000
  H   H481      1.0  0.06593  0.26616  0.47964  1.0000
  H   H482      1.0  0.15254  0.38603  0.47960  1.0000
  C   C272      1.0  0.25129  0.36094  0.25213  1.0000
  H   H483      1.0  0.08533  0.12807  0.44961  1.0000
  C   C273      1.0  0.07748  0.48635  0.45323  1.0000
  S   S65       1.0  0.14920  0.00760  0.36740  1.0000
  C   C274      1.0  0.17531  0.01564  0.45074  1.0000
  H   H484      1.0  0.07651  0.47876  0.41314  1.0000
  H   H485      1.0  0.21980  0.40842  0.28978  1.0000
  H   H486      1.0  0.02212  0.09672  0.36813  1.0000
  H   H487      1.0  0.10922  0.32360  0.31620  1.0000
  H   H488      1.0  0.04712  0.17469  0.25316  1.0000
  C   C275      1.0  0.08578  0.13869  0.43490  1.0000
  H   H489      1.0  0.09767  0.16703  0.45020  1.0000
  C   C276      1.0  0.43824  0.37343  0.31941  1.0000
  H   H490      1.0  0.41252  0.21385  0.26955  1.0000
  H   H491      1.0  0.23277  0.35149  0.30435  1.0000
  C   C277      1.0  0.48544  0.18468  0.28014  1.0000
  C   C278      1.0  0.36449  0.09343  0.34719  1.0000
  H   H492      1.0  0.02418  0.12390  0.35446  1.0000
  H   H493      1.0  0.19433  0.40769  0.45194  1.0000
  H   H494      1.0  0.46678  0.30736  0.32086  1.0000
  C   C279      1.0  0.05618  0.28250  0.47796  1.0000
  H   H495      1.0  0.09961  0.31372  0.35907  1.0000
  C   C280      1.0  0.19441  0.04643  0.26926  1.0000
  H   H496      1.0  0.42600  0.34534  0.35677  1.0000
  C   C281      1.0  0.04712  0.07778  0.46682  1.0000
  C   C282      1.0  0.20604  0.05236  0.28863  1.0000
  H   H497      1.0  0.01155  0.26932  0.48525  1.0000
  H   H498      1.0  0.44135  0.36984  0.35800  1.0000
  C   C283      1.0  0.02394  0.11498  0.37009  1.0000
  H   H499      1.0  0.20617  0.03768  0.30004  1.0000
  H   H500      1.0  0.49389  0.30556  0.27595  1.0000
  H   H501      1.0  0.09054  0.25467  0.25085  1.0000
  N   N15       1.0  0.12476  0.19111  0.24784  1.0000
  H   H502      1.0  0.49744  0.16164  0.24158  1.0000
  H   H503      1.0  0.04242  0.06186  0.46034  1.0000
  H   H504      1.0  0.20970  0.41963  0.48072  1.0000
  H   H505      1.0  0.12311  0.47367  0.24386  1.0000
  H   H506      1.0  0.29944  0.29782  0.26074  1.0000
  H   H507      1.0  0.14015  0.15293  0.27543  1.0000
  H   H508      1.0  0.28415  0.10552  0.23939  1.0000
  H   H509      1.0  0.11125  0.49728  0.47762  1.0000
  C   C284      1.0  0.19624  0.42587  0.24259  1.0000
  H   H510      1.0  0.33804  0.00498  0.27024  1.0000
  H   H511      1.0  0.19586  0.33687  0.48036  1.0000
  H   H512      1.0  0.16273  0.39371  0.24798  1.0000
  H   H513      1.0  0.37971  0.00273  0.26524  1.0000
  H   H514      1.0  0.27449  0.39757  0.24433  1.0000
  H   H515      1.0  0.04929  0.45720  0.47651  1.0000
  H   H516      1.0  0.23964  0.01418  0.28199  1.0000
  H   H517      1.0  0.11981  0.26204  0.25018  1.0000
  H   H518      1.0  0.16186  0.45522  0.24566  1.0000
  C   C285      1.0  0.11991  0.21623  0.24488  1.0000
  H   H519      1.0  0.15308  0.43053  0.25939  1.0000
  C   C286      1.0  0.15622  0.43798  0.24341  1.0000
  C   C287      1.0  0.29338  0.29828  0.24474  1.0000
  H   H520      1.0  0.32286  0.20037  0.23816  1.0000
  H   H521      1.0  0.35854  0.18042  0.24025  1.0000
  H   H522      1.0  0.18520  0.08773  0.48160  1.0000
  H   H523      1.0  0.32061  0.15897  0.24624  1.0000
  Fe  Fe30      1.0  0.35679  0.10736  0.23859  1.0000
  H   H524      1.0  0.36075  0.22133  0.24053  1.0000
  C   C288      1.0  0.28807  0.34097  0.24300  1.0000
  H   H525      1.0  0.15517  0.44688  0.48071  1.0000
  H   H526      1.0  0.16610  0.34368  0.48459  1.0000
  C   C289      1.0  0.06695  0.45656  0.48143  1.0000
  H   H527      1.0  0.19243  0.11031  0.24023  1.0000
  H   H528      1.0  0.12372  0.04001  0.48445  1.0000
  C   C290      1.0  0.16905  0.39017  0.48545  1.0000
  C   C291      1.0  0.15261  0.42880  0.48510  1.0000
  H   H529      1.0  0.26257  0.31622  0.25332  1.0000
  H   H530      1.0  0.24073  0.34754  0.24700  1.0000
  H   H531      1.0  0.35876  0.26556  0.24051  1.0000
  C   C292      1.0  0.31800  0.40840  0.23775  1.0000
  S   S66       1.0  0.18373  0.47335  0.58364  1.0000
  Fe  Fe31      1.0  0.10047  0.37859  0.54219  1.0000
  S   S67       1.0  0.07236  0.39269  0.52274  1.0000
  S   S68       1.0  0.10753  0.40444  0.56613  1.0000
  Fe  Fe32      1.0  0.10081  0.33251  0.52082  1.0000
  C   C293      1.0  0.12098  0.44040  0.51078  1.0000
  S   S69       1.0  0.11474  0.29693  0.51312  1.0000
  H   H532      1.0  0.18412  0.00169  0.51261  1.0000
  H   H533      1.0  0.05804  0.25240  0.51813  1.0000
  Fe  Fe33      1.0  0.05636  0.35935  0.52855  1.0000
  S   S70       1.0  0.02041  0.35339  0.54117  1.0000
  S   S71       1.0  0.12094  0.36425  0.51495  1.0000
  S   S72       1.0  0.08308  0.34563  0.54985  1.0000
  Fe  Fe34      1.0  0.09471  0.10859  0.53572  1.0000
  S   S73       1.0  0.08421  0.10382  0.50331  1.0000
  S   S74       1.0  0.09831  0.07488  0.55496  1.0000
  Fe  Fe35      1.0  0.09137  0.16106  0.52861  1.0000
  H   H534      1.0  0.03001  0.41013  0.55119  1.0000
  S   S75       1.0  0.09072  0.19536  0.54379  1.0000
  Fe  Fe36      1.0  0.05808  0.13177  0.50862  1.0000
  H   H535      1.0  0.19784  0.07981  0.50582  1.0000
  S   S76       1.0  0.02324  0.13228  0.49513  1.0000
  H   H536      1.0  0.06365  0.45112  0.53500  1.0000
  S   S77       1.0  0.06665  0.13511  0.54169  1.0000
  S   S78       1.0  0.12015  0.13467  0.52562  1.0000
  H   H537      1.0  0.06832  0.46841  0.49392  1.0000
  C   C294      1.0  0.13564  0.01968  0.57629  1.0000
  H   H538      1.0  0.06552  0.49258  0.53006  1.0000
  C   C295      1.0  0.10744  0.26890  0.52181  1.0000
  C   C296      1.0  0.11228  0.25111  0.50849  1.0000
  C   C297      1.0  0.10741  0.22859  0.51487  1.0000
  C   C298      1.0  0.09765  0.22343  0.53477  1.0000
  C   C299      1.0  0.09300  0.24121  0.54813  1.0000
  C   C300      1.0  0.09785  0.26372  0.54174  1.0000
  H   H539      1.0  0.01395  0.11482  0.53806  1.0000
  H   H540      1.0  0.11138  0.21519  0.50444  1.0000
  H   H541      1.0  0.08576  0.23749  0.56366  1.0000
  H   H542      1.0  0.09467  0.27698  0.55245  1.0000
  H   H543      1.0  0.03195  0.24556  0.53111  1.0000
  C   C301      1.0  0.14361  0.06463  0.56310  1.0000
  C   C302      1.0  0.12159  0.05713  0.56320  1.0000
  C   C303      1.0  0.11776  0.03460  0.57000  1.0000
  H   H544      1.0  0.14681  0.08198  0.55833  1.0000
  H   H545      1.0  0.10080  0.02862  0.57033  1.0000
  C   C304      1.0  0.16212  0.45447  0.57915  1.0000
  C   C305      1.0  0.16723  0.43687  0.56570  1.0000
  C   C306      1.0  0.15079  0.42158  0.56141  1.0000
  C   C307      1.0  0.12888  0.42366  0.57047  1.0000
  C   C308      1.0  0.12372  0.44129  0.58391  1.0000
  C   C309      1.0  0.14016  0.45664  0.58818  1.0000
  H   H546      1.0  0.18418  0.43485  0.55883  1.0000
  H   H547      1.0  0.15522  0.40775  0.55160  1.0000
  H   H548      1.0  0.10694  0.44294  0.59127  1.0000
  H   H549      1.0  0.13592  0.46997  0.59863  1.0000
  H   H550      1.0  0.14682  0.01641  0.51082  1.0000
  C   C310      1.0  0.14489  0.03496  0.51152  1.0000
  Fe  Fe37      1.0  0.10814  0.13089  0.49352  1.0000
  N   N16       1.0  0.16581  0.04643  0.50270  1.0000
  H   H551      1.0  0.01096  0.36810  0.49826  1.0000
  H   H552      1.0  0.18668  0.04913  0.52896  1.0000
  H   H553      1.0  0.25555  0.48400  0.68380  1.0000
  C   C311      1.0  0.03951  0.25272  0.51607  1.0000
  H   H554      1.0  0.11768  0.06021  0.50414  1.0000
  C   C312      1.0  0.04827  0.29043  0.49972  1.0000
  H   H555      1.0  0.17362  0.01173  0.53703  1.0000
  H   H556      1.0  0.00765  0.18658  0.50105  1.0000
  S   S79       1.0  0.08128  0.15877  0.49587  1.0000
  C   C313      1.0  0.17755  0.11037  0.50595  1.0000
  H   H557      1.0  0.14240  0.03789  0.52838  1.0000
  C   C314      1.0  0.16146  0.04975  0.56953  1.0000
  H   H558      1.0  0.13364  0.47665  0.54611  1.0000
  H   H559      1.0  0.15571  0.07482  0.52110  1.0000
  H   H560      1.0  0.18576  0.01755  0.73048  1.0000
  H   H561      1.0  0.23237  0.42456  0.51284  1.0000
  H   H562      1.0  0.20500  0.39406  0.51111  1.0000
  H   H563      1.0  0.01775  0.43165  0.53388  1.0000
  H   H564      1.0  0.05833  0.29712  0.54143  1.0000
  H   H565      1.0  0.10095  0.48529  0.56311  1.0000
  C   C315      1.0  0.18688  0.01396  0.52432  1.0000
  C   C316      1.0  0.14413  0.42833  0.50822  1.0000
  H   H566      1.0  0.12149  0.45797  0.50402  1.0000
  H   H567      1.0  0.00815  0.31231  0.48760  1.0000
  H   H568      1.0  0.02029  0.30557  0.52974  1.0000
  H   H569      1.0  0.21388  0.00445  0.72756  1.0000
  H   H570      1.0  0.13236  0.00243  0.58138  1.0000
  C   C317      1.0  0.03606  0.29501  0.56866  1.0000
  H   H571      1.0  0.10820  0.43120  0.50310  1.0000
  C   C318      1.0  0.19852  0.41177  0.51230  1.0000
  H   H572      1.0  0.21021  0.44209  0.52506  1.0000
  C   C319      1.0  0.18332  0.34918  0.48720  1.0000
  C   C320      1.0  0.20968  0.00779  0.53349  1.0000
  H   H573      1.0  0.17836  0.05582  0.56952  1.0000
  H   H574      1.0  0.19220  0.44125  0.49163  1.0000
  C   C321      1.0  0.19379  0.42262  0.49040  1.0000
  H   H575      1.0  0.14800  0.07836  0.49489  1.0000
  H   H576      1.0  0.15653  0.48076  0.51255  1.0000
  C   C322      1.0  0.18212  0.08647  0.49877  1.0000
  H   H577      1.0  0.02270  0.28427  0.57607  1.0000
  H   H578      1.0  0.05036  0.29456  0.57908  1.0000
  C   C323      1.0  0.00887  0.27696  0.50050  1.0000
  C   C324      1.0  0.07088  0.46094  0.54696  1.0000
  C   C325      1.0  0.04440  0.28638  0.54760  1.0000
  H   H579      1.0  0.00277  0.19811  0.52635  1.0000
  S   S80       1.0  0.07323  0.34509  0.49994  1.0000
  H   H580      1.0  0.09252  0.47828  0.52436  1.0000
  C   C326      1.0  0.21632  0.42445  0.52258  1.0000
  C   C327      1.0  0.07999  0.48286  0.53689  1.0000
  H   H581      1.0  0.15589  0.43729  0.51728  1.0000
  C   C328      1.0  0.16170  0.07151  0.50483  1.0000
  C   C329      1.0  0.10299  0.02841  0.51079  1.0000
  C   C330      1.0  0.09036  0.49687  0.55308  1.0000
  H   H582      1.0  0.17386  0.47606  0.53459  1.0000
  H   H583      1.0  0.20533  0.02749  0.70994  1.0000
  H   H584      1.0  0.05746  0.46454  0.55918  1.0000
  H   H585      1.0  0.18323  0.41156  0.52287  1.0000
  H   H586      1.0  0.06732  0.21634  0.50074  1.0000
  H   H587      1.0  0.22349  0.00829  0.52114  1.0000
  H   H588      1.0  0.08465  0.45037  0.55406  1.0000
  N   N17       1.0  0.03058  0.27675  0.51170  1.0000
  C   C331      1.0  0.16180  0.48818  0.52680  1.0000
  H   H589      1.0  0.06387  0.29031  0.50849  1.0000
  H   H590      1.0  0.10059  0.03064  0.52777  1.0000
  C   C332      1.0  0.18593  0.03873  0.51517  1.0000
  C   C333      1.0  0.14140  0.49298  0.54170  1.0000
  H   H591      1.0  0.05126  0.26893  0.55057  1.0000
  C   C334      1.0  0.15764  0.02718  0.57618  1.0000
  H   H592      1.0  0.17528  0.11019  0.52318  1.0000
  H   H593      1.0  0.20196  0.04150  0.50572  1.0000
  Fe  Fe38      1.0  0.09202  0.37710  0.49603  1.0000
  H   H594      1.0  0.19200  0.12094  0.50086  1.0000
  H   H595      1.0  0.21974  0.41603  0.53798  1.0000
  H   H596      1.0  0.04461  0.20065  0.49282  1.0000
  C   C335      1.0  0.02512  0.28735  0.53225  1.0000
  H   H597      1.0  0.01529  0.40217  0.52933  1.0000
  C   C336      1.0  0.03504  0.23519  0.49997  1.0000
  H   H598      1.0  0.10628  0.01024  0.50810  1.0000
  H   H599      1.0  0.02928  0.31268  0.56688  1.0000
  H   H600      1.0  0.16696  0.38678  0.50251  1.0000
  H   H601      1.0  0.11586  0.44075  0.52758  1.0000
  H   H602      1.0  0.04254  0.30847  0.49820  1.0000
  H   H603      1.0  0.04620  0.20623  0.51990  1.0000
  C   C337      1.0  0.19945  0.01225  0.71908  1.0000
  H   H604      1.0  0.14234  0.41096  0.51504  1.0000
  C   C338      1.0  0.12243  0.04232  0.50140  1.0000
  H   H605      1.0  0.01024  0.27936  0.54048  1.0000
  H   H606      1.0  0.01695  0.23103  0.50132  1.0000
  H   H607      1.0  0.12004  0.25475  0.49315  1.0000
  H   H608      1.0  0.18553  0.34912  0.50419  1.0000
  H   H609      1.0  0.21311  0.01961  0.54555  1.0000
  H   H610      1.0  0.16215  0.11818  0.49909  1.0000
  H   H611      1.0  0.08710  0.03424  0.50347  1.0000
  C   C339      1.0  0.01541  0.41463  0.54150  1.0000
  C   C340      1.0  0.04911  0.21331  0.50369  1.0000
  H   H612      1.0  0.17725  0.00467  0.69567  1.0000
  S   S81       1.0  0.18104  0.00904  0.58350  1.0000
  H   H613      1.0  0.07103  0.43919  0.48782  1.0000
  S   S82       1.0  0.32726  0.47155  0.88790  1.0000
  Fe  Fe39      1.0  0.35691  0.35089  0.93963  1.0000
  S   S83       1.0  0.38487  0.37066  0.94997  1.0000
  S   S84       1.0  0.32732  0.36879  0.92342  1.0000
  Fe  Fe40      1.0  0.37621  0.30613  0.96011  1.0000
  S   S85       1.0  0.40516  0.32378  0.97226  1.0000
  S   S86       1.0  0.37677  0.26872  0.97101  1.0000
  C   C341      1.0  0.48759  0.34253  0.96292  1.0000
  H   H614      1.0  0.38927  0.42768  0.95502  1.0000
  Fe  Fe41      1.0  0.40784  0.34149  0.94065  1.0000
  S   S87       1.0  0.43971  0.34672  0.92010  1.0000
  S   S88       1.0  0.35016  0.33261  0.97084  1.0000
  S   S89       1.0  0.38019  0.32257  0.92786  1.0000
  Fe  Fe42      1.0  0.36998  0.09020  0.93245  1.0000
  S   S90       1.0  0.39915  0.08279  0.95283  1.0000
  S   S91       1.0  0.36532  0.06032  0.91213  1.0000
  Fe  Fe43      1.0  0.36564  0.13957  0.94661  1.0000
  S   S92       1.0  0.39406  0.13439  0.96820  1.0000
  S   S93       1.0  0.34934  0.17457  0.93897  1.0000
  Fe  Fe44      1.0  0.41221  0.11635  0.94217  1.0000
  S   S94       1.0  0.44746  0.12263  0.92812  1.0000
  C   C342      1.0  0.42761  0.18673  0.97117  1.0000
  H   H615      1.0  0.43499  0.40412  0.84849  1.0000
  S   S95       1.0  0.38464  0.12295  0.91994  1.0000
  S   S96       1.0  0.34829  0.10721  0.95744  1.0000
  C   C343      1.0  0.42150  0.18744  0.92363  1.0000
  C   C344      1.0  0.35864  0.20043  0.94724  1.0000
  C   C345      1.0  0.36828  0.20170  0.96639  1.0000
  C   C346      1.0  0.37397  0.22270  0.97318  1.0000
  C   C347      1.0  0.37041  0.24271  0.96085  1.0000
  C   C348      1.0  0.36117  0.24145  0.94149  1.0000
  C   C349      1.0  0.35509  0.22045  0.93485  1.0000
  H   H616      1.0  0.46770  0.01336  0.92003  1.0000
  H   H617      1.0  0.42570  0.27886  0.91687  1.0000
  H   H618      1.0  0.35843  0.25666  0.93178  1.0000
  H   H619      1.0  0.34753  0.21967  0.92005  1.0000
  H   H620      1.0  0.44972  0.07209  0.87560  1.0000
  C   C350      1.0  0.46674  0.34290  0.95364  1.0000
  C   C351      1.0  0.46579  0.34652  0.93212  1.0000
  C   C352      1.0  0.48590  0.34996  0.91996  1.0000
  H   H621      1.0  0.45142  0.34042  0.96320  1.0000
  H   H622      1.0  0.48529  0.35285  0.90329  1.0000
  H   H623      1.0  0.29646  0.49426  0.94879  1.0000
  C   C353      1.0  0.47250  0.12171  0.94170  1.0000
  C   C354      1.0  0.47235  0.11844  0.96334  1.0000
  H   H624      1.0  0.36053  0.05661  0.97258  1.0000
  H   H625      1.0  0.43896  0.36391  0.82097  1.0000
  H   H626      1.0  0.45651  0.11663  0.97227  1.0000
  H   H627      1.0  0.41229  0.22322  0.94329  1.0000
  C   C355      1.0  0.30388  0.03114  0.91160  1.0000
  C   C356      1.0  0.32090  0.04589  0.91578  1.0000
  C   C357      1.0  0.34307  0.04216  0.90774  1.0000
  C   C358      1.0  0.34794  0.02337  0.89563  1.0000
  C   C359      1.0  0.44585  0.18702  0.95291  1.0000
  H   H628      1.0  0.28675  0.03440  0.91769  1.0000
  H   H629      1.0  0.31680  0.06035  0.92489  1.0000
  C   C360      1.0  0.46445  0.05772  0.91491  1.0000
  C   C361      1.0  0.32587  0.44352  0.89910  1.0000
  C   C362      1.0  0.34560  0.43306  0.90693  1.0000
  C   C363      1.0  0.34610  0.41045  0.91476  1.0000
  C   C364      1.0  0.32684  0.39781  0.91481  1.0000
  C   C365      1.0  0.30687  0.40837  0.90747  1.0000
  C   C366      1.0  0.30632  0.43115  0.89976  1.0000
  H   H630      1.0  0.36076  0.44242  0.90665  1.0000
  H   H631      1.0  0.36151  0.40272  0.92048  1.0000
  H   H632      1.0  0.29181  0.39881  0.90745  1.0000
  H   H633      1.0  0.29097  0.43891  0.89379  1.0000
  C   C367      1.0  0.43420  0.24307  0.92188  1.0000
  H   H634      1.0  0.43898  0.22890  0.95239  1.0000
  H   H635      1.0  0.27982  0.47090  0.94366  1.0000
  H   H636      1.0  0.39565  0.47363  0.85309  1.0000
  C   C368      1.0  0.42315  0.39061  0.85345  1.0000
  H   H637      1.0  0.31269  0.22781  0.97423  1.0000
  H   H638      1.0  0.26813  0.21175  0.95944  1.0000
  N   N18       1.0  0.29732  0.27426  0.96728  1.0000
  H   H639      1.0  0.40353  0.21313  0.90447  1.0000
  C   C369      1.0  0.37855  0.42968  0.96951  1.0000
  H   H640      1.0  0.44787  0.42637  0.91718  1.0000
  H   H641      1.0  0.43650  0.05131  0.95354  1.0000
  H   H642      1.0  0.35382  0.40851  0.95950  1.0000
  C   C370      1.0  0.44014  0.05893  0.90700  1.0000
  H   H643      1.0  0.38289  0.17784  0.90388  1.0000
  H   H644      1.0  0.28647  0.06424  0.95277  1.0000
  H   H645      1.0  0.27754  0.20858  0.98576  1.0000
  H   H646      1.0  0.30562  0.30402  0.90730  1.0000
  H   H647      1.0  0.43675  0.38614  0.89378  1.0000
  H   H648      1.0  0.42698  0.16942  0.92216  1.0000
  H   H649      1.0  0.42023  0.07648  0.88345  1.0000
  C   C371      1.0  0.43063  0.22344  0.93859  1.0000
  C   C372      1.0  0.35631  0.03926  0.96913  1.0000
  C   C373      1.0  0.49317  0.12420  0.93028  1.0000
  H   H650      1.0  0.42867  0.23902  0.90650  1.0000
  H   H651      1.0  0.39200  0.18826  0.87817  1.0000
  H   H652      1.0  0.31163  0.03025  0.95793  1.0000
  H   H653      1.0  0.34876  0.43812  0.95293  1.0000
  C   C374      1.0  0.43511  0.41481  0.92438  1.0000
  H   H654      1.0  0.40601  0.18686  0.93413  1.0000
  C   C375      1.0  0.42136  0.26472  0.92819  1.0000
  N   N19       1.0  0.43949  0.20008  0.93311  1.0000
  H   H655      1.0  0.24944  0.28143  0.98323  1.0000
  C   C376      1.0  0.39792  0.18087  0.89321  1.0000
  H   H656      1.0  0.42770  0.19980  0.89085  1.0000
  H   H657      1.0  0.42325  0.20393  0.97637  1.0000
  H   H658      1.0  0.40288  0.26265  0.92829  1.0000
  H   H659      1.0  0.40704  0.16448  0.89041  1.0000
  C   C377      1.0  0.38743  0.45789  0.85886  1.0000
  C   C378      1.0  0.28314  0.21023  0.96903  1.0000
  H   H660      1.0  0.41167  0.39022  0.84044  1.0000
  H   H661      1.0  0.46929  0.07550  0.91588  1.0000
  H   H662      1.0  0.46076  0.34834  0.83478  1.0000
  H   H663      1.0  0.46105  0.16788  0.90630  1.0000
  H   H664      1.0  0.42760  0.42212  0.93877  1.0000
  C   C379      1.0  0.45419  0.05686  0.95241  1.0000
  H   H665      1.0  0.37505  0.45383  0.84749  1.0000
  H   H666      1.0  0.33159  0.31744  0.91069  1.0000
  H   H667      1.0  0.31158  0.43274  0.95061  1.0000
  H   H668      1.0  0.32194  0.46863  0.96955  1.0000
  H   H669      1.0  0.42582  0.26926  0.94387  1.0000
  C   C380      1.0  0.33852  0.42779  0.98531  1.0000
  H   H670      1.0  0.41199  0.17941  0.96661  1.0000
  C   C381      1.0  0.41344  0.19705  0.90240  1.0000
  C   C382      1.0  0.29700  0.47575  0.94714  1.0000
  C   C383      1.0  0.43772  0.07632  0.88878  1.0000
  H   H671      1.0  0.27441  0.07800  0.97520  1.0000
  C   C384      1.0  0.28958  0.36417  0.97631  1.0000
  H   H672      1.0  0.44944  0.01059  0.96591  1.0000
  H   H673      1.0  0.45272  0.07534  0.94837  1.0000
  H   H674      1.0  0.33196  0.28734  0.90842  1.0000
  H   H675      1.0  0.37822  0.46103  0.87396  1.0000
  H   H676      1.0  0.46252  0.37836  0.82992  1.0000
  C   C385      1.0  0.32208  0.30199  0.91472  1.0000
  H   H677      1.0  0.42747  0.06353  0.91948  1.0000
  H   H678      1.0  0.45007  0.16901  0.94988  1.0000
  H   H679      1.0  0.31715  0.26303  0.94015  1.0000
  C   C386      1.0  0.46068  0.20162  0.91904  1.0000
  C   C387      1.0  0.46093  0.00476  0.95294  1.0000
  H   H680      1.0  0.36498  0.02030  0.88924  1.0000
  H   H681      1.0  0.47590  0.05052  0.90243  1.0000
  C   C388      1.0  0.31843  0.29884  0.93834  1.0000
  C   C389      1.0  0.49262  0.04253  0.93875  1.0000
  C   C390      1.0  0.47271  0.17892  0.91335  1.0000
  H   H682      1.0  0.48811  0.33971  0.97962  1.0000
  H   H683      1.0  0.44085  0.09347  0.89360  1.0000
  C   C391      1.0  0.29824  0.05027  0.98250  1.0000
  N   N20       1.0  0.41009  0.39638  0.87334  1.0000
  C   C392      1.0  0.46311  0.05463  0.97466  1.0000
  C   C393      1.0  0.39415  0.41630  0.86877  1.0000
  C   C394      1.0  0.43757  0.36813  0.85441  1.0000
  C   C395      1.0  0.39642  0.37690  0.88212  1.0000
  C   C396      1.0  0.37958  0.36796  0.86730  1.0000
  H   H684      1.0  0.45738  0.21115  0.90417  1.0000
  C   C397      1.0  0.41661  0.41165  0.90938  1.0000
  C   C398      1.0  0.40529  0.43870  0.86146  1.0000
  H   H685      1.0  0.26958  0.25456  0.95966  1.0000
  C   C399      1.0  0.36876  0.34667  0.87677  1.0000
  H   H686      1.0  0.27222  0.35822  0.97551  1.0000
  H   H687      1.0  0.45241  0.24680  0.92008  1.0000
  H   H688      1.0  0.37068  0.18654  0.97627  1.0000
  Fe  Fe45      1.0  0.37839  0.10109  0.97709  1.0000
  H   H689      1.0  0.38286  0.41261  0.85632  1.0000
  H   H690      1.0  0.38260  0.41939  0.88255  1.0000
  C   C400      1.0  0.30540  0.27720  0.94466  1.0000
  H   H691      1.0  0.47327  0.21143  0.92648  1.0000
  H   H692      1.0  0.40770  0.36259  0.88773  1.0000
  H   H693      1.0  0.38608  0.38168  0.89620  1.0000
  H   H694      1.0  0.38794  0.36371  0.85215  1.0000
  H   H695      1.0  0.36570  0.38073  0.86442  1.0000
  H   H696      1.0  0.49529  0.07819  0.94519  1.0000
  H   H697      1.0  0.39057  0.46575  0.93403  1.0000
  H   H698      1.0  0.40435  0.40028  0.91747  1.0000
  H   H699      1.0  0.40789  0.42830  0.90627  1.0000
  H   H700      1.0  0.44363  0.39831  0.92880  1.0000
  H   H701      1.0  0.43953  0.41335  0.88197  1.0000
  H   H702      1.0  0.41722  0.44382  0.87273  1.0000
  C   C401      1.0  0.42676  0.40165  0.88902  1.0000
  H   H703      1.0  0.29128  0.01642  0.97418  1.0000
  H   H704      1.0  0.35657  0.34083  0.86602  1.0000
  H   H705      1.0  0.38183  0.33298  0.87946  1.0000
  H   H706      1.0  0.35941  0.35019  0.89170  1.0000
  H   H707      1.0  0.42680  0.35346  0.85776  1.0000
  H   H708      1.0  0.42653  0.49248  0.75589  1.0000
  C   C402      1.0  0.30630  0.02694  0.97449  1.0000
  H   H709      1.0  0.30354  0.23060  0.94800  1.0000
  C   C403      1.0  0.28853  0.38970  0.97822  1.0000
  H   H710      1.0  0.41463  0.43699  0.84619  1.0000
  C   C404      1.0  0.27991  0.06140  0.96914  1.0000
  H   H711      1.0  0.46136  0.19374  0.95880  1.0000
  H   H712      1.0  0.38560  0.03461  0.94775  1.0000
  H   H713      1.0  0.27971  0.39745  0.96468  1.0000
  C   C405      1.0  0.38026  0.47940  0.92616  1.0000
  H   H714      1.0  0.33539  0.29739  0.94481  1.0000
  H   H715      1.0  0.27361  0.30175  0.95844  1.0000
  H   H716      1.0  0.24537  0.32361  0.98220  1.0000
  H   H717      1.0  0.29316  0.19466  0.96503  1.0000
  C   C406      1.0  0.30870  0.01251  0.89926  1.0000
  C   C407      1.0  0.37857  0.02682  0.96264  1.0000
  H   H718      1.0  0.30941  0.31429  0.94390  1.0000
  H   H719      1.0  0.44066  0.02237  0.93072  1.0000
  N   N21       1.0  0.46759  0.04466  0.93548  1.0000
  H   H720      1.0  0.29081  0.27684  0.93454  1.0000
  C   C408      1.0  0.49285  0.11738  0.97342  1.0000
  H   H721      1.0  0.28553  0.43414  0.96512  1.0000
  H   H722      1.0  0.47834  0.06463  0.97537  1.0000
  H   H723      1.0  0.45448  0.48291  0.76288  1.0000
  C   C409      1.0  0.30465  0.46340  0.96717  1.0000
  C   C410      1.0  0.33094  0.00865  0.89142  1.0000
  N   N22       1.0  0.31389  0.42329  0.98341  1.0000
  H   H724      1.0  0.45001  0.36800  0.86662  1.0000
  C   C411      1.0  0.45897  0.02138  0.93368  1.0000
  H   H725      1.0  0.43595  0.04242  0.90135  1.0000
  H   H726      1.0  0.36227  0.47478  0.92748  1.0000
  C   C412      1.0  0.28430  0.25291  0.96972  1.0000
  C   C413      1.0  0.31768  0.27275  0.98027  1.0000
  H   H727      1.0  0.26502  0.05072  0.96956  1.0000
  H   H728      1.0  0.30895  0.47180  0.93383  1.0000
  H   H729      1.0  0.38015  0.44699  0.97470  1.0000
  Fe  Fe46      1.0  0.37937  0.35118  0.98054  1.0000
  C   C414      1.0  0.45071  0.36456  0.83371  1.0000
  H   H730      1.0  0.29302  0.46914  0.98008  1.0000
  C   C415      1.0  0.31263  0.39881  0.97852  1.0000
  H   H731      1.0  0.34547  0.04162  0.95579  1.0000
  C   C416      1.0  0.30371  0.43755  0.96592  1.0000
  H   H732      1.0  0.32074  0.39564  0.96295  1.0000
  C   C417      1.0  0.35405  0.42559  0.96533  1.0000
  C   C418      1.0  0.29777  0.23063  0.96465  1.0000
  H   H733      1.0  0.37615  0.00881  0.96038  1.0000
  H   H734      1.0  0.32985  0.25943  0.97478  1.0000
  H   H735      1.0  0.29953  0.35958  0.96195  1.0000
  H   H736      1.0  0.48688  0.19074  0.88290  1.0000
  H   H737      1.0  0.49342  0.12663  0.91351  1.0000
  H   H738      1.0  0.32705  0.28854  0.97819  1.0000
  H   H739      1.0  0.49605  0.03415  0.95411  1.0000
  H   H740      1.0  0.47952  0.16998  0.92736  1.0000
  C   C419      1.0  0.44455  0.49108  0.75020  1.0000
  H   H741      1.0  0.47844  0.00285  0.95808  1.0000
  H   H742      1.0  0.38480  0.41719  0.98160  1.0000
  H   H743      1.0  0.27693  0.25020  0.98580  1.0000
  H   H744      1.0  0.34099  0.00758  0.94452  1.0000
  H   H745      1.0  0.39108  0.02812  0.97464  1.0000
  H   H746      1.0  0.38601  0.48084  0.90945  1.0000
  C   C420      1.0  0.28222  0.29468  0.97247  1.0000
  H   H747      1.0  0.29258  0.30855  0.97711  1.0000
  Fe  Fe47      1.0  0.30070  0.49930  0.87878  1.0000
  H   H748      1.0  0.31243  0.06185  0.98179  1.0000
  H   H749      1.0  0.37669  0.49920  0.95289  1.0000
  H   H750      1.0  0.13633  0.49329  0.83427  1.0000
  C   C421      1.0  0.49272  0.18267  0.89773  1.0000
  H   H751      1.0  0.46778  0.03701  0.97962  1.0000
  H   H752      1.0  0.44020  0.08136  0.98650  1.0000
  N   N23       1.0  0.32454  0.01414  0.98637  1.0000
  H   H753      1.0  0.43976  0.15475  0.98575  1.0000
  H   H754      1.0  0.44618  0.48020  0.73671  1.0000
  S   S97       1.0  0.28417  0.95187  0.09417  1.0000
  H   H755      1.0  0.35679  0.73533  0.98910  1.0000
  S   S98       1.0  0.33631  0.61847  0.02544  1.0000
  H   H756      1.0  0.28678  0.83892  0.01349  1.0000
  Fe  Fe48      1.0  0.40058  0.60881  0.01004  1.0000
  S   S99       1.0  0.38745  0.61327  0.04285  1.0000
  H   H757      1.0  0.30516  0.54043  0.10156  1.0000
  Fe  Fe49      1.0  0.36013  0.58981  0.03615  1.0000
  S   S100      1.0  0.35518  0.55931  0.05909  1.0000
  Fe  Fe50      1.0  0.36492  0.64149  0.02939  1.0000
  S   S101      1.0  0.36165  0.67505  0.04532  1.0000
  S   S102      1.0  0.37502  0.58360  0.00404  1.0000
  C   C422      1.0  0.28494  0.53938  0.15290  1.0000
  Fe  Fe51      1.0  0.41298  0.83266  0.01801  1.0000
  S   S103      1.0  0.38801  0.82019  0.04329  1.0000
  S   S104      1.0  0.45009  0.82170  0.01239  1.0000
  C   C423      1.0  0.49855  0.70596  0.01373  1.0000
  S   S105      1.0  0.34758  0.84518  0.01561  1.0000
  C   C424      1.0  0.22409  0.51980  0.12245  1.0000
  Fe  Fe52      1.0  0.37061  0.85525  0.03980  1.0000
  S   S106      1.0  0.36305  0.88107  0.06487  1.0000
  Fe  Fe53      1.0  0.36701  0.81115  0.01704  1.0000
  S   S107      1.0  0.35273  0.77752  0.00904  1.0000
  S   S108      1.0  0.39751  0.86776  0.01649  1.0000
  C   C425      1.0  0.31876  0.98720  0.19678  1.0000
  C   C426      1.0  0.36033  0.70343  0.03462  1.0000
  C   C427      1.0  0.35983  0.70870  0.01322  1.0000
  C   C428      1.0  0.35801  0.73145  0.00560  1.0000
  C   C429      1.0  0.35776  0.74926  0.01913  1.0000
  C   C430      1.0  0.35935  0.74395  0.04043  1.0000
  C   C431      1.0  0.36028  0.72121  0.04811  1.0000
  H   H758      1.0  0.24906  0.54942  0.15861  1.0000
  C   C432      1.0  0.29569  0.67609  0.04329  1.0000
  H   H759      1.0  0.35890  0.75738  0.05108  1.0000
  H   H760      1.0  0.36087  0.71740  0.06469  1.0000
  C   C433      1.0  0.42340  0.76623  0.02050  1.0000
  C   C434      1.0  0.47219  0.84113  0.04303  1.0000
  C   C435      1.0  0.47300  0.83469  0.02249  1.0000
  C   C436      1.0  0.48140  0.61086  0.99815  1.0000
  H   H761      1.0  0.28432  0.57430  0.18066  1.0000
  H   H762      1.0  0.33331  0.51109  0.12423  1.0000
  H   H763      1.0  0.45668  0.83980  0.05259  1.0000
  Fe  Fe54      1.0  0.28577  0.98737  0.10618  1.0000
  H   H764      1.0  0.33729  0.51327  0.99103  1.0000
  C   C437      1.0  0.47639  0.63422  0.03447  1.0000
  C   C438      1.0  0.45746  0.62509  0.02650  1.0000
  C   C439      1.0  0.45989  0.61348  0.00823  1.0000
  C   C440      1.0  0.26824  0.56555  0.18013  1.0000
  H   H765      1.0  0.49203  0.78645  0.03090  1.0000
  H   H766      1.0  0.47458  0.64287  0.04879  1.0000
  H   H767      1.0  0.44106  0.62672  0.03461  1.0000
  C   C441      1.0  0.29676  0.50828  0.13075  1.0000
  H   H768      1.0  0.30366  0.97315  0.03866  1.0000
  C   C442      1.0  0.34091  0.90159  0.07064  1.0000
  C   C443      1.0  0.31807  0.89722  0.06931  1.0000
  C   C444      1.0  0.30106  0.91267  0.07674  1.0000
  C   C445      1.0  0.30650  0.93311  0.08488  1.0000
  C   C446      1.0  0.32933  0.93777  0.08566  1.0000
  C   C447      1.0  0.34635  0.92198  0.07887  1.0000
  H   H769      1.0  0.31353  0.88141  0.06359  1.0000
  H   H770      1.0  0.28353  0.90857  0.07649  1.0000
  H   H771      1.0  0.33390  0.95321  0.09209  1.0000
  H   H772      1.0  0.36391  0.92540  0.08035  1.0000
  C   C448      1.0  0.33386  0.53913  0.06162  1.0000
  C   C449      1.0  0.31250  0.54353  0.05379  1.0000
  C   C450      1.0  0.29522  0.52821  0.05844  1.0000
  H   H773      1.0  0.45992  0.77378  0.05228  1.0000
  C   C451      1.0  0.33798  0.51875  0.07331  1.0000
  H   H774      1.0  0.30903  0.55914  0.04486  1.0000
  C   C452      1.0  0.49778  0.63199  0.02418  1.0000
  H   H775      1.0  0.36067  0.69526  0.00262  1.0000
  H   H776      1.0  0.25402  0.57769  0.18397  1.0000
  N   N24       1.0  0.43323  0.70068  0.02468  1.0000
  C   C453      1.0  0.45842  0.69868  0.02732  1.0000
  C   C454      1.0  0.47823  0.55386  0.03936  1.0000
  C   C455      1.0  0.42119  0.69599  0.04568  1.0000
  N   N25       1.0  0.28695  0.53223  0.13072  1.0000
  H   H777      1.0  0.21288  0.50623  0.12861  1.0000
  H   H778      1.0  0.32518  0.97247  0.20644  1.0000
  C   C456      1.0  0.42405  0.67166  0.05546  1.0000
  H   H779      1.0  0.25568  0.54938  0.12121  1.0000
  H   H780      1.0  0.29744  0.58030  0.12992  1.0000
  C   C457      1.0  0.24792  0.51467  0.12972  1.0000
  C   C458      1.0  0.41483  0.67017  0.07809  1.0000
  H   H781      1.0  0.33768  0.97853  0.01524  1.0000
  H   H782      1.0  0.30551  0.68580  0.05360  1.0000
  H   H783      1.0  0.24720  0.51353  0.14697  1.0000
  H   H784      1.0  0.45078  0.55722  0.06320  1.0000
  H   H785      1.0  0.40283  0.69979  0.04477  1.0000
  H   H786      1.0  0.42685  0.70741  0.05723  1.0000
  H   H787      1.0  0.24302  0.93894  0.03546  1.0000
  H   H788      1.0  0.26727  0.52984  0.10375  1.0000
  H   H789      1.0  0.27855  0.57531  0.10974  1.0000
  C   C459      1.0  0.32812  0.92893  0.99866  1.0000
  C   C460      1.0  0.49468  0.56978  0.04846  1.0000
  H   H790      1.0  0.49122  0.85263  0.06761  1.0000
  H   H791      1.0  0.44208  0.66595  0.05508  1.0000
  H   H792      1.0  0.41444  0.65986  0.04700  1.0000
  H   H793      1.0  0.40745  0.68413  0.00960  1.0000
  C   C461      1.0  0.32974  0.99348  0.02266  1.0000
  H   H794      1.0  0.21712  0.53610  0.12817  1.0000
  C   C462      1.0  0.42623  0.68348  0.01022  1.0000
  C   C463      1.0  0.26454  0.53260  0.12069  1.0000
  C   C464      1.0  0.35103  0.92637  0.00846  1.0000
  H   H795      1.0  0.29773  0.65792  0.04818  1.0000
  H   H796      1.0  0.32811  0.97618  0.05328  1.0000
  H   H797      1.0  0.28206  0.94241  0.00197  1.0000
  H   H798      1.0  0.41640  0.65243  0.08441  1.0000
  H   H799      1.0  0.42445  0.68082  0.08773  1.0000
  H   H800      1.0  0.39668  0.67574  0.07915  1.0000
  H   H801      1.0  0.44223  0.54907  0.03844  1.0000
  C   C465      1.0  0.31170  0.58454  0.09885  1.0000
  H   H802      1.0  0.46246  0.70314  0.04320  1.0000
  H   H803      1.0  0.27853  0.53218  0.05296  1.0000
  C   C466      1.0  0.26577  0.55706  0.15850  1.0000
  H   H804      1.0  0.30980  0.57840  0.08315  1.0000
  H   H805      1.0  0.49236  0.58655  0.04008  1.0000
  H   H806      1.0  0.32913  0.98813  0.18188  1.0000
  H   H807      1.0  0.34880  0.92279  0.02555  1.0000
  H   H808      1.0  0.49414  0.83116  0.99448  1.0000
  H   H809      1.0  0.40701  0.76787  0.01291  1.0000
  H   H810      1.0  0.48840  0.57218  0.06480  1.0000
  H   H811      1.0  0.29838  0.64827  0.00866  1.0000
  H   H812      1.0  0.47765  0.76176  0.07230  1.0000
  C   C467      1.0  0.42638  0.74300  0.03169  1.0000
  C   C468      1.0  0.49336  0.83622  0.01035  1.0000
  H   H813      1.0  0.44273  0.74197  0.03925  1.0000
  H   H814      1.0  0.26575  0.95832  0.03474  1.0000
  H   H815      1.0  0.42349  0.77953  0.03188  1.0000
  H   H816      1.0  0.36025  0.94215  0.00554  1.0000
  C   C469      1.0  0.42507  0.72383  0.01656  1.0000
  H   H817      1.0  0.46952  0.71244  0.99572  1.0000
  H   H818      1.0  0.27420  0.66638  0.01066  1.0000
  H   H819      1.0  0.27761  0.68168  0.04516  1.0000
  H   H820      1.0  0.31982  0.54635  0.12372  1.0000
  H   H821      1.0  0.30100  0.98471  0.19317  1.0000
  H   H822      1.0  0.22426  0.52047  0.10518  1.0000
  H   H823      1.0  0.31020  0.86307  0.98914  1.0000
  C   C470      1.0  0.47604  0.77533  0.05984  1.0000
  C   C471      1.0  0.30460  0.68026  0.02078  1.0000
  C   C472      1.0  0.30277  0.54695  0.11739  1.0000
  H   H824      1.0  0.32440  0.51322  0.15135  1.0000
  C   C473      1.0  0.29238  0.66616  0.00571  1.0000
  H   H825      1.0  0.41261  0.74165  0.04407  1.0000
  H   H826      1.0  0.28208  0.52460  0.16403  1.0000
  H   H827      1.0  0.46458  0.68076  0.02635  1.0000
  H   H828      1.0  0.31848  0.94301  0.00602  1.0000
  C   C474      1.0  0.32087  0.50316  0.07750  1.0000
  C   C475      1.0  0.31644  0.98512  0.04239  1.0000
  H   H829      1.0  0.23678  0.72969  0.98936  1.0000
  H   H830      1.0  0.47956  0.55558  0.02209  1.0000
  H   H831      1.0  0.44920  0.57775  0.04143  1.0000
  C   C476      1.0  0.27688  0.92507  0.00648  1.0000
  C   C477      1.0  0.31554  0.90673  0.00155  1.0000
  S   S109      1.0  0.43665  0.60149  0.99785  1.0000
  H   H832      1.0  0.32962  0.58180  0.10286  1.0000
  N   N26       1.0  0.29143  0.90766  0.99514  1.0000
  C   C478      1.0  0.27674  0.92319  0.03053  1.0000
  Fe  Fe55      1.0  0.37527  0.85631  0.99268  1.0000
  S   S110      1.0  0.38000  0.63837  0.99706  1.0000
  C   C479      1.0  0.47367  0.71334  0.01212  1.0000
  H   H833      1.0  0.26661  0.70627  0.00577  1.0000
  C   C480      1.0  0.26055  0.94111  0.03993  1.0000
  H   H834      1.0  0.43419  0.72904  0.00173  1.0000
  H   H835      1.0  0.26793  0.55130  0.19208  1.0000
  H   H836      1.0  0.43103  0.66610  0.01613  1.0000
  H   H837      1.0  0.30741  0.60293  0.09828  1.0000
  H   H838      1.0  0.26065  0.93946  0.05715  1.0000
  H   H839      1.0  0.32285  0.67525  0.02014  1.0000
  H   H840      1.0  0.28450  0.87995  0.01770  1.0000
  H   H841      1.0  0.31650  0.90030  0.01808  1.0000
  H   H842      1.0  0.36154  0.91239  0.00163  1.0000
  C   C481      1.0  0.29595  0.57236  0.11494  1.0000
  H   H843      1.0  0.26547  0.57186  0.14731  1.0000
  H   H844      1.0  0.27119  0.90657  0.03701  1.0000
  H   H845      1.0  0.29386  0.92588  0.03572  1.0000
  H   H846      1.0  0.47173  0.73131  0.01596  1.0000
  H   H847      1.0  0.29584  0.50143  0.11519  1.0000
  C   C482      1.0  0.49181  0.84831  0.05152  1.0000
  H   H848      1.0  0.30125  0.54594  0.15713  1.0000
  H   H849      1.0  0.40704  0.72355  0.01262  1.0000
  C   C483      1.0  0.29919  0.50810  0.07056  1.0000
  H   H850      1.0  0.30289  0.69859  0.01653  1.0000
  Fe  Fe56      1.0  0.35325  0.61348  0.99373  1.0000
  C   C484      1.0  0.45366  0.55989  0.04608  1.0000
  H   H851      1.0  0.35443  0.51518  0.07946  1.0000
  H   H852      1.0  0.47538  0.79204  0.06681  1.0000
  H   H853      1.0  0.18351  0.99833  0.08348  1.0000
  C   C485      1.0  0.32157  0.50459  0.13699  1.0000
  H   H854      1.0  0.48196  0.53600  0.04444  1.0000
  H   H855      1.0  0.26316  0.88569  0.99953  1.0000
  H   H856      1.0  0.25908  0.92453  0.00190  1.0000
  C   C486      1.0  0.28212  0.84258  0.99715  1.0000
  H   H857      1.0  0.25593  0.64803  0.98927  1.0000
  H   H858      1.0  0.43739  0.76915  0.00860  1.0000
  H   H859      1.0  0.49645  0.75670  0.03725  1.0000
  S   S111      1.0  0.39274  0.82226  0.99209  1.0000
  C   C487      1.0  0.26302  0.70301  0.98954  1.0000
  H   H860      1.0  0.25036  0.68990  0.99024  1.0000
  H   H861      1.0  0.26344  0.84312  0.99648  1.0000
  C   C488      1.0  0.28180  0.88491  0.00109  1.0000
  C   C489      1.0  0.49578  0.77365  0.04364  1.0000
  H   H862      1.0  0.32607  0.89435  0.99250  1.0000
  H   H863      1.0  0.32214  0.54021  0.98815  1.0000
  S   S112      1.0  0.28230  0.99829  0.13945  1.0000
  H   H864      1.0  0.45513  0.68056  0.98776  1.0000
  C   C490      1.0  0.43679  0.68518  0.98771  1.0000
  C   C491      1.0  0.50031  0.62014  0.00605  1.0000
  H   H865      1.0  0.36578  0.99383  0.10604  1.0000
  H   H866      1.0  0.28934  0.82866  0.98772  1.0000
  C   C492      1.0  0.29164  0.86487  0.98851  1.0000
  H   H867      1.0  0.30783  0.99949  0.05036  1.0000
  H   H868      1.0  0.39413  0.99963  0.09653  1.0000
  H   H869      1.0  0.29855  0.99844  0.00649  1.0000
  S   S113      1.0  0.18807  0.95470  0.37956  1.0000
  Fe  Fe57      1.0  0.06774  0.59944  0.45777  1.0000
  S   S114      1.0  0.07825  0.62237  0.43038  1.0000
  S   S115      1.0  0.03294  0.58782  0.46892  1.0000
  Fe  Fe58      1.0  0.11663  0.59116  0.47090  1.0000
  S   S116      1.0  0.13066  0.61373  0.44464  1.0000
  H   H870      1.0  0.11797  0.95133  0.36138  1.0000
  Fe  Fe59      1.0  0.10094  0.63777  0.45236  1.0000
  S   S117      1.0  0.10017  0.67445  0.46247  1.0000
  Fe  Fe60      1.0  0.10710  0.59633  0.42514  1.0000
  S   S118      1.0  0.11574  0.57943  0.39451  1.0000
  C   C493      1.0  0.05356  0.72925  0.43953  1.0000
  S   S119      1.0  0.09478  0.57290  0.45109  1.0000
  Fe  Fe61      1.0  0.11237  0.80931  0.44774  1.0000
  S   S120      1.0  0.03092  0.82468  0.47011  1.0000
  S   S121      1.0  0.12565  0.77589  0.43422  1.0000
  Fe  Fe62      1.0  0.10547  0.86049  0.43753  1.0000
  S   S122      1.0  0.08359  0.86467  0.46685  1.0000
  S   S123      1.0  0.10783  0.89388  0.41780  1.0000
  H   H871      1.0  0.06812  0.76372  0.45838  1.0000
  H   H872      1.0  0.14365  0.90051  0.33931  1.0000
  Fe  Fe63      1.0  0.06723  0.83289  0.46013  1.0000
  H   H873      1.0  0.13943  0.91600  0.36166  1.0000
  S   S124      1.0  0.13280  0.83970  0.45360  1.0000
  S   S125      1.0  0.08667  0.83012  0.42941  1.0000
  H   H874      1.0  0.08098  0.79330  0.39091  1.0000
  H   H875      1.0  0.10483  0.90388  0.28354  1.0000
  H   H876      1.0  0.02237  0.84454  0.42838  1.0000
  C   C494      1.0  0.19511  0.94251  0.32299  1.0000
  C   C495      1.0  0.17515  0.64323  0.47262  1.0000
  H   H877      1.0  0.02485  0.61492  0.43054  1.0000
  H   H878      1.0  0.19363  0.64112  0.46936  1.0000
  C   C496      1.0  0.10871  0.70218  0.45446  1.0000
  C   C497      1.0  0.11900  0.70755  0.43484  1.0000
  C   C498      1.0  0.12418  0.73010  0.42896  1.0000
  C   C499      1.0  0.11927  0.74759  0.44259  1.0000
  C   C500      1.0  0.10967  0.74205  0.46244  1.0000
  C   C501      1.0  0.10439  0.71955  0.46828  1.0000
  H   H879      1.0  0.12264  0.69442  0.42405  1.0000
  H   H880      1.0  0.13189  0.73408  0.41366  1.0000
  H   H881      1.0  0.10641  0.75513  0.47330  1.0000
  H   H882      1.0  0.17705  0.92161  0.34588  1.0000
  C   C502      1.0  0.16596  0.93822  0.39139  1.0000
  C   C503      1.0  0.17042  0.91531  0.39720  1.0000
  C   C504      1.0  0.15302  0.90152  0.40570  1.0000
  C   C505      1.0  0.13087  0.91046  0.40834  1.0000
  C   C506      1.0  0.12645  0.93331  0.40249  1.0000
  C   C507      1.0  0.14390  0.94718  0.39444  1.0000
  H   H883      1.0  0.18740  0.90811  0.39491  1.0000
  H   H884      1.0  0.15666  0.88387  0.40975  1.0000
  H   H885      1.0  0.10937  0.94037  0.40428  1.0000
  H   H886      1.0  0.14015  0.96475  0.39027  1.0000
  H   H887      1.0  0.07187  0.73250  0.43760  1.0000
  C   C508      1.0  0.14620  0.54497  0.40751  1.0000
  C   C509      1.0  0.13263  0.55400  0.39176  1.0000
  C   C510      1.0  0.13269  0.54274  0.37313  1.0000
  H   H888      1.0  0.17270  0.91600  0.31953  1.0000
  H   H889      1.0  0.14649  0.55345  0.42188  1.0000
  H   H890      1.0  0.12234  0.54957  0.36079  1.0000
  H   H891      1.0  0.09906  0.91056  0.36426  1.0000
  C   C511      1.0  0.04973  0.76159  0.46153  1.0000
  C   C512      1.0  0.00682  0.83815  0.43549  1.0000
  H   H892      1.0  0.04778  0.72755  0.40605  1.0000
  H   H893      1.0  0.06282  0.68440  0.43122  1.0000
  N   N27       1.0  0.03994  0.75075  0.44368  1.0000
  C   C513      1.0  0.06486  0.77242  0.41558  1.0000
  C   C514      1.0  0.12160  0.91094  0.27935  1.0000
  H   H894      1.0  0.12460  0.87767  0.37574  1.0000
  C   C515      1.0  0.13413  0.91438  0.29891  1.0000
  H   H895      1.0  0.08309  0.52892  0.44430  1.0000
  H   H896      1.0  0.19788  0.95580  0.33385  1.0000
  C   C516      1.0  0.10943  0.90103  0.35254  1.0000
  H   H897      1.0  0.11924  0.92715  0.27010  1.0000
  C   C517      1.0  0.01566  0.74506  0.44868  1.0000
  H   H898      1.0  0.03372  0.87882  0.48558  1.0000
  C   C518      1.0  0.17412  0.92965  0.33020  1.0000
  H   H899      1.0  0.09944  0.89952  0.33873  1.0000
  C   C519      1.0  0.12102  0.93161  0.31264  1.0000
  H   H900      1.0  0.09777  0.86971  0.36756  1.0000
  C   C520      1.0  0.05766  0.54737  0.41459  1.0000
  H   H901      1.0  0.14591  0.51431  0.35585  1.0000
  H   H902      1.0  0.03087  0.76144  0.41237  1.0000
  H   H903      1.0  0.11827  0.96610  0.48237  1.0000
  H   H904      1.0  0.13156  0.89890  0.26952  1.0000
  C   C521      1.0  0.14488  0.50745  0.46933  1.0000
  H   H905      1.0  0.10016  0.52816  0.42100  1.0000
  H   H906      1.0  0.02959  0.71044  0.42313  1.0000
  H   H907      1.0  0.12273  0.86632  0.35051  1.0000
  C   C522      1.0  0.15149  0.90134  0.46395  1.0000
  C   C523      1.0  0.11400  0.87724  0.36214  1.0000
  H   H908      1.0  0.05703  0.68659  0.40406  1.0000
  H   H909      1.0  0.13528  0.98611  0.44060  1.0000
  H   H910      1.0  0.15330  0.95788  0.31764  1.0000
  C   C524      1.0  0.17404  0.89142  0.45521  1.0000
  C   C525      1.0  0.15993  0.51392  0.38589  1.0000
  H   H911      1.0  0.05471  0.80536  0.40155  1.0000
  H   H912      1.0  0.03268  0.78375  0.42905  1.0000
  H   H913      1.0  0.34751  0.99789  0.24429  1.0000
  H   H914      1.0  0.06775  0.51570  0.40202  1.0000
  C   C526      1.0  0.12490  0.95262  0.45197  1.0000
  C   C527      1.0  0.15515  0.91954  0.47958  1.0000
  C   C528      1.0  0.13181  0.91295  0.34676  1.0000
  H   H915      1.0  0.11303  0.52426  0.46353  1.0000
  C   C529      1.0  0.12005  0.50665  0.46443  1.0000
  Fe  Fe64      1.0  0.10994  0.84275  0.48259  1.0000
  H   H916      1.0  0.05210  0.71702  0.45321  1.0000
  H   H917      1.0  0.18453  0.88447  0.46800  1.0000
  H   H918      1.0  0.07147  0.55692  0.40635  1.0000
  H   H919      1.0  0.05463  0.78237  0.38429  1.0000
  H   H920      1.0  0.15427  0.51755  0.45693  1.0000
  H   H921      1.0  0.16819  0.93098  0.47253  1.0000
  H   H922      1.0  0.17026  0.67817  0.45910  1.0000
  C   C530      1.0  0.06480  0.52241  0.41769  1.0000
  H   H923      1.0  0.07409  0.75704  0.41009  1.0000
  C   C531      1.0  0.06360  0.78940  0.39693  1.0000
  H   H924      1.0  0.09678  0.71561  0.48362  1.0000
  C   C532      1.0  0.13120  0.95475  0.47467  1.0000
  C   C533      1.0  0.09494  0.98951  0.34914  1.0000
  H   H925      1.0  0.18005  0.99803  0.44687  1.0000
  H   H926      1.0  0.12765  0.98314  0.33445  1.0000
  C   C534      1.0  0.04694  0.71658  0.42055  1.0000
  H   H927      1.0  0.04256  0.77906  0.46296  1.0000
  C   C535      1.0  0.06274  0.69596  0.41705  1.0000
  H   H928      1.0  0.10302  0.92701  0.31431  1.0000
  Fe  Fe65      1.0  0.18392  0.99186  0.36813  1.0000
  N   N28       1.0  0.12997  0.93479  0.33366  1.0000
  H   H929      1.0  0.05043  0.51373  0.42582  1.0000
  H   H930      1.0  0.14167  0.90815  0.45078  1.0000
  C   C536      1.0  0.16616  0.66076  0.45592  1.0000
  H   H931      1.0  0.17064  0.51871  0.41663  1.0000
  C   C537      1.0  0.04697  0.74886  0.48316  1.0000
  C   C538      1.0  0.04087  0.76722  0.42497  1.0000
  H   H932      1.0  0.15497  0.95591  0.34504  1.0000
  C   C539      1.0  0.00665  0.82751  0.45539  1.0000
  H   H933      1.0  0.15085  0.92083  0.29363  1.0000
  C   C540      1.0  0.00878  0.60973  0.43750  1.0000
  H   H934      1.0  0.08020  0.70121  0.41292  1.0000
  H   H935      1.0  0.20831  0.67170  0.47837  1.0000
  C   C541      1.0  0.15992  0.52526  0.40446  1.0000
  H   H936      1.0  0.17094  0.87749  0.44514  1.0000
  H   H937      1.0  0.10968  0.94271  0.45105  1.0000
  H   H938      1.0  0.13634  0.89765  0.30718  1.0000
  H   H939      1.0  0.09607  0.94393  0.34581  1.0000
  H   H940      1.0  0.21018  0.93072  0.32277  1.0000
  C   C542      1.0  0.14609  0.52273  0.37025  1.0000
  H   H941      1.0  0.11025  0.91348  0.47309  1.0000
  H   H942      1.0  0.19490  0.65803  0.43341  1.0000
  H   H943      1.0  0.12875  0.50410  0.43189  1.0000
  C   C543      1.0  0.11338  0.95048  0.34500  1.0000
  H   H944      1.0  0.07498  0.77976  0.42720  1.0000
  H   H945      1.0  0.12088  0.94784  0.30314  1.0000
  C   C544      1.0  0.15264  0.94566  0.33142  1.0000
  H   H946      1.0  0.16872  0.66808  0.42256  1.0000
  H   H947      1.0  0.01748  0.90517  0.48617  1.0000
  C   C545      1.0  0.11115  0.97509  0.33561  1.0000
  H   H948      1.0  0.17292  0.63862  0.43020  1.0000
  H   H949      1.0  0.14215  0.88722  0.47190  1.0000
  H   H950      1.0  0.14759  0.66004  0.45536  1.0000
  H   H951      1.0  0.04259  0.54927  0.40509  1.0000
  H   H952      1.0  0.19333  0.95039  0.30710  1.0000
  H   H953      1.0  0.18337  0.90451  0.44571  1.0000
  H   H954      1.0  0.05320  0.55478  0.42980  1.0000
  C   C546      1.0  0.08644  0.51924  0.43017  1.0000
  H   H955      1.0  0.06879  0.91242  0.47989  1.0000
  S   S126      1.0  0.09207  0.81093  0.47800  1.0000
  C   C547      1.0  0.12001  0.97592  0.44140  1.0000
  C   C548      1.0  0.17636  0.65599  0.43423  1.0000
  H   H956      1.0  0.13929  0.94462  0.44298  1.0000
  H   H957      1.0  0.07769  0.98292  0.34990  1.0000
  H   H958      1.0  0.14692  0.96428  0.47352  1.0000
  H   H959      1.0  0.10448  0.97569  0.31988  1.0000
  H   H960      1.0  0.11507  0.97413  0.42526  1.0000
  C   C549      1.0  0.00806  0.59654  0.45620  1.0000
  S   S127      1.0  0.08869  0.61569  0.48010  1.0000
  H   H961      1.0  0.01457  0.73085  0.46068  1.0000
  H   H962      1.0  0.16846  0.62659  0.46958  1.0000
  H   H963      1.0  0.26506  0.99813  0.28814  1.0000
  H   H964      1.0  0.00823  0.73881  0.43478  1.0000
  H   H965      1.0  0.10588  0.50554  0.39371  1.0000
  H   H966      1.0  0.00577  0.77284  0.46928  1.0000
  H   H967      1.0  0.10592  0.98503  0.44989  1.0000
  H   H968      1.0  0.05617  0.73220  0.48317  1.0000
  H   H969      1.0  0.06773  0.54435  0.48329  1.0000
  H   H970      1.0  0.10091  0.98975  0.36514  1.0000
  H   H971      1.0  0.14622  0.51567  0.48422  1.0000
  H   H972      1.0  0.31096  0.99224  0.23779  1.0000
  Fe  Fe66      1.0  0.36229  0.59521  0.72537  1.0000
  S   S128      1.0  0.37104  0.58891  0.69170  1.0000
  H   H973      1.0  0.49072  0.87290  0.64754  1.0000
  Fe  Fe67      1.0  0.36058  0.64616  0.71719  1.0000
  S   S129      1.0  0.36839  0.64339  0.68303  1.0000
  H   H974      1.0  0.20479  0.70313  0.51471  1.0000
  Fe  Fe68      1.0  0.34370  0.61538  0.68487  1.0000
  S   S130      1.0  0.31361  0.61632  0.66383  1.0000
  Fe  Fe69      1.0  0.39508  0.61727  0.69304  1.0000
  S   S131      1.0  0.43056  0.61756  0.67668  1.0000
  S   S132      1.0  0.33412  0.62021  0.71850  1.0000
  S   S133      1.0  0.38825  0.62140  0.72729  1.0000
  Fe  Fe70      1.0  0.39738  0.85202  0.69697  1.0000
  H   H975      1.0  0.14246  0.97483  0.64870  1.0000
  S   S134      1.0  0.42893  0.87255  0.68888  1.0000
  Fe  Fe71      1.0  0.34687  0.84779  0.68700  1.0000
  S   S135      1.0  0.34330  0.81883  0.71100  1.0000
  S   S136      1.0  0.31447  0.85327  0.66885  1.0000
  H   H976      1.0  0.47476  0.70804  0.70662  1.0000
  H   H977      1.0  0.15161  0.92906  0.70572  1.0000
  Fe  Fe72      1.0  0.37715  0.80566  0.69877  1.0000
  S   S137      1.0  0.38788  0.77023  0.68945  1.0000
  S   S138      1.0  0.36433  0.86932  0.70844  1.0000
  S   S139      1.0  0.37999  0.83323  0.67343  1.0000
  Fe  Fe73      1.0  0.17611  0.55506  0.60165  1.0000
  S   S140      1.0  0.20563  0.53351  0.58974  1.0000
  S   S141      1.0  0.15811  0.58388  0.58391  1.0000
  Fe  Fe74      1.0  0.17301  0.52930  0.64334  1.0000
  H   H978      1.0  0.31685  0.87721  0.57558  1.0000
  S   S142      1.0  0.15673  0.52584  0.67596  1.0000
  Fe  Fe75      1.0  0.21930  0.53636  0.62153  1.0000
  S   S143      1.0  0.25639  0.53857  0.62972  1.0000
  H   H979      1.0  0.23089  0.59042  0.69816  1.0000
  S   S144      1.0  0.19122  0.56028  0.63222  1.0000
  S   S145      1.0  0.15540  0.52596  0.61378  1.0000
  Fe  Fe76      1.0  0.16513  0.93281  0.62330  1.0000
  S   S146      1.0  0.18801  0.96062  0.62893  1.0000
  S   S147      1.0  0.13598  0.92436  0.64609  1.0000
  Fe  Fe77      1.0  0.18864  0.92314  0.58170  1.0000
  S   S148      1.0  0.21316  0.95032  0.58455  1.0000
  S   S149      1.0  0.19493  0.90338  0.55257  1.0000
  Fe  Fe78      1.0  0.21604  0.93666  0.61768  1.0000
  S   S150      1.0  0.25004  0.93454  0.63323  1.0000
  Fe  Fe79      1.0  0.18301  0.97187  0.59544  1.0000
  C   C550      1.0  0.49271  0.89344  0.69163  1.0000
  S   S151      1.0  0.19329  0.90816  0.61418  1.0000
  S   S152      1.0  0.15831  0.94545  0.59049  1.0000
  H   H980      1.0  0.08945  0.55917  0.60489  1.0000
  H   H981      1.0  0.10247  0.63751  0.51782  1.0000
  H   H982      1.0  0.25220  0.90280  0.54127  1.0000
  H   H983      1.0  0.16336  0.90996  0.49264  1.0000
  C   C551      1.0  0.13747  0.86771  0.52487  1.0000
  C   C552      1.0  0.13373  0.87840  0.54370  1.0000
  C   C553      1.0  0.15116  0.88946  0.55227  1.0000
  C   C554      1.0  0.17262  0.88970  0.54219  1.0000
  C   C555      1.0  0.17645  0.87891  0.52340  1.0000
  C   C556      1.0  0.15890  0.86807  0.51467  1.0000
  H   H984      1.0  0.11724  0.87808  0.55175  1.0000
  H   H985      1.0  0.14801  0.89762  0.56678  1.0000
  H   H986      1.0  0.19304  0.87895  0.51554  1.0000
  H   H987      1.0  0.23587  0.50932  0.70819  1.0000
  C   C557      1.0  0.15255  0.57917  0.55806  1.0000
  C   C558      1.0  0.16491  0.56260  0.54724  1.0000
  C   C559      1.0  0.16088  0.55963  0.52638  1.0000
  C   C560      1.0  0.14411  0.57280  0.51636  1.0000
  C   C561      1.0  0.13129  0.58899  0.52729  1.0000
  C   C562      1.0  0.13568  0.59234  0.54806  1.0000
  H   H988      1.0  0.17794  0.55239  0.55479  1.0000
  C   C563      1.0  0.08809  0.53626  0.66683  1.0000
  H   H989      1.0  0.12595  0.60505  0.55647  1.0000
  C   C564      1.0  0.45833  0.87219  0.69391  1.0000
  C   C565      1.0  0.46950  0.89218  0.68901  1.0000
  C   C566      1.0  0.01893  0.88774  0.49328  1.0000
  C   C567      1.0  0.09168  0.93009  0.49788  1.0000
  C   C568      1.0  0.47094  0.85326  0.70187  1.0000
  C   C569      1.0  0.19976  0.58269  0.68619  1.0000
  H   H990      1.0  0.28645  0.93799  0.60028  1.0000
  H   H991      1.0  0.46263  0.83764  0.70571  1.0000
  C   C570      1.0  0.29667  0.87637  0.65971  1.0000
  C   C571      1.0  0.27526  0.87191  0.65290  1.0000
  C   C572      1.0  0.26070  0.88943  0.64500  1.0000
  C   C573      1.0  0.26753  0.91169  0.64335  1.0000
  C   C574      1.0  0.28893  0.91616  0.65016  1.0000
  C   C575      1.0  0.30337  0.89868  0.65837  1.0000
  H   H992      1.0  0.26981  0.85476  0.65395  1.0000
  H   H993      1.0  0.24409  0.88575  0.64047  1.0000
  H   H994      1.0  0.29439  0.93332  0.64909  1.0000
  H   H995      1.0  0.31978  0.90244  0.66342  1.0000
  C   C576      1.0  0.36314  0.70445  0.72171  1.0000
  C   C577      1.0  0.38119  0.70419  0.70682  1.0000
  C   C578      1.0  0.38916  0.72457  0.69772  1.0000
  C   C579      1.0  0.37903  0.74536  0.70325  1.0000
  C   C580      1.0  0.36138  0.74567  0.71856  1.0000
  C   C581      1.0  0.35348  0.72525  0.72777  1.0000
  H   H996      1.0  0.38888  0.68826  0.70224  1.0000
  H   H997      1.0  0.40295  0.72424  0.68603  1.0000
  H   H998      1.0  0.35353  0.76159  0.72299  1.0000
  H   H999      1.0  0.26471  0.55229  0.68387  1.0000
  C   C582      1.0  0.45730  0.61782  0.68791  1.0000
  C   C583      1.0  0.45921  0.61908  0.70930  1.0000
  H   H1000     1.0  0.16764  0.94683  0.67345  1.0000
  C   C584      1.0  0.47722  0.61653  0.67498  1.0000
  H   H1001     1.0  0.44410  0.62064  0.71940  1.0000
  H   H1002     1.0  0.47598  0.61565  0.65837  1.0000
  C   C585      1.0  0.29752  0.59420  0.65542  1.0000
  C   C586      1.0  0.30550  0.57166  0.65605  1.0000
  C   C587      1.0  0.29274  0.55498  0.64804  1.0000
  C   C588      1.0  0.27161  0.56042  0.63970  1.0000
  C   C589      1.0  0.26344  0.58290  0.63940  1.0000
  C   C590      1.0  0.27637  0.59965  0.64710  1.0000
  H   H1003     1.0  0.32179  0.56716  0.66218  1.0000
  H   H1004     1.0  0.29933  0.53770  0.64825  1.0000
  H   H1005     1.0  0.24736  0.58745  0.63287  1.0000
  H   H1006     1.0  0.27005  0.61701  0.64636  1.0000
  C   C591      1.0  0.15112  0.87987  0.70425  1.0000
  C   C592      1.0  0.12904  0.88799  0.70103  1.0000
  C   C593      1.0  0.12444  0.90131  0.68289  1.0000
  C   C594      1.0  0.14186  0.90645  0.66795  1.0000
  C   C595      1.0  0.16383  0.89796  0.67106  1.0000
  C   C596      1.0  0.16843  0.88471  0.68916  1.0000
  H   H1007     1.0  0.17830  0.60935  0.67229  1.0000
  H   H1008     1.0  0.10741  0.90784  0.68050  1.0000
  H   H1009     1.0  0.17735  0.90189  0.65966  1.0000
  H   H1010     1.0  0.18552  0.87837  0.69158  1.0000
  C   C597      1.0  0.12975  0.58998  0.70664  1.0000
  C   C598      1.0  0.13543  0.59056  0.68522  1.0000
  C   C599      1.0  0.14361  0.57096  0.67562  1.0000
  C   C600      1.0  0.14586  0.55057  0.68737  1.0000
  C   C601      1.0  0.13960  0.54985  0.70871  1.0000
  C   C602      1.0  0.13187  0.56956  0.71840  1.0000
  H   H1011     1.0  0.13367  0.60628  0.67600  1.0000
  H   H1012     1.0  0.14814  0.57164  0.65912  1.0000
  H   H1013     1.0  0.14111  0.53405  0.71782  1.0000
  H   H1014     1.0  0.31232  0.67285  0.70961  1.0000
  H   H1015     1.0  0.24572  0.50070  0.66172  1.0000
  H   H1016     1.0  0.31498  0.85705  0.62064  1.0000
  C   C603      1.0  0.32287  0.85944  0.60467  1.0000
  C   C604      1.0  0.44248  0.68341  0.69288  1.0000
  H   H1017     1.0  0.39971  0.54848  0.67292  1.0000
  H   H1018     1.0  0.12537  0.99632  0.66132  1.0000
  H   H1019     1.0  0.17368  0.91447  0.73426  1.0000
  H   H1020     1.0  0.21421  0.62891  0.49707  1.0000
  H   H1021     1.0  0.19181  0.56991  0.67758  1.0000
  H   H1022     1.0  0.44493  0.51566  0.71240  1.0000
  H   H1023     1.0  0.07295  0.56485  0.50170  1.0000
  C   C605      1.0  0.12407  0.50971  0.53131  1.0000
  H   H1024     1.0  0.16202  0.85967  0.50029  1.0000
  H   H1025     1.0  0.03934  0.62404  0.70964  1.0000
  H   H1026     1.0  0.20308  0.85262  0.61414  1.0000
  H   H1027     1.0  0.18007  0.63572  0.52536  1.0000
  H   H1028     1.0  0.23413  0.57879  0.67333  1.0000
  N   N29       1.0  0.26833  0.87907  0.57574  1.0000
  H   H1029     1.0  0.08339  0.51370  0.50568  1.0000
  H   H1030     1.0  0.11721  0.90299  0.49819  1.0000
  H   H1031     1.0  0.15538  0.99946  0.65722  1.0000
  C   C606      1.0  0.48071  0.61842  0.71767  1.0000
  C   C607      1.0  0.32515  0.78064  0.67195  1.0000
  C   C608      1.0  0.16957  0.74518  0.69334  1.0000
  H   H1032     1.0  0.14351  0.98741  0.69433  1.0000
  H   H1033     1.0  0.14050  0.63959  0.53173  1.0000
  H   H1034     1.0  0.08120  0.52040  0.67399  1.0000
  C   C609      1.0  0.46866  0.55362  0.71195  1.0000
  C   C610      1.0  0.43458  0.54950  0.68180  1.0000
  H   H1035     1.0  0.07525  0.89821  0.50461  1.0000
  N   N30       1.0  0.17640  0.95476  0.70423  1.0000
  N   N31       1.0  0.13452  0.93303  0.48765  1.0000
  H   H1036     1.0  0.23136  0.53984  0.66865  1.0000
  C   C611      1.0  0.11181  0.52796  0.56329  1.0000
  H   H1037     1.0  0.12865  0.79786  0.72303  1.0000
  N   N32       1.0  0.33287  0.71714  0.65846  1.0000
  C   C612      1.0  0.32900  0.69707  0.67354  1.0000
  C   C613      1.0  0.35767  0.71838  0.65154  1.0000
  C   C614      1.0  0.32607  0.73809  0.66990  1.0000
  C   C615      1.0  0.31859  0.71683  0.63989  1.0000
  C   C616      1.0  0.32128  0.69540  0.62729  1.0000
  C   C617      1.0  0.30426  0.69393  0.68200  1.0000
  C   C618      1.0  0.33112  0.76101  0.65807  1.0000
  C   C619      1.0  0.37184  0.69586  0.65032  1.0000
  C   C620      1.0  0.39534  0.69952  0.64008  1.0000
  C   C621      1.0  0.30407  0.69599  0.61050  1.0000
  C   C622      1.0  0.30224  0.67222  0.69572  1.0000
  C   C623      1.0  0.14209  0.98711  0.66106  1.0000
  H   H1038     1.0  0.33949  0.69810  0.68717  1.0000
  H   H1039     1.0  0.33477  0.68103  0.66661  1.0000
  H   H1040     1.0  0.35970  0.72790  0.63621  1.0000
  H   H1041     1.0  0.36667  0.72823  0.66241  1.0000
  H   H1042     1.0  0.33462  0.73760  0.68488  1.0000
  H   H1043     1.0  0.30765  0.73885  0.67411  1.0000
  H   H1044     1.0  0.30040  0.71965  0.64462  1.0000
  H   H1045     1.0  0.32251  0.73118  0.62864  1.0000
  H   H1046     1.0  0.31870  0.67981  0.63725  1.0000
  H   H1047     1.0  0.33830  0.69440  0.61928  1.0000
  H   H1048     1.0  0.29815  0.70800  0.69170  1.0000
  H   H1049     1.0  0.29283  0.69284  0.66913  1.0000
  H   H1050     1.0  0.32099  0.76363  0.64414  1.0000
  H   H1051     1.0  0.34924  0.76209  0.65305  1.0000
  H   H1052     1.0  0.37423  0.68855  0.66628  1.0000
  H   H1053     1.0  0.36368  0.68331  0.64159  1.0000
  H   H1054     1.0  0.40437  0.71172  0.64864  1.0000
  H   H1055     1.0  0.40536  0.68325  0.64035  1.0000
  H   H1056     1.0  0.39409  0.70592  0.62365  1.0000
  H   H1057     1.0  0.30612  0.71102  0.59962  1.0000
  H   H1058     1.0  0.30666  0.68063  0.60148  1.0000
  H   H1059     1.0  0.28659  0.69627  0.61767  1.0000
  H   H1060     1.0  0.28432  0.67004  0.70107  1.0000
  H   H1061     1.0  0.02207  0.59451  0.69524  1.0000
  H   H1062     1.0  0.26609  0.51168  0.67774  1.0000
  H   H1063     1.0  0.08503  0.64061  0.69125  1.0000
  C   C624      1.0  0.17330  0.80202  0.73386  1.0000
  H   H1064     1.0  0.47747  0.70986  0.67919  1.0000
  H   H1065     1.0  0.25790  0.57389  0.72637  1.0000
  C   C625      1.0  0.09367  0.54207  0.57600  1.0000
  H   H1066     1.0  0.28347  0.87644  0.51044  1.0000
  H   H1067     1.0  0.13318  0.52490  0.52536  1.0000
  H   H1068     1.0  0.33960  0.86675  0.60587  1.0000
  H   H1069     1.0  0.46014  0.90690  0.68287  1.0000
  H   H1070     1.0  0.29944  0.57807  0.72375  1.0000
  C   C626      1.0  0.16039  0.76900  0.68567  1.0000
  H   H1071     1.0  0.10228  0.65692  0.53819  1.0000
  C   C627      1.0  0.15749  0.94208  0.71561  1.0000
  C   C628      1.0  0.14550  0.97486  0.68222  1.0000
  H   H1072     1.0  0.22613  0.59309  0.51517  1.0000
  H   H1073     1.0  0.42821  0.57723  0.70188  1.0000
  H   H1074     1.0  0.17091  0.54713  0.51795  1.0000
  H   H1075     1.0  0.25201  0.93584  0.68080  1.0000
  H   H1076     1.0  0.19382  0.96889  0.72869  1.0000
  H   H1077     1.0  0.20948  0.99051  0.54101  1.0000
  H   H1078     1.0  0.02898  0.74619  0.48778  1.0000
  H   H1079     1.0  0.47227  0.66767  0.67909  1.0000
  H   H1080     1.0  0.09596  0.55114  0.53320  1.0000
  C   C629      1.0  0.44044  0.52595  0.72598  1.0000
  H   H1081     1.0  0.17891  0.81789  0.72568  1.0000
  H   H1082     1.0  0.14499  0.76714  0.67690  1.0000
  H   H1083     1.0  0.02503  0.58921  0.72227  1.0000
  H   H1084     1.0  0.13176  0.96279  0.68509  1.0000
  H   H1085     1.0  0.11952  0.51515  0.57438  1.0000
  H   H1086     1.0  0.17644  0.81295  0.68818  1.0000
  C   C630      1.0  0.21039  0.60230  0.52064  1.0000
  H   H1087     1.0  0.07598  0.50233  0.56362  1.0000
  C   C631      1.0  0.46780  0.67734  0.69303  1.0000
  H   H1088     1.0  0.15512  0.80442  0.65803  1.0000
  C   C632      1.0  0.49462  0.85444  0.70423  1.0000
  H   H1089     1.0  0.21215  0.83790  0.59123  1.0000
  C   C633      1.0  0.16841  0.72820  0.67658  1.0000
  H   H1090     1.0  0.20479  0.99151  0.69302  1.0000
  N   N33       1.0  0.05423  0.57816  0.70321  1.0000
  C   C634      1.0  0.05950  0.56045  0.68754  1.0000
  H   H1091     1.0  0.44299  0.58276  0.73419  1.0000
  H   H1092     1.0  0.28864  0.86201  0.72503  1.0000
  C   C635      1.0  0.08907  0.53403  0.53272  1.0000
  C   C636      1.0  0.26741  0.57064  0.71147  1.0000
  C   C637      1.0  0.08490  0.55519  0.68192  1.0000
  H   H1093     1.0  0.42206  0.52359  0.72939  1.0000
  H   H1094     1.0  0.08750  0.94637  0.48941  1.0000
  C   C638      1.0  0.02891  0.58184  0.70696  1.0000
  C   C639      1.0  0.27426  0.89194  0.51575  1.0000
  H   H1095     1.0  0.09300  0.93296  0.51461  1.0000
  H   H1096     1.0  0.04752  0.77908  0.50075  1.0000
  H   H1097     1.0  0.05123  0.56558  0.67280  1.0000
  H   H1098     1.0  0.05227  0.54414  0.69288  1.0000
  C   C640      1.0  0.10042  0.76409  0.73099  1.0000
  H   H1099     1.0  0.01312  0.55687  0.68944  1.0000
  H   H1100     1.0  0.48189  0.61909  0.73429  1.0000
  H   H1101     1.0  0.17545  0.67328  0.51712  1.0000
  H   H1102     1.0  0.17574  0.71157  0.68222  1.0000
  H   H1103     1.0  0.15058  0.72601  0.67299  1.0000
  H   H1104     1.0  0.26200  0.53557  0.70743  1.0000
  C   C641      1.0  0.06354  0.59999  0.69393  1.0000
  H   H1105     1.0  0.09304  0.57009  0.67420  1.0000
  H   H1106     1.0  0.09398  0.54968  0.69600  1.0000
  H   H1107     1.0  0.16624  0.98062  0.72581  1.0000
  H   H1108     1.0  0.47057  0.66627  0.70716  1.0000
  H   H1109     1.0  0.49927  0.73084  0.72124  1.0000
  H   H1110     1.0  0.26204  0.89780  0.50396  1.0000
  H   H1111     1.0  0.42052  0.54940  0.65147  1.0000
  H   H1112     1.0  0.32552  0.84277  0.59780  1.0000
  H   H1113     1.0  0.45030  0.55678  0.67471  1.0000
  C   C642      1.0  0.40459  0.90641  0.73324  1.0000
  H   H1114     1.0  0.11806  0.55750  0.59411  1.0000
  S   S153      1.0  0.11488  0.85379  0.51518  1.0000
  S   S154      1.0  0.15809  0.86415  0.72703  1.0000
  H   H1115     1.0  0.05795  0.64560  0.67979  1.0000
  S   S155      1.0  0.20172  0.50519  0.63427  1.0000
  H   H1116     1.0  0.43854  0.69411  0.67875  1.0000
  H   H1117     1.0  0.30211  0.56079  0.70169  1.0000
  H   H1118     1.0  0.10345  0.53513  0.50062  1.0000
  H   H1119     1.0  0.06059  0.58533  0.73486  1.0000
  H   H1120     1.0  0.02196  0.88831  0.51007  1.0000
  C   C643      1.0  0.13843  0.93904  0.50958  1.0000
  H   H1121     1.0  0.12553  0.53956  0.55828  1.0000
  C   C644      1.0  0.12440  0.76219  0.72102  1.0000
  C   C645      1.0  0.16081  0.95072  0.51269  1.0000
  H   H1122     1.0  0.16206  0.96670  0.50308  1.0000
  C   C646      1.0  0.48173  0.69879  0.69309  1.0000
  H   H1123     1.0  0.16528  0.84462  0.66188  1.0000
  C   C647      1.0  0.16222  0.95642  0.53534  1.0000
  C   C648      1.0  0.27777  0.87781  0.55358  1.0000
  N   N34       1.0  0.15566  0.78629  0.70186  1.0000
  H   H1124     1.0  0.13813  0.92356  0.52023  1.0000
  H   H1125     1.0  0.12459  0.95058  0.51556  1.0000
  C   C649      1.0  0.10228  0.54819  0.59671  1.0000
  H   H1126     1.0  0.30686  0.89184  0.59849  1.0000
  C   C650      1.0  0.06889  0.54700  0.50009  1.0000
  H   H1127     1.0  0.06268  0.53536  0.72433  1.0000
  H   H1128     1.0  0.02070  0.54606  0.71471  1.0000
  H   H1129     1.0  0.24868  0.85018  0.57064  1.0000
  H   H1130     1.0  0.19815  0.60608  0.48993  1.0000
  H   H1131     1.0  0.07472  0.76448  0.49686  1.0000
  H   H1132     1.0  0.29815  0.91461  0.57119  1.0000
  H   H1133     1.0  0.19799  0.58972  0.52648  1.0000
  H   H1134     1.0  0.39308  0.91578  0.69233  1.0000
  H   H1135     1.0  0.17069  0.50393  0.52243  1.0000
  H   H1136     1.0  0.17896  0.96312  0.53773  1.0000
  H   H1137     1.0  0.41333  0.57450  0.66508  1.0000
  C   C651      1.0  0.25094  0.50143  0.67793  1.0000
  H   H1138     1.0  0.43297  0.66775  0.69285  1.0000
  C   C652      1.0  0.38672  0.92874  0.70325  1.0000
  H   H1139     1.0  0.18551  0.54803  0.71146  1.0000
  H   H1140     1.0  0.11815  0.59898  0.51970  1.0000
  H   H1141     1.0  0.47444  0.53935  0.70221  1.0000
  H   H1142     1.0  0.20028  0.86641  0.58876  1.0000
  C   C653      1.0  0.06534  0.57240  0.72343  1.0000
  C   C654      1.0  0.28036  0.92095  0.57230  1.0000
  H   H1143     1.0  0.19195  0.92336  0.69430  1.0000
  C   C655      1.0  0.19663  0.93850  0.70217  1.0000
  C   C656      1.0  0.25657  0.55204  0.69986  1.0000
  H   H1144     1.0  0.11942  0.79002  0.69926  1.0000
  H   H1145     1.0  0.08231  0.59868  0.69225  1.0000
  H   H1146     1.0  0.08928  0.55815  0.56721  1.0000
  H   H1147     1.0  0.18147  0.97222  0.67387  1.0000
  H   H1148     1.0  0.27556  0.92619  0.55630  1.0000
  C   C657      1.0  0.14656  0.81436  0.67046  1.0000
  H   H1149     1.0  0.44823  0.90149  0.73222  1.0000
  H   H1150     1.0  0.10552  0.53275  0.60682  1.0000
  H   H1151     1.0  0.24668  0.90947  0.57834  1.0000
  H   H1152     1.0  0.18758  0.74595  0.69704  1.0000
  S   S156      1.0  0.35161  0.67915  0.73229  1.0000
  C   C658      1.0  0.22512  0.57681  0.68891  1.0000
  H   H1153     1.0  0.17364  0.77493  0.67392  1.0000
  H   H1154     1.0  0.12854  0.81015  0.67174  1.0000
  H   H1155     1.0  0.07170  0.53519  0.54022  1.0000
  H   H1156     1.0  0.17577  0.93958  0.50871  1.0000
  S   S157      1.0  0.39616  0.82368  0.72143  1.0000
  H   H1157     1.0  0.46938  0.56911  0.70132  1.0000
  C   C659      1.0  0.06647  0.64242  0.69463  1.0000
  C   C660      1.0  0.30807  0.87534  0.59116  1.0000
  C   C661      1.0  0.26155  0.88711  0.53669  1.0000
  N   N35       1.0  0.23114  0.55387  0.69889  1.0000
  H   H1158     1.0  0.22523  0.96065  0.69952  1.0000
  H   H1159     1.0  0.28241  0.85996  0.55018  1.0000
  H   H1160     1.0  0.19062  0.58423  0.70158  1.0000
  H   H1161     1.0  0.15143  0.82274  0.70205  1.0000
  H   H1162     1.0  0.05388  0.75300  0.51538  1.0000
  H   H1163     1.0  0.26776  0.58659  0.70159  1.0000
  H   H1164     1.0  0.20608  0.53648  0.68316  1.0000
  H   H1165     1.0  0.43665  0.69247  0.70694  1.0000
  H   H1166     1.0  0.48788  0.69150  0.73480  1.0000
  H   H1167     1.0  0.20489  0.60450  0.65808  1.0000
  C   C662      1.0  0.23475  0.86361  0.59925  1.0000
  H   H1168     1.0  0.26219  0.94929  0.58674  1.0000
  C   C663      1.0  0.40254  0.92964  0.72103  1.0000
  H   H1169     1.0  0.24059  0.92100  0.70386  1.0000
  H   H1170     1.0  0.30688  0.78122  0.67680  1.0000
  H   H1171     1.0  0.10176  0.66753  0.51143  1.0000
  C   C664      1.0  0.21114  0.85458  0.59821  1.0000
  H   H1172     1.0  0.24452  0.85104  0.60895  1.0000
  C   C665      1.0  0.42883  0.55849  0.70377  1.0000
  C   C666      1.0  0.19658  0.60530  0.67392  1.0000
  C   C667      1.0  0.27969  0.94206  0.58473  1.0000
  H   H1173     1.0  0.06301  0.65721  0.70425  1.0000
  H   H1174     1.0  0.06599  0.61961  0.72146  1.0000
  H   H1175     1.0  0.29030  0.95500  0.57646  1.0000
  C   C668      1.0  0.48691  0.55688  0.72773  1.0000
  H   H1176     1.0  0.30820  0.65737  0.68694  1.0000
  C   C669      1.0  0.08721  0.53103  0.50911  1.0000
  H   H1177     1.0  0.12415  0.74975  0.70888  1.0000
  H   H1178     1.0  0.23321  0.87973  0.60705  1.0000
  C   C670      1.0  0.05778  0.62125  0.70645  1.0000
  H   H1179     1.0  0.16022  0.94102  0.54571  1.0000
  C   C671      1.0  0.22457  0.53605  0.68487  1.0000
  C   C672      1.0  0.17270  0.78302  0.71843  1.0000
  C   C673      1.0  0.14756  0.83920  0.66312  1.0000
  H   H1180     1.0  0.23362  0.87665  0.56769  1.0000
  H   H1181     1.0  0.07794  0.53297  0.57947  1.0000
  H   H1182     1.0  0.33519  0.77894  0.68600  1.0000
  H   H1183     1.0  0.10642  0.53309  0.66295  1.0000
  S   S158      1.0  0.11950  0.61500  0.71793  1.0000
  H   H1184     1.0  0.24883  0.87447  0.53436  1.0000
  C   C674      1.0  0.11390  0.91894  0.48867  1.0000
  C   C675      1.0  0.19083  0.99568  0.70443  1.0000
  H   H1185     1.0  0.16036  0.73841  0.70755  1.0000
  C   C676      1.0  0.28419  0.86621  0.59014  1.0000
  C   C677      1.0  0.05636  0.76222  0.50001  1.0000
  H   H1186     1.0  0.32916  0.79685  0.66337  1.0000
  H   H1187     1.0  0.11559  0.88422  0.71258  1.0000
  H   H1188     1.0  0.14251  0.95364  0.71861  1.0000
  N   N36       1.0  0.10361  0.51683  0.54475  1.0000
  H   H1189     1.0  0.29384  0.88653  0.55100  1.0000
  C   C678      1.0  0.29187  0.56408  0.71625  1.0000
  H   H1190     1.0  0.27716  0.86618  0.60649  1.0000
  H   H1191     1.0  0.13742  0.84984  0.67410  1.0000
  H   H1192     1.0  0.43690  0.53090  0.68242  1.0000
  Fe  Fe80      1.0  0.36238  0.83960  0.73151  1.0000
  C   C679      1.0  0.23643  0.92877  0.68839  1.0000
  H   H1193     1.0  0.28604  0.84821  0.58612  1.0000
  H   H1194     1.0  0.26398  0.90350  0.59938  1.0000
  H   H1195     1.0  0.20372  0.61904  0.68209  1.0000
  C   C680      1.0  0.24629  0.86711  0.57723  1.0000
  H   H1196     1.0  0.05762  0.60361  0.67793  1.0000
  C   C681      1.0  0.26399  0.90304  0.58215  1.0000
  H   H1197     1.0  0.36942  0.92466  0.70938  1.0000
  H   H1198     1.0  0.13954  0.66961  0.52608  1.0000
  C   C682      1.0  0.15820  0.80958  0.69141  1.0000
  H   H1199     1.0  0.23080  0.91554  0.67860  1.0000
  C   C683      1.0  0.13177  0.78520  0.71116  1.0000
  H   H1200     1.0  0.28907  0.63528  0.73230  1.0000
  C   C684      1.0  0.01402  0.56118  0.70591  1.0000
  H   H1201     1.0  0.07968  0.54101  0.65217  1.0000
  H   H1202     1.0  0.39580  0.94311  0.73117  1.0000
  H   H1203     1.0  0.19005  0.78142  0.71092  1.0000
  H   H1204     1.0  0.17815  0.73388  0.66215  1.0000
  C   C685      1.0  0.21813  0.94758  0.69054  1.0000
  C   C686      1.0  0.16880  0.96188  0.68279  1.0000
  H   H1205     1.0  0.21476  0.95458  0.67465  1.0000
  H   H1206     1.0  0.41926  0.93446  0.71400  1.0000
  C   C687      1.0  0.22048  0.55130  0.72072  1.0000
  H   H1207     1.0  0.14040  0.84195  0.64759  1.0000
  H   H1208     1.0  0.08811  0.76949  0.71916  1.0000
  H   H1209     1.0  0.28643  0.90538  0.51696  1.0000
  C   C688      1.0  0.20891  0.69910  0.49828  1.0000
  H   H1210     1.0  0.08401  0.57310  0.72111  1.0000
  H   H1211     1.0  0.17018  0.76709  0.72794  1.0000
  N   N37       1.0  0.44466  0.55048  0.72054  1.0000
  H   H1212     1.0  0.20216  0.93228  0.71772  1.0000
  H   H1213     1.0  0.48441  0.57382  0.73411  1.0000
  H   H1214     1.0  0.19925  0.71105  0.48786  1.0000
  C   C689      1.0  0.18161  0.97446  0.71673  1.0000
  C   C690      1.0  0.17845  0.62960  0.50953  1.0000
  C   C691      1.0  0.13449  0.65330  0.52073  1.0000
  H   H1215     1.0  0.13673  0.66403  0.48845  1.0000
  H   H1216     1.0  0.41118  0.55389  0.70835  1.0000
  H   H1217     1.0  0.29271  0.54881  0.72700  1.0000
  C   C692      1.0  0.17809  0.67088  0.50017  1.0000
  S   S159      1.0  0.13967  0.56823  0.49026  1.0000
  H   H1218     1.0  0.41202  0.89459  0.72192  1.0000
  C   C693      1.0  0.14405  0.64977  0.49815  1.0000
  C   C694      1.0  0.10868  0.65384  0.52204  1.0000
  H   H1219     1.0  0.38580  0.94535  0.69447  1.0000
  H   H1220     1.0  0.05213  0.54385  0.50802  1.0000
  H   H1221     1.0  0.14889  0.96928  0.53976  1.0000
  H   H1222     1.0  0.30330  0.83712  0.73559  1.0000
  H   H1223     1.0  0.11923  0.50176  0.51721  1.0000
  Fe  Fe81      1.0  0.18547  0.50427  0.60346  1.0000
  C   C695      1.0  0.49876  0.61619  0.68332  1.0000
  H   H1224     1.0  0.02554  0.66100  0.72910  1.0000
  H   H1225     1.0  0.21434  0.61266  0.53364  1.0000
  H   H1226     1.0  0.16799  0.68501  0.49261  1.0000
  H   H1227     1.0  0.49084  0.74299  0.69661  1.0000
  C   C696      1.0  0.05963  0.54953  0.73468  1.0000
  C   C697      1.0  0.41583  0.55589  0.66700  1.0000
  H   H1228     1.0  0.05632  0.92282  0.50380  1.0000
  H   H1229     1.0  0.16616  0.61596  0.51175  1.0000
  H   H1230     1.0  0.19873  0.52231  0.72117  1.0000
  C   C698      1.0  0.19699  0.54073  0.72316  1.0000
  H   H1231     1.0  0.21895  0.56796  0.72784  1.0000
  C   C699      1.0  0.20104  0.61719  0.50273  1.0000
  H   H1232     1.0  0.21394  0.66375  0.50520  1.0000
  C   C700      1.0  0.23148  0.51125  0.69168  1.0000
  H   H1233     1.0  0.13574  0.75568  0.73324  1.0000
  H   H1234     1.0  0.41941  0.86105  0.73502  1.0000
  H   H1235     1.0  0.21675  0.50058  0.69038  1.0000
  H   H1236     1.0  0.02060  0.69000  0.73548  1.0000
  H   H1237     1.0  0.23156  0.54057  0.73102  1.0000
  H   H1238     1.0  0.12746  0.56891  0.73489  1.0000
  H   H1239     1.0  0.22722  0.70141  0.49473  1.0000
  H   H1240     1.0  0.13681  0.63421  0.49288  1.0000
  N   N38       1.0  0.16951  0.64848  0.49501  1.0000
  C   C701      1.0  0.07184  0.91490  0.49642  1.0000
  C   C702      1.0  0.20340  0.67478  0.49483  1.0000
  H   H1241     1.0  0.14790  0.49983  0.55572  1.0000
  C   C703      1.0  0.50064  0.61686  0.70480  1.0000
  Fe  Fe82      1.0  0.27622  0.53872  0.90022  1.0000
  H   H1242     1.0  0.21908  0.55737  0.90540  1.0000
  S   S160      1.0  0.26823  0.54960  0.93294  1.0000
  Fe  Fe83      1.0  0.30246  0.54773  0.85865  1.0000
  S   S161      1.0  0.29371  0.51481  0.84666  1.0000
  S   S162      1.0  0.32189  0.57530  0.84103  1.0000
  Fe  Fe84      1.0  0.25855  0.52402  0.85987  1.0000
  S   S163      1.0  0.22821  0.52178  0.83972  1.0000
  H   H1243     1.0  0.08067  0.94677  0.80308  1.0000
  S   S164      1.0  0.26727  0.55755  0.87046  1.0000
  S   S165      1.0  0.31218  0.53206  0.88948  1.0000
  Fe  Fe85      1.0  0.28738  0.91232  0.88179  1.0000
  S   S166      1.0  0.25868  0.93817  0.88473  1.0000
  S   S167      1.0  0.29099  0.88297  0.90548  1.0000
  Fe  Fe86      1.0  0.30527  0.93304  0.84051  1.0000
  S   S168      1.0  0.27853  0.96109  0.84101  1.0000
  S   S169      1.0  0.33052  0.93097  0.81279  1.0000
  Fe  Fe87      1.0  0.28540  0.96330  0.87495  1.0000
  C   C704      1.0  0.05696  0.87043  0.82736  1.0000
  Fe  Fe88      1.0  0.25436  0.93356  0.85066  1.0000
  S   S170      1.0  0.22355  0.93257  0.83062  1.0000
  S   S171      1.0  0.31405  0.93735  0.87353  1.0000
  S   S172      1.0  0.28117  0.90571  0.84866  1.0000
  Fe  Fe89      1.0  0.07544  0.60327  0.78620  1.0000
  S   S173      1.0  0.07704  0.63161  0.76206  1.0000
  S   S174      1.0  0.04172  0.58691  0.79440  1.0000
  Fe  Fe90      1.0  0.12559  0.60777  0.79667  1.0000
  S   S175      1.0  0.12980  0.63695  0.77294  1.0000
  S   S176      1.0  0.15485  0.60045  0.81837  1.0000
  Fe  Fe91      1.0  0.09557  0.64989  0.78481  1.0000
  S   S177      1.0  0.08108  0.68478  0.79216  1.0000
  C   C705      1.0  0.04880  0.93535  0.81880  1.0000
  H   H1244     1.0  0.09935  0.55177  0.93041  1.0000
  S   S178      1.0  0.09223  0.62224  0.80988  1.0000
  S   S179      1.0  0.10848  0.58591  0.77532  1.0000
  Fe  Fe92      1.0  0.12547  0.85460  0.79958  1.0000
  S   S180      1.0  0.14878  0.83489  0.77852  1.0000
  S   S181      1.0  0.13993  0.86855  0.82809  1.0000
  Fe  Fe93      1.0  0.08479  0.84799  0.77337  1.0000
  S   S182      1.0  0.10607  0.82828  0.75001  1.0000
  S   S183      1.0  0.04837  0.85660  0.76424  1.0000
  Fe  Fe94      1.0  0.12137  0.81032  0.77769  1.0000
  S   S184      1.0  0.13529  0.77428  0.77541  1.0000
  Fe  Fe95      1.0  0.13203  0.85399  0.75233  1.0000
  S   S185      1.0  0.37198  0.88135  0.96516  1.0000
  S   S186      1.0  0.09868  0.82830  0.80124  1.0000
  S   S187      1.0  0.11004  0.87553  0.77342  1.0000
  H   H1245     1.0  0.41026  0.54727  0.75362  1.0000
  H   H1246     1.0  0.03073  0.83502  0.80384  1.0000
  C   C706      1.0  0.09621  0.70956  0.78702  1.0000
  C   C707      1.0  0.08544  0.73056  0.79104  1.0000
  C   C708      1.0  0.09715  0.75061  0.78753  1.0000
  C   C709      1.0  0.11972  0.74973  0.78002  1.0000
  C   C710      1.0  0.13038  0.72877  0.77582  1.0000
  C   C711      1.0  0.11868  0.70875  0.77925  1.0000
  H   H1247     1.0  0.26717  0.51534  0.79531  1.0000
  H   H1248     1.0  0.08889  0.76668  0.79088  1.0000
  H   H1249     1.0  0.14785  0.72799  0.77002  1.0000
  H   H1250     1.0  0.12712  0.69268  0.77614  1.0000
  H   H1251     1.0  0.01558  0.89514  0.84278  1.0000
  H   H1252     1.0  0.03170  0.60981  0.75445  1.0000
  C   C712      1.0  0.20186  0.91288  0.82972  1.0000
  C   C713      1.0  0.19586  0.89809  0.84661  1.0000
  C   C714      1.0  0.17722  0.88427  0.84572  1.0000
  C   C715      1.0  0.16475  0.88449  0.82776  1.0000
  C   C716      1.0  0.17136  0.89861  0.81058  1.0000
  C   C717      1.0  0.18955  0.91291  0.81168  1.0000
  H   H1253     1.0  0.20501  0.89793  0.86064  1.0000
  H   H1254     1.0  0.17222  0.87355  0.85917  1.0000
  H   H1255     1.0  0.16188  0.89913  0.79674  1.0000
  H   H1256     1.0  0.19388  0.92436  0.79857  1.0000
  H   H1257     1.0  0.41397  0.93952  0.76308  1.0000
  C   C718      1.0  0.31397  0.88204  0.92162  1.0000
  C   C719      1.0  0.31681  0.86397  0.93635  1.0000
  C   C720      1.0  0.33476  0.86331  0.94975  1.0000
  C   C721      1.0  0.34983  0.88077  0.94840  1.0000
  C   C722      1.0  0.34734  0.89844  0.93328  1.0000
  C   C723      1.0  0.32959  0.89897  0.91985  1.0000
  H   H1258     1.0  0.30503  0.85055  0.93751  1.0000
  H   H1259     1.0  0.33693  0.84935  0.96110  1.0000
  H   H1260     1.0  0.35911  0.91188  0.93207  1.0000
  H   H1261     1.0  0.32780  0.91276  0.90844  1.0000
  C   C724      1.0  0.33378  0.90609  0.79908  1.0000
  C   C725      1.0  0.32811  0.88520  0.80850  1.0000
  C   C726      1.0  0.33306  0.86537  0.79794  1.0000
  C   C727      1.0  0.34318  0.86633  0.77772  1.0000
  C   C728      1.0  0.34759  0.88732  0.76786  1.0000
  C   C729      1.0  0.34323  0.90711  0.77862  1.0000
  H   H1262     1.0  0.32060  0.88426  0.82416  1.0000
  H   H1263     1.0  0.35450  0.88820  0.75203  1.0000
  H   H1264     1.0  0.34711  0.92329  0.77107  1.0000
  C   C730      1.0  0.20959  0.54467  0.83194  1.0000
  C   C731      1.0  0.19298  0.54120  0.81784  1.0000
  C   C732      1.0  0.17675  0.55843  0.81258  1.0000
  C   C733      1.0  0.17676  0.57926  0.82162  1.0000
  C   C734      1.0  0.19381  0.58293  0.83519  1.0000
  C   C735      1.0  0.21016  0.56583  0.84025  1.0000
  H   H1265     1.0  0.19237  0.52491  0.81130  1.0000
  H   H1266     1.0  0.16375  0.55531  0.80214  1.0000
  H   H1267     1.0  0.19403  0.59897  0.84227  1.0000
  H   H1268     1.0  0.22270  0.56879  0.85116  1.0000
  C   C736      1.0  0.33019  0.57227  0.81459  1.0000
  C   C737      1.0  0.33118  0.55117  0.80601  1.0000
  C   C738      1.0  0.33873  0.54909  0.78513  1.0000
  C   C739      1.0  0.34504  0.56808  0.77260  1.0000
  C   C740      1.0  0.34347  0.58930  0.78099  1.0000
  C   C741      1.0  0.33622  0.59134  0.80199  1.0000
  H   H1269     1.0  0.32670  0.53637  0.81559  1.0000
  H   H1270     1.0  0.34834  0.60404  0.77145  1.0000
  H   H1271     1.0  0.33552  0.60771  0.80853  1.0000
  C   C742      1.0  0.28625  0.56947  0.94146  1.0000
  C   C743      1.0  0.29635  0.58516  0.92734  1.0000
  C   C744      1.0  0.31131  0.60036  0.93423  1.0000
  C   C745      1.0  0.31716  0.59922  0.95503  1.0000
  C   C746      1.0  0.30667  0.58393  0.96931  1.0000
  C   C747      1.0  0.29088  0.56937  0.96258  1.0000
  H   H1272     1.0  0.29257  0.58559  0.91110  1.0000
  H   H1273     1.0  0.31904  0.61248  0.92321  1.0000
  H   H1274     1.0  0.28284  0.55744  0.97361  1.0000
  H   H1275     1.0  0.28436  0.95679  0.93415  1.0000
  H   H1276     1.0  0.32815  0.68761  0.98642  1.0000
  H   H1277     1.0  0.43489  0.66969  0.95825  1.0000
  C   C748      1.0  0.42826  0.86274  0.74943  1.0000
  C   C749      1.0  0.28529  0.63675  0.74923  1.0000
  H   H1278     1.0  0.33958  0.72556  0.73936  1.0000
  H   H1279     1.0  0.13180  0.52532  0.89834  1.0000
  C   C750      1.0  0.03743  0.78538  0.76770  1.0000
  H   H1280     1.0  0.24744  0.72222  0.96384  1.0000
  H   H1281     1.0  0.25392  0.93234  0.76487  1.0000
  H   H1282     1.0  0.06366  0.86152  0.85982  1.0000
  H   H1283     1.0  0.11240  0.54811  0.89352  1.0000
  H   H1284     1.0  0.13213  0.50831  0.86907  1.0000
  H   H1285     1.0  0.06979  0.52788  0.76107  1.0000
  H   H1286     1.0  0.33638  0.95633  0.95022  1.0000
  C   C751      1.0  0.01982  0.68232  0.77856  1.0000
  H   H1287     1.0  0.03801  0.68612  0.77809  1.0000
  H   H1288     1.0  0.03757  0.69283  0.81507  1.0000
  H   H1289     1.0  0.32050  0.97878  0.98142  1.0000
  C   C752      1.0  0.01879  0.69334  0.81439  1.0000
  C   C753      1.0  0.28701  0.93697  0.96339  1.0000
  C   C754      1.0  0.26538  0.59538  0.81677  1.0000
  H   H1290     1.0  0.14648  0.55269  0.84550  1.0000
  H   H1291     1.0  0.29622  0.60266  0.75798  1.0000
  H   H1292     1.0  0.26937  0.53068  0.77036  1.0000
  H   H1293     1.0  0.29035  0.57313  0.78728  1.0000
  C   C755      1.0  0.43953  0.56491  0.73887  1.0000
  H   H1294     1.0  0.11588  0.58486  0.85651  1.0000
  C   C756      1.0  0.48342  0.91134  0.75295  1.0000
  H   H1295     1.0  0.11549  0.52560  0.93553  1.0000
  H   H1296     1.0  0.00573  0.72906  0.83979  1.0000
  H   H1297     1.0  0.33083  0.58146  0.89006  1.0000
  H   H1298     1.0  0.29228  0.53034  0.78780  1.0000
  H   H1299     1.0  0.28066  0.60814  0.85394  1.0000
  H   H1300     1.0  0.05312  0.90058  0.84478  1.0000
  H   H1301     1.0  0.31961  0.69316  0.94774  1.0000
  C   C757      1.0  0.01663  0.84100  0.79481  1.0000
  H   H1302     1.0  0.02419  0.88852  0.80320  1.0000
  C   C758      1.0  0.02655  0.62189  0.83583  1.0000
  C   C759      1.0  0.27168  0.57359  0.78590  1.0000
  H   H1303     1.0  0.26776  0.60606  0.75054  1.0000
  N   N39       1.0  0.36752  0.54307  0.93555  1.0000
  C   C760      1.0  0.35618  0.53996  0.95706  1.0000
  C   C761      1.0  0.39079  0.55162  0.93762  1.0000
  C   C762      1.0  0.35326  0.55974  0.92290  1.0000
  C   C763      1.0  0.36978  0.52123  0.92473  1.0000
  H   H1304     1.0  0.01480  0.61124  0.82839  1.0000
  C   C764      1.0  0.33453  0.52611  0.95884  1.0000
  C   C765      1.0  0.36246  0.56548  0.90027  1.0000
  C   C766      1.0  0.39151  0.57620  0.94439  1.0000
  C   C767      1.0  0.41532  0.58182  0.94961  1.0000
  C   C768      1.0  0.33231  0.99292  0.95192  1.0000
  N   N40       1.0  0.01176  0.67548  0.80058  1.0000
  H   H1305     1.0  0.11973  0.54982  0.95016  1.0000
  H   H1306     1.0  0.35125  0.55664  0.96336  1.0000
  H   H1307     1.0  0.36815  0.53197  0.96826  1.0000
  H   H1308     1.0  0.40005  0.54061  0.94916  1.0000
  H   H1309     1.0  0.40125  0.55040  0.92281  1.0000
  H   H1310     1.0  0.35051  0.57571  0.93094  1.0000
  H   H1311     1.0  0.33605  0.55349  0.92177  1.0000
  H   H1312     1.0  0.35285  0.51568  0.92099  1.0000
  H   H1313     1.0  0.37903  0.52366  0.90933  1.0000
  H   H1314     1.0  0.13075  0.93776  0.75339  1.0000
  H   H1315     1.0  0.46500  0.97421  0.93563  1.0000
  H   H1316     1.0  0.32119  0.53443  0.94938  1.0000
  H   H1317     1.0  0.04224  0.65432  0.80368  1.0000
  H   H1318     1.0  0.36110  0.55085  0.89054  1.0000
  H   H1319     1.0  0.38036  0.57008  0.89966  1.0000
  H   H1320     1.0  0.38621  0.58840  0.93171  1.0000
  H   H1321     1.0  0.38014  0.57902  0.95829  1.0000
  H   H1322     1.0  0.41531  0.59961  0.95402  1.0000
  H   H1323     1.0  0.42106  0.57084  0.96300  1.0000
  H   H1324     1.0  0.42739  0.57972  0.93599  1.0000
  C   C769      1.0  0.02370  0.65354  0.80747  1.0000
  H   H1325     1.0  0.10820  0.58452  0.88405  1.0000
  C   C770      1.0  0.02814  0.67339  0.74088  1.0000
  H   H1326     1.0  0.23797  0.90128  0.75952  1.0000
  H   H1327     1.0  0.13466  0.57066  0.91868  1.0000
  C   C771      1.0  0.20780  0.54612  0.89806  1.0000
  C   C772      1.0  0.45951  0.90844  0.76260  1.0000
  H   H1328     1.0  0.17209  0.94110  0.74649  1.0000
  C   C773      1.0  0.02469  0.90535  0.80985  1.0000
  C   C774      1.0  0.41690  0.88184  0.76230  1.0000
  C   C775      1.0  0.26184  0.65078  0.97276  1.0000
  H   H1329     1.0  0.49576  0.90970  0.76533  1.0000
  H   H1330     1.0  0.02512  0.61800  0.85288  1.0000
  H   H1331     1.0  0.43525  0.82659  0.75202  1.0000
  H   H1332     1.0  0.33498  0.99446  0.88192  1.0000
  H   H1333     1.0  0.13473  0.62101  0.85866  1.0000
  C   C776      1.0  0.40861  0.91729  0.79067  1.0000
  C   C777      1.0  0.39925  0.93718  0.80298  1.0000
  H   H1334     1.0  0.00294  0.65034  0.83704  1.0000
  C   C778      1.0  0.42762  0.84004  0.76180  1.0000
  H   H1335     1.0  0.39890  0.87767  0.76589  1.0000
  H   H1336     1.0  0.42488  0.88038  0.77745  1.0000
  H   H1337     1.0  0.35794  0.69803  0.96074  1.0000
  H   H1338     1.0  0.23765  0.86310  0.75001  1.0000
  C   C779      1.0  0.16997  0.54407  0.88173  1.0000
  H   H1339     1.0  0.17756  0.56445  0.90819  1.0000
  C   C780      1.0  0.13038  0.54404  0.89680  1.0000
  H   H1340     1.0  0.28737  0.86715  0.97199  1.0000
  H   H1341     1.0  0.01667  0.91728  0.79826  1.0000
  C   C781      1.0  0.13797  0.54390  0.85926  1.0000
  H   H1342     1.0  0.19662  0.58080  0.77657  1.0000
  H   H1343     1.0  0.09939  0.77641  0.74335  1.0000
  H   H1344     1.0  0.15034  0.58589  0.89044  1.0000
  C   C782      1.0  0.32523  0.52351  0.98142  1.0000
  H   H1345     1.0  0.39823  0.90266  0.79572  1.0000
  H   H1346     1.0  0.42620  0.91333  0.79496  1.0000
  H   H1347     1.0  0.38121  0.94105  0.79987  1.0000
  H   H1348     1.0  0.40037  0.93289  0.81988  1.0000
  H   H1349     1.0  0.40910  0.95239  0.79886  1.0000
  H   H1350     1.0  0.03802  0.94665  0.80873  1.0000
  H   H1351     1.0  0.43601  0.98202  0.94347  1.0000
  C   C783      1.0  0.29036  0.91204  0.97177  1.0000
  C   C784      1.0  0.02066  0.85162  0.77510  1.0000
  H   H1352     1.0  0.43746  0.84032  0.77590  1.0000
  H   H1353     1.0  0.40108  0.50497  0.93599  1.0000
  H   H1354     1.0  0.45169  0.52425  0.75823  1.0000
  N   N41       1.0  0.36262  0.85785  0.86698  1.0000
  C   C785      1.0  0.37478  0.84148  0.88175  1.0000
  C   C786      1.0  0.36867  0.85151  0.84502  1.0000
  C   C787      1.0  0.36960  0.88136  0.87053  1.0000
  C   C788      1.0  0.33735  0.85712  0.87081  1.0000
  C   C789      1.0  0.32708  0.83390  0.86866  1.0000
  C   C790      1.0  0.36734  0.84286  0.90514  1.0000
  C   C791      1.0  0.36226  0.90019  0.85429  1.0000
  C   C792      1.0  0.39377  0.85368  0.83743  1.0000
  C   C793      1.0  0.39716  0.84908  0.81436  1.0000
  C   C794      1.0  0.30225  0.83420  0.87638  1.0000
  C   C795      1.0  0.38203  0.82711  0.91884  1.0000
  C   C796      1.0  0.37091  0.92291  0.85945  1.0000
  H   H1355     1.0  0.39326  0.84411  0.88034  1.0000
  H   H1356     1.0  0.37316  0.82378  0.87750  1.0000
  H   H1357     1.0  0.36472  0.83366  0.84308  1.0000
  H   H1358     1.0  0.35798  0.86155  0.83398  1.0000
  H   H1359     1.0  0.38824  0.88173  0.87155  1.0000
  H   H1360     1.0  0.36247  0.88674  0.88589  1.0000
  H   H1361     1.0  0.33213  0.86319  0.88637  1.0000
  H   H1362     1.0  0.32856  0.86910  0.85978  1.0000
  H   H1363     1.0  0.33601  0.82020  0.87774  1.0000
  H   H1364     1.0  0.32792  0.82971  0.85208  1.0000
  H   H1365     1.0  0.36875  0.86016  0.91029  1.0000
  H   H1366     1.0  0.34962  0.83789  0.90818  1.0000
  H   H1367     1.0  0.34361  0.90196  0.85410  1.0000
  H   H1368     1.0  0.36896  0.89677  0.83834  1.0000
  H   H1369     1.0  0.39973  0.87078  0.83937  1.0000
  H   H1370     1.0  0.40467  0.84129  0.84624  1.0000
  H   H1371     1.0  0.41522  0.85060  0.80926  1.0000
  H   H1372     1.0  0.39216  0.83178  0.81155  1.0000
  H   H1373     1.0  0.38690  0.86141  0.80482  1.0000
  H   H1374     1.0  0.29259  0.84846  0.86867  1.0000
  H   H1375     1.0  0.29469  0.81819  0.87293  1.0000
  H   H1376     1.0  0.30072  0.83587  0.89348  1.0000
  H   H1377     1.0  0.39996  0.83182  0.91708  1.0000
  H   H1378     1.0  0.37621  0.82855  0.93543  1.0000
  H   H1379     1.0  0.38076  0.80933  0.91483  1.0000
  H   H1380     1.0  0.36462  0.92740  0.87530  1.0000
  H   H1381     1.0  0.38966  0.92239  0.85859  1.0000
  H   H1382     1.0  0.36478  0.93627  0.84810  1.0000
  H   H1383     1.0  0.01079  0.69812  0.77298  1.0000
  N   N42       1.0  0.41807  0.90549  0.75245  1.0000
  H   H1384     1.0  0.10532  0.62284  0.86709  1.0000
  H   H1385     1.0  0.48340  0.60180  0.98404  1.0000
  H   H1386     1.0  0.25895  0.95468  0.79554  1.0000
  H   H1387     1.0  0.45935  0.89152  0.77072  1.0000
  H   H1388     1.0  0.45089  0.56032  0.75163  1.0000
  H   H1389     1.0  0.08798  0.92491  0.75729  1.0000
  C   C797      1.0  0.06214  0.90852  0.79209  1.0000
  C   C798      1.0  0.05459  0.92399  0.77331  1.0000
  H   H1390     1.0  0.32646  0.66346  0.94580  1.0000
  H   H1391     1.0  0.08360  0.93528  0.82927  1.0000
  C   C799      1.0  0.23620  0.59750  0.79153  1.0000
  H   H1392     1.0  0.19403  0.61102  0.77849  1.0000
  C   C800      1.0  0.07052  0.92066  0.75416  1.0000
  H   H1393     1.0  0.35065  0.60078  0.89869  1.0000
  H   H1394     1.0  0.06352  0.86478  0.81202  1.0000
  H   H1395     1.0  0.30566  0.90450  0.96355  1.0000
  C   C801      1.0  0.33193  0.99253  0.97606  1.0000
  H   H1396     1.0  0.45490  0.96980  0.96235  1.0000
  H   H1397     1.0  0.08831  0.85983  0.84196  1.0000
  C   C802      1.0  0.01589  0.60547  0.76249  1.0000
  H   H1398     1.0  0.04176  0.55014  0.74076  1.0000
  H   H1399     1.0  0.04662  0.67480  0.74219  1.0000
  H   H1400     1.0  0.08043  0.91067  0.79395  1.0000
  H   H1401     1.0  0.29619  0.88850  0.76723  1.0000
  H   H1402     1.0  0.03747  0.91989  0.76903  1.0000
  H   H1403     1.0  0.07811  0.89865  0.82863  1.0000
  C   C803      1.0  0.11610  0.54429  0.93458  1.0000
  H   H1404     1.0  0.03388  0.73319  0.82822  1.0000
  H   H1405     1.0  0.07063  0.55752  0.76492  1.0000
  C   C804      1.0  0.07237  0.94560  0.81894  1.0000
  H   H1406     1.0  0.32997  0.65799  0.98383  1.0000
  H   H1407     1.0  0.44624  0.86587  0.74509  1.0000
  C   C805      1.0  0.13455  0.55204  0.91859  1.0000
  C   C806      1.0  0.41239  0.57883  0.76766  1.0000
  H   H1408     1.0  0.14318  0.52059  0.82272  1.0000
  H   H1409     1.0  0.27856  0.92747  0.93257  1.0000
  C   C807      1.0  0.28531  0.85690  0.75888  1.0000
  H   H1410     1.0  0.03901  0.86602  0.82960  1.0000
  H   H1411     1.0  0.28174  0.69711  0.96024  1.0000
  Fe  Fe96      1.0  0.11090  0.61586  0.75248  1.0000
  H   H1412     1.0  0.40990  0.83585  0.76641  1.0000
  C   C808      1.0  0.45375  0.98131  0.94821  1.0000
  H   H1413     1.0  0.15083  0.54454  0.92393  1.0000
  H   H1414     1.0  0.27484  0.89121  0.74895  1.0000
  H   H1415     1.0  0.34334  0.97224  0.92633  1.0000
  N   N43       1.0  0.26204  0.88650  0.78098  1.0000
  C   C809      1.0  0.26378  0.86867  0.79856  1.0000
  C   C810      1.0  0.01120  0.71799  0.80813  1.0000
  C   C811      1.0  0.26704  0.90875  0.78959  1.0000
  C   C812      1.0  0.23861  0.88870  0.77290  1.0000
  C   C813      1.0  0.22911  0.86706  0.76520  1.0000
  C   C814      1.0  0.24582  0.87076  0.81692  1.0000
  H   H1416     1.0  0.31082  0.58320  0.98546  1.0000
  H   H1417     1.0  0.07061  0.90291  0.74959  1.0000
  H   H1418     1.0  0.28912  0.94875  0.79295  1.0000
  C   C815      1.0  0.28943  0.93933  0.93966  1.0000
  C   C816      1.0  0.24949  0.85210  0.83382  1.0000
  H   H1419     1.0  0.29924  0.94799  0.96953  1.0000
  H   H1420     1.0  0.28085  0.86859  0.80494  1.0000
  H   H1421     1.0  0.26242  0.85150  0.79309  1.0000
  C   C817      1.0  0.40715  0.92256  0.76692  1.0000
  H   H1422     1.0  0.35941  0.68569  0.93580  1.0000
  H   H1423     1.0  0.28292  0.90708  0.79811  1.0000
  H   H1424     1.0  0.25357  0.91386  0.80118  1.0000
  H   H1425     1.0  0.22639  0.89561  0.78492  1.0000
  C   C818      1.0  0.27315  0.61522  0.78295  1.0000
  H   H1426     1.0  0.23122  0.85240  0.77642  1.0000
  C   C819      1.0  0.34896  0.58528  0.89021  1.0000
  H   H1427     1.0  0.24659  0.88699  0.82431  1.0000
  H   H1428     1.0  0.22849  0.86940  0.81161  1.0000
  H   H1429     1.0  0.35543  0.58850  0.87386  1.0000
  C   C820      1.0  0.00876  0.90586  0.82977  1.0000
  H   H1430     1.0  0.36247  0.97099  0.94712  1.0000
  C   C821      1.0  0.32119  0.67392  0.97805  1.0000
  C   C822      1.0  0.20225  0.59719  0.76949  1.0000
  H   H1431     1.0  0.09231  0.54382  0.74846  1.0000
  H   H1432     1.0  0.22762  0.58386  0.80096  1.0000
  H   H1433     1.0  0.27582  0.90351  0.96594  1.0000
  H   H1434     1.0  0.41654  0.59659  0.76339  1.0000
  C   C823      1.0  0.05961  0.89612  0.82895  1.0000
  H   H1435     1.0  0.26648  0.85297  0.84001  1.0000
  H   H1436     1.0  0.23660  0.85426  0.84683  1.0000
  H   H1437     1.0  0.24778  0.83527  0.82761  1.0000
  C   C824      1.0  0.01698  0.66534  0.76177  1.0000
  H   H1438     1.0  0.19064  0.80978  0.76113  1.0000
  H   H1439     1.0  0.01209  0.68992  0.83068  1.0000
  H   H1440     1.0  0.33992  0.53263  0.77872  1.0000
  H   H1441     1.0  0.32930  0.84917  0.80556  1.0000
  H   H1442     1.0  0.25213  0.66531  0.96555  1.0000
  C   C825      1.0  0.27338  0.95067  0.78440  1.0000
  H   H1443     1.0  0.30006  0.64383  0.75601  1.0000
  H   H1444     1.0  0.25476  0.58289  0.82577  1.0000
  H   H1445     1.0  0.04078  0.78024  0.75150  1.0000
  H   H1446     1.0  0.19658  0.59919  0.75335  1.0000
  C   C826      1.0  0.14465  0.57816  0.87653  1.0000
  C   C827      1.0  0.01602  0.59442  0.78221  1.0000
  H   H1447     1.0  0.03866  0.80394  0.76798  1.0000
  H   H1448     1.0  0.48486  0.92822  0.74476  1.0000
  H   H1449     1.0  0.25054  0.60447  0.85815  1.0000
  H   H1450     1.0  0.03190  0.65668  0.83987  1.0000
  H   H1451     1.0  0.15667  0.58379  0.86361  1.0000
  C   C828      1.0  0.07039  0.96942  0.82675  1.0000
  C   C829      1.0  0.14169  0.51813  0.85666  1.0000
  S   S188      1.0  0.35555  0.56450  0.74681  1.0000
  C   C830      1.0  0.18557  0.54416  0.74466  1.0000
  S   S189      1.0  0.33815  0.61677  0.96222  1.0000
  C   C831      1.0  0.38280  0.50159  0.93639  1.0000
  H   H1452     1.0  0.15980  0.51266  0.85703  1.0000
  S   S190      1.0  0.26466  0.50540  0.89096  1.0000
  H   H1453     1.0  0.06295  0.96921  0.84296  1.0000
  H   H1454     1.0  0.06125  0.89104  0.78728  1.0000
  H   H1455     1.0  0.05440  0.94205  0.77670  1.0000
  H   H1456     1.0  0.27293  0.63088  0.82082  1.0000
  N   N44       1.0  0.14582  0.55272  0.87904  1.0000
  N   N45       1.0  0.26141  0.59541  0.79381  1.0000
  H   H1457     1.0  0.26969  0.94346  0.96801  1.0000
  H   H1458     1.0  0.29580  0.84875  0.77120  1.0000
  C   C832      1.0  0.01415  0.77820  0.77630  1.0000
  H   H1459     1.0  0.17897  0.54215  0.86629  1.0000
  H   H1460     1.0  0.36427  0.66807  0.95890  1.0000
  H   H1461     1.0  0.09570  0.74744  0.73824  1.0000
  C   C833      1.0  0.26942  0.92915  0.77355  1.0000
  H   H1462     1.0  0.27508  0.96503  0.77271  1.0000
  H   H1463     1.0  0.11957  0.54774  0.85782  1.0000
  C   C834      1.0  0.34437  0.97178  0.94351  1.0000
  H   H1464     1.0  0.26247  0.63096  0.78486  1.0000
  C   C835      1.0  0.07406  0.54446  0.75339  1.0000
  H   H1465     1.0  0.19692  0.53818  0.75714  1.0000
  H   H1466     1.0  0.01048  0.75140  0.82021  1.0000
  H   H1467     1.0  0.17031  0.52681  0.88946  1.0000
  H   H1468     1.0  0.26934  0.57242  0.76910  1.0000
  H   H1469     1.0  0.20476  0.53128  0.90896  1.0000
  H   H1470     1.0  0.26479  0.61452  0.96884  1.0000
  H   H1471     1.0  0.33786  0.50885  0.95346  1.0000
  H   H1472     1.0  0.04093  0.93662  0.83480  1.0000
  H   H1473     1.0  0.29081  0.65879  0.95338  1.0000
  C   C836      1.0  0.25636  0.62986  0.96160  1.0000
  C   C837      1.0  0.02058  0.64682  0.83107  1.0000
  C   C838      1.0  0.14158  0.92281  0.74917  1.0000
  N   N46       1.0  0.29599  0.67307  0.98289  1.0000
  H   H1474     1.0  0.28319  0.58992  0.81955  1.0000
  C   C839      1.0  0.35421  0.68284  0.95252  1.0000
  H   H1475     1.0  0.15650  0.80533  0.74171  1.0000
  N   N47       1.0  0.04875  0.91135  0.81242  1.0000
  C   C840      1.0  0.13357  0.51173  0.83580  1.0000
  H   H1476     1.0  0.26200  0.63149  0.94487  1.0000
  H   H1477     1.0  0.30723  0.93604  0.93423  1.0000
  H   H1478     1.0  0.24347  0.62525  0.82491  1.0000
  H   H1479     1.0  0.38868  0.92475  0.76463  1.0000
  H   H1480     1.0  0.27036  0.64856  0.75115  1.0000
  H   H1481     1.0  0.23258  0.61392  0.76064  1.0000
  H   H1482     1.0  0.49951  0.65325  0.74751  1.0000
  C   C841      1.0  0.27363  0.53077  0.78690  1.0000
  C   C842      1.0  0.25225  0.72472  0.97991  1.0000
  H   H1483     1.0  0.28923  0.61795  0.79045  1.0000
  C   C843      1.0  0.20387  0.87028  0.76176  1.0000
  H   H1484     1.0  0.26707  0.55022  0.81356  1.0000
  S   S191      1.0  0.35089  0.84095  0.76573  1.0000
  H   H1485     1.0  0.24432  0.55081  0.79610  1.0000
  C   C844      1.0  0.26286  0.55158  0.79697  1.0000
  C   C845      1.0  0.06993  0.85685  0.84403  1.0000
  C   C846      1.0  0.26359  0.61549  0.85063  1.0000
  C   C847      1.0  0.26082  0.61824  0.82720  1.0000
  H   H1486     1.0  0.45618  0.92148  0.77414  1.0000
  C   C848      1.0  0.12124  0.58946  0.87186  1.0000
  H   H1487     1.0  0.22898  0.61330  0.79808  1.0000
  C   C849      1.0  0.00204  0.85909  0.76355  1.0000
  C   C850      1.0  0.28050  0.61353  0.75953  1.0000
  H   H1488     1.0  0.02103  0.72397  0.79388  1.0000
  H   H1489     1.0  0.06808  0.73129  0.79711  1.0000
  C   C851      1.0  0.27964  0.88188  0.76364  1.0000
  H   H1490     1.0  0.08744  0.97640  0.82657  1.0000
  C   C852      1.0  0.22797  0.59793  0.76922  1.0000
  H   H1491     1.0  0.28396  0.92635  0.76225  1.0000
  H   H1492     1.0  0.23512  0.58335  0.76072  1.0000
  H   H1493     1.0  0.14620  0.91320  0.76370  1.0000
  C   C853      1.0  0.32900  0.67836  0.95484  1.0000
  H   H1494     1.0  0.26153  0.63221  0.85749  1.0000
  H   H1495     1.0  0.04414  0.61764  0.83010  1.0000
  H   H1496     1.0  0.06759  0.83857  0.84273  1.0000
  H   H1497     1.0  0.42350  0.57186  0.77996  1.0000
  H   H1498     1.0  0.29702  0.70957  0.97899  1.0000
  C   C854      1.0  0.18552  0.55885  0.89334  1.0000
  H   H1499     1.0  0.16995  0.53450  0.74657  1.0000
  H   H1500     1.0  0.20058  0.88457  0.75031  1.0000
  H   H1501     1.0  0.00619  0.92335  0.83486  1.0000
  C   C855      1.0  0.28740  0.65496  0.97030  1.0000
  H   H1502     1.0  0.05973  0.98067  0.81657  1.0000
  H   H1503     1.0  0.29665  0.63865  0.97406  1.0000
  H   H1504     1.0  0.21659  0.54030  0.88354  1.0000
  H   H1505     1.0  0.18969  0.57418  0.88344  1.0000
  H   H1506     1.0  0.12651  0.62108  0.88615  1.0000
  H   H1507     1.0  0.13191  0.91174  0.73999  1.0000
  C   C856      1.0  0.12209  0.61516  0.87094  1.0000
  H   H1508     1.0  0.05068  0.77719  0.77742  1.0000
  H   H1509     1.0  0.30897  0.51491  0.98213  1.0000
  C   C857      1.0  0.42640  0.66872  0.97405  1.0000
  H   H1510     1.0  0.19419  0.87343  0.77664  1.0000
  H   H1511     1.0  0.18068  0.56225  0.74626  1.0000
  C   C858      1.0  0.01560  0.73381  0.82517  1.0000
  H   H1512     1.0  0.01236  0.78289  0.79275  1.0000
  H   H1513     1.0  0.19766  0.85476  0.75564  1.0000
  H   H1514     1.0  0.01853  0.63929  0.79876  1.0000
  H   H1515     1.0  0.11527  0.51614  0.83468  1.0000
  S   S192      1.0  0.28636  0.99469  0.89427  1.0000
  H   H1516     1.0  0.18467  0.78050  0.76013  1.0000
  C   C859      1.0  0.41506  0.56462  0.74859  1.0000
  H   H1517     1.0  0.43424  0.70228  0.98022  1.0000
  H   H1518     1.0  0.40813  0.67305  0.97260  1.0000
  H   H1519     1.0  0.23785  0.62764  0.96278  1.0000
  H   H1520     1.0  0.20727  0.79244  0.74352  1.0000
  H   H1521     1.0  0.48632  0.54436  0.74105  1.0000
  H   H1522     1.0  0.33138  0.93323  0.98184  1.0000
  H   H1523     1.0  0.02510  0.64879  0.76606  1.0000
  H   H1524     1.0  0.42865  0.65114  0.98067  1.0000
  H   H1525     1.0  0.26414  0.73866  0.97955  1.0000
  H   H1526     1.0  0.00492  0.86732  0.74828  1.0000
  H   H1527     1.0  0.01377  0.75964  0.77579  1.0000
  C   C860      1.0  0.28515  0.69593  0.97709  1.0000
  H   H1528     1.0  0.39461  0.57870  0.77405  1.0000
  C   C861      1.0  0.19003  0.79570  0.75063  1.0000
  H   H1529     1.0  0.27012  0.84698  0.75829  1.0000
  C   C862      1.0  0.44195  0.91136  0.74573  1.0000
  C   C863      1.0  0.45340  0.51442  0.74412  1.0000
  H   H1530     1.0  0.34896  0.98649  0.98097  1.0000
  H   H1531     1.0  0.48793  0.89814  0.74171  1.0000
  H   H1532     1.0  0.06474  0.93179  0.74090  1.0000
  H   H1533     1.0  0.31473  0.99362  0.94670  1.0000
  C   C864      1.0  0.16302  0.93003  0.73683  1.0000
  H   H1534     1.0  0.31463  0.86435  0.73801  1.0000
  H   H1535     1.0  0.47151  0.51191  0.73920  1.0000
  H   H1536     1.0  0.40299  0.57186  0.73725  1.0000
  H   H1537     1.0  0.38725  0.90073  0.73729  1.0000
  C   C865      1.0  0.29878  0.85511  0.73809  1.0000
  H   H1538     1.0  0.44249  0.92926  0.73976  1.0000
  Fe  Fe97      1.0  0.90479  0.34973  0.19068  1.0000
  S   S193      1.0  0.90458  0.32105  0.21484  1.0000
  S   S194      1.0  0.93845  0.36021  0.17467  1.0000
  Fe  Fe98      1.0  0.85210  0.35273  0.18928  1.0000
  S   S195      1.0  0.84955  0.32388  0.21332  1.0000
  S   S196      1.0  0.81540  0.36083  0.18079  1.0000
  H   H1539     1.0  0.70939  0.42293  0.01092  1.0000
  H   H1540     1.0  0.75654  0.34064  0.20355  1.0000
  Fe  Fe99      1.0  0.87848  0.30662  0.19608  1.0000
  S   S197      1.0  0.87971  0.27211  0.18236  1.0000
  S   S198      1.0  0.87697  0.37102  0.20672  1.0000
  S   S199      1.0  0.87994  0.33432  0.17094  1.0000
  Fe  Fe100     1.0  0.85918  0.09405  0.21676  1.0000
  S   S200      1.0  0.86726  0.08828  0.18290  1.0000
  H   H1541     1.0  0.64662  0.44676  0.99998  1.0000
  Fe  Fe101     1.0  0.85883  0.14520  0.20950  1.0000
  S   S201      1.0  0.86620  0.14297  0.17517  1.0000
  S   S202      1.0  0.85545  0.17735  0.22708  1.0000
  Fe  Fe102     1.0  0.84062  0.11565  0.17699  1.0000
  S   S203      1.0  0.81072  0.11596  0.15587  1.0000
  Fe  Fe103     1.0  0.89208  0.11571  0.18453  1.0000
  S   S204      1.0  0.92790  0.11531  0.16932  1.0000
  S   S205      1.0  0.83146  0.12005  0.21089  1.0000
  S   S206      1.0  0.88584  0.11930  0.21874  1.0000
  Fe  Fe104     1.0  0.67087  0.43339  0.13052  1.0000
  S   S207      1.0  0.69404  0.46255  0.12848  1.0000
  S   S208      1.0  0.64526  0.43119  0.15801  1.0000
  Fe  Fe105     1.0  0.68989  0.41565  0.08984  1.0000
  S   S209      1.0  0.71458  0.44319  0.08541  1.0000
  S   S210      1.0  0.69242  0.38978  0.06509  1.0000
  Fe  Fe106     1.0  0.72105  0.43640  0.11930  1.0000
  S   S211      1.0  0.75700  0.43690  0.13060  1.0000
  Fe  Fe107     1.0  0.68548  0.46689  0.09479  1.0000
  H   H1542     1.0  0.67175  0.13298  0.01854  1.0000
  S   S212      1.0  0.69828  0.40717  0.12317  1.0000
  S   S213      1.0  0.66041  0.43947  0.09745  1.0000
  C   C866      1.0  0.52763  0.16456  0.22216  1.0000
  S   S214      1.0  0.65712  0.02872  0.10485  1.0000
  Fe  Fe108     1.0  0.72113  0.03604  0.11025  1.0000
  S   S215      1.0  0.69453  0.05942  0.12432  1.0000
  S   S216      1.0  0.75816  0.03700  0.11841  1.0000
  Fe  Fe109     1.0  0.67647  0.02787  0.13370  1.0000
  S   S217      1.0  0.66096  0.02085  0.16629  1.0000
  Fe  Fe110     1.0  0.67758  0.05826  0.09397  1.0000
  S   S218      1.0  0.65713  0.08752  0.07926  1.0000
  H   H1543     1.0  0.55083  0.26157  0.22475  1.0000
  S   S219      1.0  0.70569  0.03739  0.07879  1.0000
  H   H1544     1.0  0.63540  0.17462  0.99133  1.0000
  H   H1545     1.0  0.62742  0.30408  0.15902  1.0000
  C   C867      1.0  0.62864  0.01914  0.03558  1.0000
  C   C868      1.0  0.95411  0.11191  0.18150  1.0000
  C   C869      1.0  0.97436  0.11394  0.16920  1.0000
  H   H1546     1.0  0.99364  0.19441  0.18353  1.0000
  C   C870      1.0  0.95532  0.10683  0.20287  1.0000
  H   H1547     1.0  0.97366  0.11786  0.15265  1.0000
  H   H1548     1.0  0.93995  0.10555  0.21262  1.0000
  C   C871      1.0  0.79586  0.09338  0.14672  1.0000
  C   C872      1.0  0.80466  0.07110  0.14726  1.0000
  C   C873      1.0  0.79277  0.05405  0.13878  1.0000
  C   C874      1.0  0.77176  0.05890  0.13002  1.0000
  C   C875      1.0  0.76263  0.08103  0.13009  1.0000
  C   C876      1.0  0.77472  0.09815  0.13818  1.0000
  H   H1549     1.0  0.82088  0.06711  0.15370  1.0000
  H   H1550     1.0  0.80004  0.03703  0.13878  1.0000
  H   H1551     1.0  0.74659  0.08510  0.12330  1.0000
  H   H1552     1.0  0.76779  0.11530  0.13759  1.0000
  C   C877      1.0  0.87229  0.24622  0.19526  1.0000
  C   C878      1.0  0.86589  0.24437  0.21647  1.0000
  C   C879      1.0  0.86070  0.22318  0.22608  1.0000
  C   C880      1.0  0.86172  0.20377  0.21453  1.0000
  C   C881      1.0  0.86792  0.20574  0.19331  1.0000
  C   C882      1.0  0.87335  0.22680  0.18378  1.0000
  H   H1553     1.0  0.79444  0.27425  0.20362  1.0000
  H   H1554     1.0  0.71133  0.00784  0.99449  1.0000
  H   H1555     1.0  0.86858  0.19101  0.18423  1.0000
  H   H1556     1.0  0.87848  0.22800  0.16743  1.0000
  C   C883      1.0  0.96510  0.36053  0.18608  1.0000
  C   C884      1.0  0.96757  0.35618  0.20742  1.0000
  H   H1557     1.0  0.98475  0.29745  0.21733  1.0000
  H   H1558     1.0  0.75320  0.03076  0.17696  1.0000
  C   C885      1.0  0.98444  0.36510  0.17316  1.0000
  H   H1559     1.0  0.95287  0.35276  0.21761  1.0000
  H   H1560     1.0  0.58536  0.25554  0.20290  1.0000
  H   H1561     1.0  0.98274  0.36866  0.15667  1.0000
  C   C886      1.0  0.79985  0.38208  0.16632  1.0000
  C   C887      1.0  0.80912  0.40237  0.15884  1.0000
  C   C888      1.0  0.79578  0.41885  0.14790  1.0000
  C   C889      1.0  0.77310  0.41527  0.14417  1.0000
  C   C890      1.0  0.76389  0.39489  0.15158  1.0000
  C   C891      1.0  0.77717  0.37847  0.16263  1.0000
  H   H1562     1.0  0.82648  0.40546  0.16159  1.0000
  H   H1563     1.0  0.80308  0.43454  0.14228  1.0000
  H   H1564     1.0  0.74650  0.39186  0.14885  1.0000
  H   H1565     1.0  0.76982  0.36284  0.16829  1.0000
  C   C892      1.0  0.92813  0.04765  0.17796  1.0000
  C   C893      1.0  0.63278  0.08256  0.20035  1.0000
  C   C894      1.0  0.64155  0.08490  0.17972  1.0000
  C   C895      1.0  0.64982  0.06602  0.16914  1.0000
  C   C896      1.0  0.64964  0.04458  0.17916  1.0000
  C   C897      1.0  0.64070  0.04209  0.19978  1.0000
  C   C898      1.0  0.63221  0.06106  0.21037  1.0000
  H   H1566     1.0  0.64187  0.10146  0.17182  1.0000
  H   H1567     1.0  0.65624  0.06814  0.15318  1.0000
  H   H1568     1.0  0.64043  0.02551  0.20760  1.0000
  H   H1569     1.0  0.64396  0.48082  0.02009  1.0000
  C   C899      1.0  0.63158  0.36471  0.19539  1.0000
  C   C900      1.0  0.64869  0.36533  0.17944  1.0000
  C   C901      1.0  0.65310  0.38558  0.16781  1.0000
  C   C902      1.0  0.64015  0.40525  0.17186  1.0000
  C   C903      1.0  0.62283  0.40451  0.18760  1.0000
  C   C904      1.0  0.61866  0.38437  0.19945  1.0000
  H   H1570     1.0  0.65862  0.35013  0.17609  1.0000
  H   H1571     1.0  0.66639  0.38590  0.15564  1.0000
  H   H1572     1.0  0.61243  0.41954  0.19047  1.0000
  H   H1573     1.0  0.68957  0.10203  0.18686  1.0000
  C   C905      1.0  0.63511  0.38479  0.02110  1.0000
  C   C906      1.0  0.63116  0.39540  0.03991  1.0000
  C   C907      1.0  0.64842  0.39637  0.05378  1.0000
  C   C908      1.0  0.66993  0.38707  0.04879  1.0000
  C   C909      1.0  0.67376  0.37580  0.03026  1.0000
  C   C910      1.0  0.65634  0.37453  0.01648  1.0000
  H   H1574     1.0  0.61467  0.40309  0.04372  1.0000
  H   H1575     1.0  0.64512  0.40443  0.06831  1.0000
  H   H1576     1.0  0.69033  0.36831  0.02646  1.0000
  C   C911      1.0  0.73546  0.02879  0.17322  1.0000
  C   C912      1.0  0.65227  0.09518  0.00862  1.0000
  C   C913      1.0  0.63449  0.10315  0.02175  1.0000
  C   C914      1.0  0.63600  0.10051  0.04346  1.0000
  C   C915      1.0  0.65485  0.08914  0.05208  1.0000
  C   C916      1.0  0.67196  0.08003  0.03889  1.0000
  C   C917      1.0  0.67083  0.08337  0.01724  1.0000
  H   H1577     1.0  0.62005  0.11214  0.01524  1.0000
  H   H1578     1.0  0.62264  0.10744  0.05363  1.0000
  H   H1579     1.0  0.68655  0.07129  0.04539  1.0000
  N   N48       1.0  0.82094  0.29844  0.14446  1.0000
  C   C918      1.0  0.82413  0.32350  0.14339  1.0000
  C   C919      1.0  0.81638  0.29055  0.16695  1.0000
  C   C920      1.0  0.84306  0.28713  0.13704  1.0000
  C   C921      1.0  0.80244  0.29192  0.13109  1.0000
  C   C922      1.0  0.78212  0.30914  0.12831  1.0000
  C   C923      1.0  0.83335  0.33392  0.12215  1.0000
  C   C924      1.0  0.84420  0.26094  0.13852  1.0000
  C   C925      1.0  0.79438  0.29996  0.17800  1.0000
  H   H1580     1.0  0.97074  0.31462  0.18295  1.0000
  C   C926      1.0  0.76301  0.29877  0.11775  1.0000
  C   C927      1.0  0.82988  0.35959  0.12094  1.0000
  C   C928      1.0  0.86572  0.25159  0.12731  1.0000
  H   H1581     1.0  0.83613  0.32763  0.15509  1.0000
  H   H1582     1.0  0.80822  0.33293  0.14781  1.0000
  H   H1583     1.0  0.81510  0.27196  0.16853  1.0000
  H   H1584     1.0  0.83089  0.29442  0.17625  1.0000
  H   H1585     1.0  0.85721  0.29286  0.14582  1.0000
  H   H1586     1.0  0.84713  0.29219  0.12043  1.0000
  H   H1587     1.0  0.80936  0.28882  0.11503  1.0000
  H   H1588     1.0  0.79565  0.27553  0.13720  1.0000
  H   H1589     1.0  0.78739  0.32405  0.11837  1.0000
  H   H1590     1.0  0.77508  0.31541  0.14324  1.0000
  H   H1591     1.0  0.85182  0.33001  0.12015  1.0000
  H   H1592     1.0  0.82510  0.32712  0.10899  1.0000
  H   H1593     1.0  0.82952  0.25408  0.13150  1.0000
  H   H1594     1.0  0.84455  0.25442  0.15496  1.0000
  H   H1595     1.0  0.79290  0.31859  0.17663  1.0000
  H   H1596     1.0  0.77953  0.29298  0.17137  1.0000
  H   H1597     1.0  0.63221  0.00067  0.03746  1.0000
  H   H1598     1.0  0.61923  0.03866  0.14113  1.0000
  H   H1599     1.0  0.95376  0.04713  0.13975  1.0000
  H   H1600     1.0  0.75628  0.28435  0.12754  1.0000
  H   H1601     1.0  0.74904  0.31163  0.11548  1.0000
  H   H1602     1.0  0.76906  0.29290  0.10228  1.0000
  H   H1603     1.0  0.83840  0.36696  0.13370  1.0000
  H   H1604     1.0  0.83718  0.36667  0.10585  1.0000
  H   H1605     1.0  0.81159  0.36459  0.12216  1.0000
  H   H1606     1.0  0.88088  0.25767  0.13425  1.0000
  H   H1607     1.0  0.86631  0.23288  0.12897  1.0000
  H   H1608     1.0  0.86610  0.25681  0.11048  1.0000
  N   N49       1.0  0.63095  0.26035  0.21295  1.0000
  C   C929      1.0  0.63093  0.23565  0.20864  1.0000
  C   C930      1.0  0.63534  0.27394  0.19272  1.0000
  H   H1609     1.0  0.96143  0.30959  0.14728  1.0000
  H   H1610     1.0  0.58411  0.00211  0.14212  1.0000
  H   H1611     1.0  0.52451  0.14925  0.21384  1.0000
  H   H1612     1.0  0.92519  0.19372  0.13993  1.0000
  H   H1613     1.0  0.56411  0.07679  0.01957  1.0000
  C   C931      1.0  0.61769  0.27293  0.17610  1.0000
  C   C932      1.0  0.62520  0.28610  0.15601  1.0000
  C   C933      1.0  0.95828  0.05985  0.15058  1.0000
  H   H1614     1.0  0.57962  0.29638  0.01043  1.0000
  C   C934      1.0  0.66461  0.20934  0.99394  1.0000
  H   H1615     1.0  0.99057  0.35460  0.23234  1.0000
  H   H1616     1.0  0.61646  0.23199  0.19946  1.0000
  H   H1617     1.0  0.63581  0.29218  0.19551  1.0000
  H   H1618     1.0  0.65226  0.26894  0.18558  1.0000
  H   H1619     1.0  0.58019  0.03843  0.01611  1.0000
  H   H1620     1.0  0.83104  0.42780  0.20269  1.0000
  C   C935      1.0  0.65561  0.28793  0.23075  1.0000
  H   H1621     1.0  0.58896  0.04285  0.14255  1.0000
  H   H1622     1.0  0.93343  0.15051  0.20964  1.0000
  H   H1623     1.0  0.60287  0.02841  0.16396  1.0000
  C   C936      1.0  0.63968  0.03018  0.05292  1.0000
  H   H1624     1.0  0.92316  0.03649  0.16600  1.0000
  C   C937      1.0  0.95157  0.20521  0.20362  1.0000
  N   N50       1.0  0.92143  0.03841  0.19966  1.0000
  H   H1625     1.0  0.61508  0.25540  0.17214  1.0000
  H   H1626     1.0  0.60140  0.28099  0.18168  1.0000
  H   H1627     1.0  0.97724  0.09890  0.22815  1.0000
  H   H1628     1.0  0.66968  0.48648  0.99231  1.0000
  H   H1629     1.0  0.66328  0.24597  0.99101  1.0000
  N   N51       1.0  0.95059  0.18064  0.19912  1.0000
  C   C938      1.0  0.71062  0.13002  0.03779  1.0000
  C   C939      1.0  0.91821  0.17823  0.14778  1.0000
  C   C940      1.0  0.85999  0.02203  0.18791  1.0000
  H   H1630     1.0  0.91876  0.06407  0.17466  1.0000
  H   H1631     1.0  0.72619  0.41960  0.04525  1.0000
  H   H1632     1.0  0.59857  0.18052  0.00974  1.0000
  H   H1633     1.0  0.52743  0.29356  0.99873  1.0000
  H   H1634     1.0  0.99158  0.25780  0.17802  1.0000
  H   H1635     1.0  0.70268  0.13189  0.16192  1.0000
  H   H1636     1.0  0.94842  0.07585  0.14720  1.0000
  H   H1637     1.0  0.68481  0.48195  0.19479  1.0000
  C   C941      1.0  0.60884  0.00546  0.99817  1.0000
  C   C942      1.0  0.75010  0.35941  0.23153  1.0000
  H   H1638     1.0  0.70599  0.11323  0.03311  1.0000
  C   C943      1.0  0.59126  0.05255  0.01147  1.0000
  H   H1639     1.0  0.93538  0.24012  0.22914  1.0000
  H   H1640     1.0  0.64817  0.21688  0.23392  1.0000
  H   H1641     1.0  0.96778  0.28561  0.19011  1.0000
  H   H1642     1.0  0.70182  0.03133  0.18760  1.0000
  H   H1643     1.0  0.86511  0.25919  0.22550  1.0000
  C   C944      1.0  0.97651  0.10315  0.21165  1.0000
  H   H1644     1.0  0.91624  0.25314  0.21097  1.0000
  H   H1645     1.0  0.65465  0.01908  0.01112  1.0000
  H   H1646     1.0  0.63167  0.44234  0.03297  1.0000
  C   C945      1.0  0.92056  0.17809  0.17124  1.0000
  C   C946      1.0  0.89630  0.03454  0.20188  1.0000
  H   H1647     1.0  0.73737  0.44738  0.04061  1.0000
  H   H1648     1.0  0.62123  0.42992  0.22446  1.0000
  H   H1649     1.0  0.68524  0.43490  0.03958  1.0000
  H   H1650     1.0  0.72804  0.33972  0.21464  1.0000
  H   H1651     1.0  0.90006  0.17784  0.14452  1.0000
  H   H1652     1.0  0.91256  0.16271  0.17825  1.0000
  H   H1653     1.0  0.61284  0.45277  0.06584  1.0000
  H   H1654     1.0  0.69741  0.46115  0.04051  1.0000
  C   C947      1.0  0.57594  0.07321  0.00608  1.0000
  H   H1655     1.0  0.72092  0.45052  0.00593  1.0000
  H   H1656     1.0  0.80239  0.43755  0.20878  1.0000
  H   H1657     1.0  0.96001  0.06392  0.18309  1.0000
  H   H1658     1.0  0.65947  0.36615  0.00209  1.0000
  C   C948      1.0  0.93432  0.29500  0.16573  1.0000
  H   H1659     1.0  0.96386  0.03532  0.17553  1.0000
  H   H1660     1.0  0.97650  0.06314  0.14779  1.0000
  H   H1661     1.0  0.82317  0.43710  0.22833  1.0000
  H   H1662     1.0  0.74714  0.42475  0.02451  1.0000
  H   H1663     1.0  0.91742  0.07245  0.20977  1.0000
  C   C949      1.0  0.60315  0.03092  0.14674  1.0000
  H   H1664     1.0  0.97282  0.15090  0.20329  1.0000
  C   C950      1.0  0.73215  0.43226  0.03309  1.0000
  H   H1665     1.0  0.61228  0.47689  0.04749  1.0000
  H   H1666     1.0  0.92465  0.22335  0.18680  1.0000
  C   C951      1.0  0.70359  0.14843  0.02159  1.0000
  H   H1667     1.0  0.69644  0.47244  0.98983  1.0000
  H   H1668     1.0  0.64614  0.23085  0.19864  1.0000
  S   S220      1.0  0.62306  0.10716  0.21271  1.0000
  H   H1669     1.0  0.74690  0.05179  0.21503  1.0000
  C   C952      1.0  0.81145  0.40401  0.22207  1.0000
  H   H1670     1.0  0.65904  0.40047  0.21734  1.0000
  C   C953      1.0  0.93489  0.01714  0.20565  1.0000
  C   C954      1.0  0.81731  0.42815  0.21514  1.0000
  H   H1671     1.0  0.58611  0.08829  0.00241  1.0000
  H   H1672     1.0  0.59755  0.00559  0.01242  1.0000
  H   H1673     1.0  0.62529  0.05910  0.22622  1.0000
  H   H1674     1.0  0.78278  0.36602  0.21615  1.0000
  H   H1675     1.0  0.80528  0.39625  0.20844  1.0000
  H   H1676     1.0  0.82732  0.39488  0.22653  1.0000
  H   H1677     1.0  0.92393  0.29399  0.15206  1.0000
  H   H1678     1.0  0.63279  0.18550  0.02946  1.0000
  H   H1679     1.0  0.66635  0.25537  0.21945  1.0000
  H   H1680     1.0  0.71219  0.14421  0.00650  1.0000
  C   C955      1.0  0.67750  0.15023  0.02037  1.0000
  N   N52       1.0  0.66838  0.16629  0.00350  1.0000
  C   C956      1.0  0.99679  0.10502  0.19933  1.0000
  H   H1681     1.0  0.55572  0.26391  0.00697  1.0000
  H   H1682     1.0  0.64212  0.04604  0.01486  1.0000
  C   C957      1.0  0.60416  0.16764  0.02176  1.0000
  H   H1683     1.0  0.68826  0.40378  0.21873  1.0000
  H   H1684     1.0  0.80742  0.30007  0.20892  1.0000
  H   H1685     1.0  0.61214  0.28549  0.14442  1.0000
  C   C958      1.0  0.62954  0.16853  0.02434  1.0000
  C   C959      1.0  0.93349  0.16856  0.21343  1.0000
  H   H1686     1.0  0.95432  0.19081  0.16630  1.0000
  C   C960      1.0  0.71363  0.43864  0.01806  1.0000
  C   C961      1.0  0.98903  0.35709  0.21573  1.0000
  H   H1687     1.0  0.60082  0.05676  0.02492  1.0000
  H   H1688     1.0  0.56521  0.28763  0.22073  1.0000
  C   C962      1.0  0.88458  0.02763  0.18244  1.0000
  H   H1689     1.0  0.91084  0.19284  0.17708  1.0000
  H   H1690     1.0  0.52117  0.17961  0.21294  1.0000
  H   H1691     1.0  0.97922  0.17350  0.21839  1.0000
  H   H1692     1.0  0.85180  0.01779  0.17367  1.0000
  H   H1693     1.0  0.67075  0.15500  0.03603  1.0000
  H   H1694     1.0  0.66915  0.19325  0.02459  1.0000
  H   H1695     1.0  0.67000  0.46623  0.17701  1.0000
  H   H1696     1.0  0.69290  0.19139  0.00695  1.0000
  C   C963      1.0  0.99557  0.11067  0.17805  1.0000
  H   H1697     1.0  0.63386  0.15569  0.03684  1.0000
  H   H1698     1.0  0.64135  0.27871  0.14932  1.0000
  C   C964      1.0  0.99305  0.17597  0.18668  1.0000
  H   H1699     1.0  0.92714  0.16311  0.14133  1.0000
  C   C965      1.0  0.97433  0.29736  0.17737  1.0000
  H   H1700     1.0  0.59988  0.15068  0.01722  1.0000
  H   H1701     1.0  0.73644  0.07991  0.21712  1.0000
  H   H1702     1.0  0.70950  0.49086  0.02070  1.0000
  H   H1703     1.0  0.76330  0.06475  0.17764  1.0000
  H   H1704     1.0  0.96373  0.27920  0.15083  1.0000
  H   H1705     1.0  0.63366  0.18855  0.21099  1.0000
  C   C966      1.0  0.60931  0.26879  0.22405  1.0000
  H   H1706     1.0  0.70244  0.44618  0.20939  1.0000
  H   H1707     1.0  0.77810  0.08854  0.21546  1.0000
  C   C967      1.0  0.68529  0.46630  0.18616  1.0000
  C   C968      1.0  0.65053  0.26333  0.22643  1.0000
  C   C969      1.0  0.66533  0.44424  0.21623  1.0000
  C   C970      1.0  0.95370  0.05129  0.17317  1.0000
  C   C971      1.0  0.68354  0.47858  0.00150  1.0000
  C   C972      1.0  0.57046  0.26618  0.99583  1.0000
  H   H1708     1.0  0.68470  0.07725  0.00715  1.0000
  H   H1709     1.0  0.60511  0.38394  0.21140  1.0000
  H   H1710     1.0  0.76415  0.38987  0.21823  1.0000
  C   C973      1.0  0.71339  0.07497  0.17677  1.0000
  C   C974      1.0  0.77062  0.37458  0.22726  1.0000
  C   C975      1.0  0.93201  0.24249  0.21238  1.0000
  H   H1711     1.0  0.60128  0.01227  0.11966  1.0000
  Fe  Fe111     1.0  0.87549  0.34127  0.22978  1.0000
  H   H1712     1.0  0.99082  0.16817  0.17173  1.0000
  H   H1713     1.0  0.72373  0.02516  0.20509  1.0000
  H   H1714     1.0  0.85047  0.03673  0.19456  1.0000
  H   H1715     1.0  0.72776  0.07409  0.16501  1.0000
  H   H1716     1.0  0.68805  0.23384  0.00294  1.0000
  H   H1717     1.0  0.91509  0.21158  0.21212  1.0000
  H   H1718     1.0  0.69642  0.10742  0.14838  1.0000
  C   C976      1.0  0.94570  0.17783  0.17665  1.0000
  H   H1719     1.0  0.66261  0.48073  0.04070  1.0000
  H   H1720     1.0  0.65156  0.44194  0.05307  1.0000
  C   C977      1.0  0.69897  0.04853  0.23196  1.0000
  H   H1721     1.0  0.65169  0.43915  0.20658  1.0000
  H   H1722     1.0  0.85906  0.00737  0.19937  1.0000
  S   S221      1.0  0.68253  0.49967  0.07386  1.0000
  C   C978      1.0  0.64095  0.45295  0.04286  1.0000
  H   H1723     1.0  0.92917  0.31078  0.17343  1.0000
  C   C979      1.0  0.66958  0.23223  0.00190  1.0000
  C   C980      1.0  0.69885  0.06439  0.21197  1.0000
  C   C981      1.0  0.66452  0.44200  0.00321  1.0000
  N   N53       1.0  0.71837  0.06071  0.19623  1.0000
  H   H1724     1.0  0.78706  0.06027  0.20845  1.0000
  C   C982      1.0  0.70800  0.11409  0.15926  1.0000
  H   H1725     1.0  0.73732  0.36502  0.20049  1.0000
  C   C983      1.0  0.70711  0.10019  0.17995  1.0000
  C   C984      1.0  0.97362  0.16958  0.20288  1.0000
  S   S222      1.0  0.61357  0.38673  0.00328  1.0000
  H   H1726     1.0  0.71862  0.10740  0.19053  1.0000
  H   H1727     1.0  0.72546  0.11369  0.15206  1.0000
  H   H1728     1.0  0.69898  0.06811  0.16915  1.0000
  H   H1729     1.0  0.91601  0.17525  0.21096  1.0000
  C   C985      1.0  0.65566  0.46977  0.02951  1.0000
  N   N54       1.0  0.67444  0.45959  0.01568  1.0000
  H   H1730     1.0  0.70999  0.16451  0.02627  1.0000
  C   C986      1.0  0.62341  0.46527  0.05686  1.0000
  H   H1731     1.0  0.99829  0.30385  0.14056  1.0000
  C   C987      1.0  0.74257  0.35071  0.21128  1.0000
  C   C988      1.0  0.58735  0.27972  0.00637  1.0000
  H   H1732     1.0  0.68249  0.06251  0.20474  1.0000
  C   C989      1.0  0.64317  0.16368  0.00372  1.0000
  C   C990      1.0  0.60783  0.04684  0.99289  1.0000
  C   C991      1.0  0.71903  0.03613  0.19132  1.0000
  H   H1733     1.0  0.63398  0.04818  0.05335  1.0000
  H   H1734     1.0  0.70232  0.13316  0.05330  1.0000
  H   H1735     1.0  0.96347  0.21391  0.19229  1.0000
  H   H1736     1.0  0.66187  0.29732  0.21637  1.0000
  C   C992      1.0  0.92924  0.21973  0.20313  1.0000
  H   H1737     1.0  0.94603  0.25156  0.20401  1.0000
  C   C993      1.0  0.75937  0.07557  0.19081  1.0000
  H   H1738     1.0  0.60666  0.28727  0.22055  1.0000
  C   C994      1.0  0.95935  0.29502  0.15872  1.0000
  C   C995      1.0  0.69459  0.49758  0.01231  1.0000
  C   C996      1.0  0.62291  0.19597  0.22373  1.0000
  S   S223      1.0  0.62634  0.33903  0.20958  1.0000
  H   H1739     1.0  0.63973  0.14619  0.99991  1.0000
  H   H1740     1.0  0.61023  0.02218  0.03822  1.0000
  H   H1741     1.0  0.75483  0.09271  0.18416  1.0000
  H   H1742     1.0  0.93759  0.00276  0.17464  1.0000
  H   H1743     1.0  0.77719  0.29935  0.20865  1.0000
  C   C997      1.0  0.92625  0.05613  0.21451  1.0000
  H   H1744     1.0  0.73185  0.03846  0.15850  1.0000
  H   H1745     1.0  0.65840  0.02893  0.05075  1.0000
  H   H1746     1.0  0.79449  0.08423  0.19163  1.0000
  H   H1747     1.0  0.69822  0.08197  0.21711  1.0000
  H   H1748     1.0  0.95874  0.20682  0.21902  1.0000
  C   C998      1.0  0.68667  0.44548  0.20114  1.0000
  H   H1749     1.0  0.93078  0.28035  0.17669  1.0000
  C   C999      1.0  0.69223  0.44893  0.02942  1.0000
  H   H1750     1.0  0.94454  0.05944  0.21390  1.0000
  C   C1000     1.0  0.73993  0.06662  0.20573  1.0000
  N   N55       1.0  0.99949  0.29309  0.17327  1.0000
  H   H1751     1.0  0.68812  0.43038  0.19167  1.0000
  H   H1752     1.0  0.63455  0.02160  0.06804  1.0000
  N   N56       1.0  0.62306  0.02597  0.99578  1.0000
  H   H1753     1.0  0.59249  0.27047  0.02091  1.0000
  C   C1001     1.0  0.78099  0.07721  0.20238  1.0000
  H   H1754     1.0  0.95280  0.16119  0.17162  1.0000
  H   H1755     1.0  0.60272  0.28232  0.99602  1.0000
  C   C1002     1.0  0.63792  0.02809  0.01379  1.0000
  H   H1756     1.0  0.66385  0.42560  0.01251  1.0000
  C   C1003     1.0  0.67427  0.18982  0.00816  1.0000
  H   H1757     1.0  0.65992  0.46151  0.22082  1.0000
  Fe  Fe112     1.0  0.68561  0.00741  0.09074  1.0000
  H   H1758     1.0  0.88441  0.04182  0.17044  1.0000
  H   H1759     1.0  0.60502  0.19717  0.21943  1.0000
  C   C1004     1.0  0.79336  0.29291  0.20120  1.0000
  H   H1760     1.0  0.59479  0.17105  0.03673  1.0000
  H   H1761     1.0  0.88677  0.05016  0.20655  1.0000
  H   H1762     1.0  0.70040  0.46629  0.17518  1.0000
  C   C1005     1.0  0.58722  0.25720  0.21967  1.0000
  H   H1763     1.0  0.66574  0.35794  0.22726  1.0000
  H   H1764     1.0  0.69475  0.03123  0.22834  1.0000
  H   H1765     1.0  0.95292  0.02087  0.20720  1.0000
  H   H1766     1.0  0.54617  0.16553  0.22336  1.0000
  C   C1006     1.0  0.60079  0.00852  0.13672  1.0000
  H   H1767     1.0  0.72921  0.12967  0.03912  1.0000
  H   H1768     1.0  0.89248  0.02181  0.21482  1.0000
  C   C1007     1.0  0.67196  0.40482  0.22812  1.0000
  H   H1769     1.0  0.63193  0.47498  0.06809  1.0000
  H   H1770     1.0  0.66098  0.23443  0.01745  1.0000
  H   H1771     1.0  0.57871  0.24940  0.99307  1.0000
  H   H1772     1.0  0.58706  0.23999  0.22730  1.0000
  H   H1773     1.0  0.52666  0.25195  0.99087  1.0000
  S   S224      1.0  0.70358  0.00406  0.12077  1.0000
  H   H1774     1.0  0.69530  0.36398  0.22643  1.0000
  C   C1008     1.0  0.73320  0.00388  0.16942  1.0000
  C   C1009     1.0  0.63083  0.21919  0.22824  1.0000
  H   H1775     1.0  0.64606  0.20880  0.99322  1.0000
  H   H1776     1.0  0.56582  0.07029  0.99260  1.0000
  C   C1010     1.0  0.56623  0.27029  0.22813  1.0000
  H   H1777     1.0  0.89324  0.01284  0.17539  1.0000
  H   H1778     1.0  0.61803  0.06205  0.98992  1.0000
  H   H1779     1.0  0.92900  0.01034  0.22136  1.0000
  H   H1780     1.0  0.71556  0.00058  0.16599  1.0000
  H   H1781     1.0  0.00060  0.27128  0.21321  1.0000
  H   H1782     1.0  0.78023  0.41657  0.23628  1.0000
  N   N57       1.0  0.66747  0.42838  0.23522  1.0000
  C   C1011     1.0  0.67959  0.36312  0.23654  1.0000
  C   C1012     1.0  0.51498  0.28720  0.98854  1.0000
  Fe  Fe113     1.0  0.80041  0.04719  0.35007  1.0000
  H   H1783     1.0  0.61065  0.26704  0.24121  1.0000
  S   S225      1.0  0.81843  0.07513  0.33138  1.0000
  Fe  Fe114     1.0  0.77860  0.04126  0.39397  1.0000
  H   H1784     1.0  0.91499  0.18058  0.46023  1.0000
  S   S226      1.0  0.77538  0.05970  0.42399  1.0000
  H   H1785     1.0  0.86473  0.17720  0.36501  1.0000
  Fe  Fe115     1.0  0.75475  0.02591  0.35639  1.0000
  S   S227      1.0  0.72355  0.02496  0.33685  1.0000
  S   S228      1.0  0.81275  0.03188  0.38011  1.0000
  S   S229      1.0  0.76708  0.05903  0.36450  1.0000
  Fe  Fe116     1.0  0.61700  0.35930  0.28521  1.0000
  S   S230      1.0  0.63785  0.33414  0.26715  1.0000
  S   S231      1.0  0.63539  0.38896  0.29711  1.0000
  Fe  Fe117     1.0  0.57188  0.33804  0.27541  1.0000
  S   S232      1.0  0.59087  0.31223  0.25620  1.0000
  S   S233      1.0  0.53451  0.32876  0.28029  1.0000
  Fe  Fe118     1.0  0.61478  0.30812  0.28169  1.0000
  S   S234      1.0  0.63042  0.27378  0.29136  1.0000
  H   H1786     1.0  0.70218  0.45467  0.28271  1.0000
  H   H1787     1.0  0.66131  0.01507  0.36994  1.0000
  S   S235      1.0  0.59542  0.33270  0.30202  1.0000
  S   S236      1.0  0.59188  0.36671  0.26002  1.0000
  Fe  Fe119     1.0  0.61993  0.10785  0.29135  1.0000
  S   S237      1.0  0.62790  0.13294  0.26468  1.0000
  S   S238      1.0  0.64523  0.09975  0.31687  1.0000
  Fe  Fe120     1.0  0.57016  0.10475  0.27901  1.0000
  S   S239      1.0  0.57551  0.12865  0.25128  1.0000
  S   S240      1.0  0.53582  0.09193  0.29175  1.0000
  H   H1788     1.0  0.62469  0.00585  0.27863  1.0000
  H   H1789     1.0  0.58105  0.06406  0.36458  1.0000
  Fe  Fe121     1.0  0.59390  0.14959  0.27213  1.0000
  S   S241      1.0  0.58106  0.18615  0.27006  1.0000
  S   S242      1.0  0.60256  0.08396  0.27213  1.0000
  S   S243      1.0  0.58705  0.12661  0.30029  1.0000
  Fe  Fe122     1.0  0.79959  0.43034  0.32794  1.0000
  S   S244      1.0  0.76697  0.44977  0.33590  1.0000
  S   S245      1.0  0.81719  0.43232  0.29592  1.0000
  Fe  Fe123     1.0  0.80060  0.40620  0.37075  1.0000
  S   S246      1.0  0.76821  0.42344  0.38186  1.0000
  S   S247      1.0  0.82179  0.37912  0.38759  1.0000
  Fe  Fe124     1.0  0.75490  0.41665  0.35063  1.0000
  S   S248      1.0  0.72583  0.39307  0.34674  1.0000
  Fe  Fe125     1.0  0.78311  0.45491  0.36637  1.0000
  C   C1013     1.0  0.86657  0.12738  0.44315  1.0000
  S   S249      1.0  0.78682  0.39758  0.34081  1.0000
  S   S250      1.0  0.81628  0.43771  0.35704  1.0000
  H   H1790     1.0  0.81941  0.13411  0.27804  1.0000
  C   C1014     1.0  0.85712  0.36938  0.27372  1.0000
  C   C1015     1.0  0.84723  0.36937  0.29402  1.0000
  C   C1016     1.0  0.83539  0.38872  0.30118  1.0000
  C   C1017     1.0  0.83354  0.40831  0.28817  1.0000
  C   C1018     1.0  0.84433  0.40861  0.26825  1.0000
  C   C1019     1.0  0.85590  0.38919  0.26099  1.0000
  H   H1791     1.0  0.84851  0.35426  0.30411  1.0000
  H   H1792     1.0  0.82781  0.38847  0.31678  1.0000
  H   H1793     1.0  0.84356  0.42387  0.25832  1.0000
  H   H1794     1.0  0.89560  0.05162  0.37788  1.0000
  H   H1795     1.0  0.88278  0.12663  0.45102  1.0000
  C   C1020     1.0  0.61643  0.24927  0.28626  1.0000
  C   C1021     1.0  0.59431  0.25067  0.27983  1.0000
  C   C1022     1.0  0.58379  0.23110  0.27505  1.0000
  C   C1023     1.0  0.59507  0.20989  0.27704  1.0000
  C   C1024     1.0  0.61708  0.20833  0.28383  1.0000
  C   C1025     1.0  0.62774  0.22802  0.28837  1.0000
  H   H1796     1.0  0.58533  0.26688  0.27854  1.0000
  H   H1797     1.0  0.56687  0.23245  0.26963  1.0000
  H   H1798     1.0  0.62593  0.19205  0.28537  1.0000
  H   H1799     1.0  0.64483  0.22680  0.29347  1.0000
  C   C1026     1.0  0.70183  0.39231  0.33122  1.0000
  C   C1027     1.0  0.69208  0.37145  0.32913  1.0000
  C   C1028     1.0  0.67231  0.36998  0.31812  1.0000
  C   C1029     1.0  0.66166  0.38947  0.30935  1.0000
  C   C1030     1.0  0.67164  0.41030  0.31108  1.0000
  C   C1031     1.0  0.69164  0.41173  0.32179  1.0000
  H   H1800     1.0  0.69967  0.35630  0.33636  1.0000
  H   H1801     1.0  0.66488  0.35385  0.31704  1.0000
  H   H1802     1.0  0.66353  0.42554  0.30451  1.0000
  H   H1803     1.0  0.69874  0.42792  0.32335  1.0000
  C   C1032     1.0  0.70320  0.04703  0.33064  1.0000
  C   C1033     1.0  0.69756  0.06440  0.34397  1.0000
  C   C1034     1.0  0.67987  0.08035  0.33942  1.0000
  C   C1035     1.0  0.66787  0.07952  0.32130  1.0000
  C   C1036     1.0  0.67397  0.06256  0.30764  1.0000
  C   C1037     1.0  0.69127  0.04626  0.31244  1.0000
  H   H1804     1.0  0.70634  0.06513  0.35815  1.0000
  H   H1805     1.0  0.67534  0.09336  0.35014  1.0000
  H   H1806     1.0  0.66520  0.06192  0.29350  1.0000
  H   H1807     1.0  0.69541  0.03288  0.30202  1.0000
  C   C1038     1.0  0.82893  0.07112  0.30571  1.0000
  C   C1039     1.0  0.83774  0.08948  0.29377  1.0000
  C   C1040     1.0  0.84520  0.08724  0.27288  1.0000
  C   C1041     1.0  0.84429  0.06646  0.26398  1.0000
  C   C1042     1.0  0.83582  0.04799  0.27603  1.0000
  C   C1043     1.0  0.82802  0.05034  0.29683  1.0000
  H   H1808     1.0  0.83867  0.10553  0.30066  1.0000
  H   H1809     1.0  0.85184  0.10152  0.26373  1.0000
  H   H1810     1.0  0.83518  0.03184  0.26923  1.0000
  H   H1811     1.0  0.82136  0.03606  0.30595  1.0000
  C   C1044     1.0  0.81736  0.36688  0.45839  1.0000
  C   C1045     1.0  0.83460  0.35635  0.44630  1.0000
  C   C1046     1.0  0.83561  0.36009  0.42456  1.0000
  C   C1047     1.0  0.81957  0.37455  0.41482  1.0000
  C   C1048     1.0  0.80220  0.38489  0.42688  1.0000
  C   C1049     1.0  0.80103  0.38096  0.44860  1.0000
  H   H1812     1.0  0.84712  0.34528  0.45370  1.0000
  H   H1813     1.0  0.84903  0.35193  0.41527  1.0000
  H   H1814     1.0  0.78974  0.39602  0.41950  1.0000
  C   C1050     1.0  0.83855  0.06914  0.45997  1.0000
  C   C1051     1.0  0.83880  0.05285  0.44508  1.0000
  C   C1052     1.0  0.81956  0.04988  0.43398  1.0000
  C   C1053     1.0  0.79987  0.06319  0.43765  1.0000
  C   C1054     1.0  0.79943  0.07917  0.45290  1.0000
  C   C1055     1.0  0.81871  0.08216  0.46405  1.0000
  H   H1815     1.0  0.85402  0.04259  0.44196  1.0000
  H   H1816     1.0  0.81997  0.03714  0.42271  1.0000
  H   H1817     1.0  0.78418  0.08940  0.45597  1.0000
  N   N58       1.0  0.85782  0.45034  0.41981  1.0000
  C   C1056     1.0  0.85651  0.43795  0.40014  1.0000
  C   C1057     1.0  0.68788  0.45966  0.25228  1.0000
  C   C1058     1.0  0.87241  0.47032  0.41460  1.0000
  C   C1059     1.0  0.86885  0.43589  0.43673  1.0000
  C   C1060     1.0  0.85794  0.41334  0.44350  1.0000
  C   C1061     1.0  0.87924  0.42822  0.39058  1.0000
  H   H1818     1.0  0.75820  0.41971  0.26593  1.0000
  C   C1062     1.0  0.51328  0.22755  0.27547  1.0000
  H   H1819     1.0  0.54715  0.00006  0.36307  1.0000
  C   C1063     1.0  0.87322  0.39887  0.45776  1.0000
  C   C1064     1.0  0.87567  0.41615  0.37082  1.0000
  H   H1820     1.0  0.75831  0.36815  0.26937  1.0000
  H   H1821     1.0  0.84864  0.44940  0.38802  1.0000
  H   H1822     1.0  0.84523  0.42354  0.40246  1.0000
  C   C1065     1.0  0.62452  0.42141  0.23975  1.0000
  H   H1823     1.0  0.87118  0.03550  0.38623  1.0000
  C   C1066     1.0  0.93676  0.16934  0.23705  1.0000
  H   H1824     1.0  0.89040  0.46462  0.41184  1.0000
  H   H1825     1.0  0.88697  0.43214  0.43222  1.0000
  H   H1826     1.0  0.74277  0.10445  0.35908  1.0000
  H   H1827     1.0  0.85501  0.40332  0.43005  1.0000
  S   S251      1.0  0.86363  0.07306  0.47248  1.0000
  H   H1828     1.0  0.89113  0.44175  0.38622  1.0000
  H   H1829     1.0  0.88724  0.41576  0.40167  1.0000
  H   H1830     1.0  0.81081  0.44518  0.40698  1.0000
  H   H1831     1.0  0.51984  0.38455  0.32995  1.0000
  H   H1832     1.0  0.72966  0.13237  0.35653  1.0000
  C   C1067     1.0  0.86037  0.08077  0.39279  1.0000
  H   H1833     1.0  0.86747  0.47925  0.39977  1.0000
  H   H1834     1.0  0.75936  0.03663  0.26949  1.0000
  H   H1835     1.0  0.77848  0.44274  0.43199  1.0000
  C   C1068     1.0  0.75293  0.09816  0.31754  1.0000
  H   H1836     1.0  0.51479  0.37377  0.26800  1.0000
  H   H1837     1.0  0.79790  0.10316  0.26425  1.0000
  H   H1838     1.0  0.86430  0.40193  0.37424  1.0000
  H   H1839     1.0  0.86826  0.42801  0.35884  1.0000
  H   H1840     1.0  0.89212  0.40922  0.36434  1.0000
  H   H1841     1.0  0.83428  0.46282  0.44390  1.0000
  H   H1842     1.0  0.58857  0.41930  0.24729  1.0000
  H   H1843     1.0  0.72206  0.38605  0.28094  1.0000
  H   H1844     1.0  0.76056  0.13016  0.33028  1.0000
  H   H1845     1.0  0.87794  0.11511  0.37563  1.0000
  H   H1846     1.0  0.87783  0.08256  0.39769  1.0000
  H   H1847     1.0  0.93803  0.19499  0.48587  1.0000
  H   H1848     1.0  0.73591  0.35519  0.37757  1.0000
  C   C1069     1.0  0.50180  0.36162  0.26798  1.0000
  H   H1849     1.0  0.52072  0.14074  0.34150  1.0000
  H   H1850     1.0  0.67164  0.46638  0.25931  1.0000
  H   H1851     1.0  0.76216  0.05345  0.31345  1.0000
  H   H1852     1.0  0.86721  0.14864  0.39383  1.0000
  H   H1853     1.0  0.79490  0.45117  0.45267  1.0000
  H   H1854     1.0  0.85377  0.11694  0.36074  1.0000
  C   C1070     1.0  0.82393  0.09936  0.38598  1.0000
  H   H1855     1.0  0.93925  0.07710  0.24898  1.0000
  C   C1071     1.0  0.58495  0.02391  0.34928  1.0000
  H   H1856     1.0  0.81128  0.36982  0.26369  1.0000
  H   H1857     1.0  0.80075  0.01953  0.47012  1.0000
  H   H1858     1.0  0.62457  0.03758  0.36214  1.0000
  C   C1072     1.0  0.68666  0.43434  0.24800  1.0000
  H   H1859     1.0  0.53812  0.18671  0.25471  1.0000
  H   H1860     1.0  0.95314  0.16109  0.24126  1.0000
  H   H1861     1.0  0.64754  0.25454  0.24203  1.0000
  C   C1073     1.0  0.92182  0.07095  0.25077  1.0000
  H   H1862     1.0  0.74129  0.40480  0.24942  1.0000
  H   H1863     1.0  0.86402  0.38966  0.24559  1.0000
  H   H1864     1.0  0.53001  0.17494  0.32029  1.0000
  S   S252      1.0  0.76324  0.00848  0.38759  1.0000
  H   H1865     1.0  0.80844  0.30775  0.27007  1.0000
  N   N59       1.0  0.51102  0.18387  0.27836  1.0000
  H   H1866     1.0  0.87427  0.09524  0.43039  1.0000
  Fe  Fe126     1.0  0.61232  0.34011  0.24297  1.0000
  C   C1074     1.0  0.80722  0.12010  0.38492  1.0000
  H   H1867     1.0  0.65702  0.38446  0.25466  1.0000
  Fe  Fe127     1.0  0.60904  0.11004  0.24589  1.0000
  C   C1075     1.0  0.51569  0.16301  0.24380  1.0000
  H   H1868     1.0  0.50992  0.12821  0.31952  1.0000
  H   H1869     1.0  0.81403  0.36225  0.23740  1.0000
  C   C1076     1.0  0.51922  0.20477  0.28737  1.0000
  H   H1870     1.0  0.90965  0.08474  0.24595  1.0000
  C   C1077     1.0  0.91824  0.15691  0.24983  1.0000
  H   H1871     1.0  0.64178  0.02615  0.30591  1.0000
  C   C1078     1.0  0.86591  0.15908  0.36158  1.0000
  C   C1079     1.0  0.80589  0.13770  0.26697  1.0000
  H   H1872     1.0  0.64023  0.29690  0.23722  1.0000
  C   C1080     1.0  0.50862  0.09704  0.28130  1.0000
  H   H1873     1.0  0.70731  0.48157  0.26947  1.0000
  C   C1081     1.0  0.65995  0.00583  0.35561  1.0000
  C   C1082     1.0  0.74982  0.40361  0.26433  1.0000
  H   H1874     1.0  0.90200  0.04516  0.24026  1.0000
  H   H1875     1.0  0.60839  0.03119  0.27096  1.0000
  H   H1876     1.0  0.67115  0.01342  0.34299  1.0000
  C   C1083     1.0  0.84595  0.11149  0.41405  1.0000
  H   H1877     1.0  0.56859  0.03347  0.34680  1.0000
  H   H1878     1.0  0.87724  0.40823  0.47136  1.0000
  C   C1084     1.0  0.60357  0.42591  0.25405  1.0000
  H   H1879     1.0  0.52396  0.22926  0.26078  1.0000
  H   H1880     1.0  0.60668  0.00691  0.31491  1.0000
  C   C1085     1.0  0.59422  0.07197  0.35407  1.0000
  C   C1086     1.0  0.67340  0.38589  0.24563  1.0000
  C   C1087     1.0  0.73962  0.10966  0.28202  1.0000
  C   C1088     1.0  0.81429  0.44449  0.42378  1.0000
  H   H1881     1.0  0.86456  0.38345  0.46361  1.0000
  H   H1882     1.0  0.53795  0.20352  0.28835  1.0000
  H   H1883     1.0  0.74352  0.10780  0.26513  1.0000
  S   S253      1.0  0.78149  0.48659  0.38535  1.0000
  H   H1884     1.0  0.86912  0.44519  0.45114  1.0000
  N   N60       1.0  0.75909  0.10022  0.29449  1.0000
  C   C1089     1.0  0.97625  0.29839  0.48326  1.0000
  C   C1090     1.0  0.75501  0.36653  0.40197  1.0000
  C   C1091     1.0  0.52147  0.16363  0.29008  1.0000
  H   H1885     1.0  0.92053  0.15825  0.26667  1.0000
  H   H1886     1.0  0.68993  0.27977  0.24015  1.0000
  H   H1887     1.0  0.72724  0.39075  0.39527  1.0000
  C   C1092     1.0  0.85942  0.11930  0.37664  1.0000
  C   C1093     1.0  0.86309  0.06883  0.37194  1.0000
  H   H1888     1.0  0.88223  0.11888  0.41349  1.0000
  H   H1889     1.0  0.58798  0.02512  0.36607  1.0000
  H   H1890     1.0  0.84170  0.41657  0.45247  1.0000
  H   H1891     1.0  0.58295  0.10478  0.36475  1.0000
  N   N61       1.0  0.60391  0.03449  0.33590  1.0000
  H   H1892     1.0  0.64186  0.44804  0.25225  1.0000
  H   H1893     1.0  0.73942  0.08602  0.32120  1.0000
  H   H1894     1.0  0.67778  0.30621  0.24869  1.0000
  H   H1895     1.0  0.51178  0.19853  0.24673  1.0000
  H   H1896     1.0  0.73409  0.13127  0.31789  1.0000
  H   H1897     1.0  0.77699  0.03948  0.47082  1.0000
  N   N62       1.0  0.76394  0.33091  0.38117  1.0000
  C   C1094     1.0  0.77618  0.34274  0.36278  1.0000
  C   C1095     1.0  0.74615  0.34712  0.39015  1.0000
  C   C1096     1.0  0.78106  0.32345  0.39687  1.0000
  C   C1097     1.0  0.75245  0.31055  0.37477  1.0000
  C   C1098     1.0  0.73525  0.31527  0.35760  1.0000
  C   C1099     1.0  0.79208  0.32754  0.34898  1.0000
  C   C1100     1.0  0.77146  0.31233  0.41769  1.0000
  C   C1101     1.0  0.72586  0.29339  0.35116  1.0000
  C   C1102     1.0  0.80479  0.34147  0.33184  1.0000
  C   C1103     1.0  0.78942  0.31019  0.43386  1.0000
  H   H1898     1.0  0.78673  0.35597  0.36820  1.0000
  H   H1899     1.0  0.76404  0.35210  0.35250  1.0000
  H   H1900     1.0  0.73375  0.33808  0.40080  1.0000
  H   H1901     1.0  0.79138  0.33785  0.40032  1.0000
  H   H1902     1.0  0.79352  0.31087  0.39036  1.0000
  H   H1903     1.0  0.76516  0.29733  0.36971  1.0000
  H   H1904     1.0  0.74288  0.30254  0.38837  1.0000
  H   H1905     1.0  0.74301  0.32390  0.34345  1.0000
  H   H1906     1.0  0.80495  0.31814  0.35826  1.0000
  H   H1907     1.0  0.78239  0.31522  0.34127  1.0000
  H   H1908     1.0  0.76600  0.29513  0.41520  1.0000
  H   H1909     1.0  0.75678  0.32210  0.42445  1.0000
  H   H1910     1.0  0.73844  0.05755  0.29749  1.0000
  H   H1911     1.0  0.71718  0.28439  0.36470  1.0000
  H   H1912     1.0  0.79280  0.35108  0.32168  1.0000
  H   H1913     1.0  0.81576  0.35335  0.33875  1.0000
  H   H1914     1.0  0.81573  0.33013  0.32209  1.0000
  H   H1915     1.0  0.79455  0.32716  0.43765  1.0000
  H   H1916     1.0  0.78250  0.30151  0.44839  1.0000
  H   H1917     1.0  0.80456  0.30029  0.42801  1.0000
  C   C1104     1.0  0.50727  0.33873  0.27237  1.0000
  H   H1918     1.0  0.81761  0.42671  0.42885  1.0000
  H   H1919     1.0  0.72072  0.32608  0.36335  1.0000
  H   H1920     1.0  0.80127  0.40951  0.25433  1.0000
  H   H1921     1.0  0.82858  0.32418  0.25472  1.0000
  H   H1922     1.0  0.66870  0.28021  0.26143  1.0000
  H   H1923     1.0  0.73558  0.36912  0.23875  1.0000
  H   H1924     1.0  0.83025  0.47557  0.41874  1.0000
  C   C1105     1.0  0.75704  0.05623  0.29715  1.0000
  H   H1925     1.0  0.83507  0.10037  0.42439  1.0000
  H   H1926     1.0  0.72022  0.41623  0.28213  1.0000
  C   C1106     1.0  0.68137  0.05645  0.24846  1.0000
  C   C1107     1.0  0.78887  0.11906  0.26878  1.0000
  H   H1927     1.0  0.91789  0.06621  0.26745  1.0000
  H   H1928     1.0  0.81832  0.09476  0.47550  1.0000
  C   C1108     1.0  0.67415  0.28846  0.24621  1.0000
  H   H1929     1.0  0.71657  0.08186  0.28190  1.0000
  H   H1930     1.0  0.88918  0.39360  0.44917  1.0000
  H   H1931     1.0  0.78463  0.10579  0.36433  1.0000
  H   H1932     1.0  0.77206  0.12838  0.37914  1.0000
  C   C1109     1.0  0.77806  0.11639  0.29127  1.0000
  H   H1933     1.0  0.83953  0.15072  0.38440  1.0000
  C   C1110     1.0  0.51146  0.36868  0.32754  1.0000
  H   H1934     1.0  0.91907  0.13877  0.24647  1.0000
  H   H1935     1.0  0.70170  0.11305  0.25830  1.0000
  H   H1936     1.0  0.77785  0.38599  0.27878  1.0000
  H   H1937     1.0  0.79193  0.11113  0.30174  1.0000
  H   H1938     1.0  0.52088  0.10648  0.25016  1.0000
  H   H1939     1.0  0.93598  0.18700  0.24180  1.0000
  C   C1111     1.0  0.83455  0.45918  0.42714  1.0000
  H   H1940     1.0  0.50628  0.24774  0.30250  1.0000
  H   H1941     1.0  0.97529  0.36891  0.47962  1.0000
  C   C1112     1.0  0.50605  0.10398  0.26043  1.0000
  H   H1942     1.0  0.72301  0.37368  0.41924  1.0000
  H   H1943     1.0  0.81289  0.13229  0.37225  1.0000
  C   C1113     1.0  0.87192  0.48844  0.43112  1.0000
  C   C1114     1.0  0.58651  0.09658  0.34981  1.0000
  H   H1944     1.0  0.80530  0.12843  0.39988  1.0000
  C   C1115     1.0  0.76790  0.07765  0.28689  1.0000
  H   H1945     1.0  0.76344  0.36002  0.41614  1.0000
  N   N63       1.0  0.78284  0.38106  0.24583  1.0000
  C   C1116     1.0  0.76483  0.03522  0.28571  1.0000
  H   H1946     1.0  0.88387  0.15429  0.35749  1.0000
  H   H1947     1.0  0.76690  0.07733  0.26973  1.0000
  H   H1948     1.0  0.61006  0.07202  0.36241  1.0000
  H   H1949     1.0  0.63874  0.03046  0.26788  1.0000
  C   C1117     1.0  0.69786  0.11274  0.27536  1.0000
  H   H1950     1.0  0.68137  0.10483  0.27886  1.0000
  H   H1951     1.0  0.86250  0.14519  0.43802  1.0000
  H   H1952     1.0  0.52249  0.14745  0.25184  1.0000
  H   H1953     1.0  0.85314  0.12143  0.45461  1.0000
  H   H1954     1.0  0.71631  0.10897  0.34669  1.0000
  H   H1955     1.0  0.78621  0.07501  0.28968  1.0000
  H   H1956     1.0  0.51524  0.14764  0.28504  1.0000
  H   H1957     1.0  0.76734  0.37614  0.39192  1.0000
  C   C1118     1.0  0.64589  0.43018  0.24873  1.0000
  C   C1119     1.0  0.79283  0.45292  0.43564  1.0000
  H   H1958     1.0  0.82850  0.49086  0.36914  1.0000
  C   C1120     1.0  0.74545  0.12053  0.32773  1.0000
  H   H1959     1.0  0.58942  0.03030  0.30643  1.0000
  C   C1121     1.0  0.70625  0.46327  0.26728  1.0000
  H   H1960     1.0  0.72296  0.45674  0.26101  1.0000
  H   H1961     1.0  0.79737  0.15428  0.27010  1.0000
  H   H1962     1.0  0.64795  0.42111  0.26413  1.0000
  H   H1963     1.0  0.68554  0.42503  0.26349  1.0000
  C   C1122     1.0  0.87834  0.04748  0.37399  1.0000
  H   H1964     1.0  0.57088  0.09784  0.34104  1.0000
  H   H1965     1.0  0.60004  0.10582  0.34084  1.0000
  H   H1966     1.0  0.77597  0.12364  0.25733  1.0000
  H   H1967     1.0  0.60049  0.44429  0.25579  1.0000
  H   H1968     1.0  0.60556  0.41732  0.26964  1.0000
  H   H1969     1.0  0.51225  0.20623  0.30365  1.0000
  H   H1970     1.0  0.78756  0.38902  0.45788  1.0000
  H   H1971     1.0  0.85564  0.15678  0.34804  1.0000
  C   C1123     1.0  0.60533  0.02557  0.31436  1.0000
  H   H1972     1.0  0.98142  0.29157  0.46796  1.0000
  H   H1973     1.0  0.84665  0.06350  0.36720  1.0000
  C   C1124     1.0  0.78380  0.11329  0.37974  1.0000
  H   H1974     1.0  0.71112  0.09946  0.30375  1.0000
  H   H1975     1.0  0.87466  0.48088  0.44692  1.0000
  H   H1976     1.0  0.76766  0.09076  0.32597  1.0000
  H   H1977     1.0  0.73728  0.12819  0.28355  1.0000
  H   H1978     1.0  0.96793  0.31532  0.48042  1.0000
  S   S254      1.0  0.78804  0.01448  0.34055  1.0000
  C   C1125     1.0  0.73199  0.40123  0.28228  1.0000
  C   C1126     1.0  0.73566  0.38273  0.40896  1.0000
  H   H1979     1.0  0.68232  0.35014  0.24932  1.0000
  H   H1980     1.0  0.71339  0.29730  0.33911  1.0000
  H   H1981     1.0  0.74240  0.39621  0.41775  1.0000
  H   H1982     1.0  0.73964  0.28222  0.34455  1.0000
  H   H1983     1.0  0.82445  0.09280  0.37024  1.0000
  H   H1984     1.0  0.83726  0.12835  0.41463  1.0000
  C   C1127     1.0  0.86874  0.11245  0.42456  1.0000
  H   H1985     1.0  0.69610  0.13030  0.28044  1.0000
  C   C1128     1.0  0.71631  0.09932  0.28699  1.0000
  H   H1986     1.0  0.78870  0.47085  0.43096  1.0000
  H   H1987     1.0  0.77699  0.10092  0.39180  1.0000
  S   S255      1.0  0.87023  0.34427  0.26460  1.0000
  H   H1988     1.0  0.74010  0.39995  0.29745  1.0000
  H   H1989     1.0  0.51461  0.26361  0.27888  1.0000
  H   H1990     1.0  0.66423  0.05733  0.24235  1.0000
  H   H1991     1.0  0.77215  0.13359  0.29568  1.0000
  H   H1992     1.0  0.97733  0.13217  0.48348  1.0000
  C   C1129     1.0  0.59824  0.05956  0.33351  1.0000
  C   C1130     1.0  0.62608  0.03120  0.34625  1.0000
  N   N64       1.0  0.84749  0.10334  0.39226  1.0000
  C   C1131     1.0  0.62563  0.03309  0.29979  1.0000
  H   H1993     1.0  0.75727  0.02017  0.29387  1.0000
  H   H1994     1.0  0.78351  0.03277  0.28552  1.0000
  H   H1995     1.0  0.87955  0.03905  0.35901  1.0000
  H   H1996     1.0  0.85226  0.06888  0.40459  1.0000
  H   H1997     1.0  0.93101  0.03678  0.24421  1.0000
  C   C1132     1.0  0.73284  0.11623  0.34881  1.0000
  C   C1133     1.0  0.76755  0.38364  0.26516  1.0000
  H   H1998     1.0  0.90127  0.16439  0.24630  1.0000
  C   C1134     1.0  0.52236  0.14002  0.32432  1.0000
  S   S256      1.0  0.81549  0.36268  0.48568  1.0000
  H   H1999     1.0  0.58289  0.06280  0.32434  1.0000
  H   H2000     1.0  0.61189  0.06844  0.32447  1.0000
  H   H2001     1.0  0.63916  0.04161  0.33778  1.0000
  C   C1135     1.0  0.85714  0.14487  0.38059  1.0000
  H   H2002     1.0  0.87050  0.08002  0.35922  1.0000
  H   H2003     1.0  0.54006  0.16235  0.28637  1.0000
  H   H2004     1.0  0.62638  0.05162  0.29816  1.0000
  H   H2005     1.0  0.81930  0.33230  0.28046  1.0000
  H   H2006     1.0  0.53552  0.24692  0.29282  1.0000
  H   H2007     1.0  0.81610  0.08609  0.39665  1.0000
  C   C1136     1.0  0.78253  0.02178  0.47474  1.0000
  C   C1137     1.0  0.62419  0.02457  0.27801  1.0000
  C   C1138     1.0  0.51964  0.18409  0.25585  1.0000
  S   S257      1.0  0.85395  0.06293  0.23799  1.0000
  H   H2008     1.0  0.53966  0.13344  0.31984  1.0000
  H   H2009     1.0  0.68655  0.38907  0.25650  1.0000
  H   H2010     1.0  0.78039  0.33897  0.26886  1.0000
  H   H2011     1.0  0.68522  0.07331  0.25345  1.0000
  H   H2012     1.0  0.68146  0.04434  0.26223  1.0000
  C   C1139     1.0  0.63556  0.00660  0.34906  1.0000
  C   C1140     1.0  0.51772  0.24760  0.28826  1.0000
  C   C1141     1.0  0.80163  0.36392  0.25088  1.0000
  H   H2013     1.0  0.81391  0.13888  0.25099  1.0000
  C   C1142     1.0  0.51799  0.16353  0.31412  1.0000
  H   H2014     1.0  0.85589  0.22181  0.24252  1.0000
  C   C1143     1.0  0.79455  0.33954  0.25697  1.0000
  H   H2015     1.0  0.62633  0.40296  0.23806  1.0000
  H   H2016     1.0  0.92528  0.15705  0.47649  1.0000
  H   H2017     1.0  0.62402  0.18451  0.23792  1.0000
  C   C1144     1.0  0.81393  0.32514  0.26610  1.0000
  H   H2018     1.0  0.71574  0.04774  0.23882  1.0000
  H   H2019     1.0  0.90732  0.49704  0.42719  1.0000
  H   H2020     1.0  0.56652  0.27131  0.24524  1.0000
  H   H2021     1.0  0.70326  0.42863  0.24075  1.0000
  H   H2022     1.0  0.77426  0.01080  0.44470  1.0000
  H   H2023     1.0  0.85543  0.49807  0.43165  1.0000
  H   H2024     1.0  0.51764  0.36263  0.31217  1.0000
  H   H2025     1.0  0.69194  0.46981  0.23768  1.0000
  H   H2026     1.0  0.85397  0.01939  0.48490  1.0000
  C   C1145     1.0  0.91406  0.17254  0.47621  1.0000
  H   H2027     1.0  0.61974  0.22592  0.24101  1.0000
  C   C1146     1.0  0.76953  0.00696  0.46142  1.0000
  H   H2028     1.0  0.75105  0.01046  0.46391  1.0000
  H   H2029     1.0  0.89633  0.16800  0.48002  1.0000
  C   C1147     1.0  0.79342  0.40346  0.24050  1.0000
  H   H2030     1.0  0.78972  0.33140  0.24290  1.0000
  H   H2031     1.0  0.75384  0.34462  0.24213  1.0000
  H   H2032     1.0  0.51633  0.35589  0.33991  1.0000
  C   C1148     1.0  0.91963  0.05052  0.23784  1.0000
  S   S258      1.0  0.78789  0.46646  0.59173  1.0000
  C   C1149     1.0  0.85208  0.01061  0.50056  1.0000
  S   S259      1.0  0.83566  0.11500  0.51466  1.0000
  C   C1150     1.0  0.87034  0.49132  0.57061  1.0000
  Fe  Fe128     1.0  0.89761  0.10761  0.53185  1.0000
  S   S260      1.0  0.87021  0.12692  0.54988  1.0000
  S   S261      1.0  0.93236  0.10284  0.54514  1.0000
  Fe  Fe129     1.0  0.84823  0.09798  0.54431  1.0000
  S   S262      1.0  0.82570  0.07989  0.56934  1.0000
  Fe  Fe130     1.0  0.86063  0.14211  0.51868  1.0000
  H   H2033     1.0  0.78456  0.06190  0.49534  1.0000
  S   S263      1.0  0.87621  0.07798  0.52860  1.0000
  H   H2034     1.0  0.84519  0.43128  0.52332  1.0000
  Fe  Fe131     1.0  0.86362  0.36276  0.54415  1.0000
  S   S264      1.0  0.86993  0.37542  0.51117  1.0000
  S   S265      1.0  0.86211  0.38892  0.56920  1.0000
  Fe  Fe132     1.0  0.86698  0.31232  0.53151  1.0000
  C   C1151     1.0  0.78498  0.02010  0.53481  1.0000
  S   S266      1.0  0.86693  0.27597  0.54617  1.0000
  Fe  Fe133     1.0  0.89662  0.34749  0.50878  1.0000
  C   C1152     1.0  0.93364  0.25685  0.53397  1.0000
  Fe  Fe134     1.0  0.84583  0.34974  0.50329  1.0000
  H   H2035     1.0  0.88581  0.48875  0.56035  1.0000
  S   S267      1.0  0.89202  0.33608  0.54241  1.0000
  S   S268      1.0  0.83812  0.33798  0.53664  1.0000
  H   H2036     1.0  0.95343  0.45170  0.56310  1.0000
  S   S269      1.0  0.85580  0.17964  0.50801  1.0000
  C   C1153     1.0  0.85947  0.20612  0.51902  1.0000
  C   C1154     1.0  0.86176  0.20810  0.54031  1.0000
  C   C1155     1.0  0.86421  0.22950  0.54824  1.0000
  C   C1156     1.0  0.86422  0.24932  0.53511  1.0000
  C   C1157     1.0  0.86212  0.24730  0.51379  1.0000
  C   C1158     1.0  0.77778  0.01579  0.49826  1.0000
  H   H2037     1.0  0.86124  0.19318  0.55072  1.0000
  H   H2038     1.0  0.86573  0.23077  0.56476  1.0000
  C   C1159     1.0  0.77910  0.05389  0.51072  1.0000
  C   C1160     1.0  0.94889  0.43483  0.57017  1.0000
  H   H2039     1.0  0.91210  0.43601  0.49981  1.0000
  C   C1161     1.0  0.95730  0.11965  0.51033  1.0000
  C   C1162     1.0  0.95740  0.11145  0.53110  1.0000
  C   C1163     1.0  0.97795  0.10987  0.54102  1.0000
  H   H2040     1.0  0.79046  0.42021  0.62383  1.0000
  H   H2041     1.0  0.80406  0.07102  0.52774  1.0000
  H   H2042     1.0  0.94827  0.41674  0.50772  1.0000
  H   H2043     1.0  0.97825  0.10358  0.55708  1.0000
  H   H2044     1.0  0.79200  0.00244  0.53620  1.0000
  C   C1164     1.0  0.97626  0.34485  0.53661  1.0000
  C   C1165     1.0  0.95611  0.34530  0.52612  1.0000
  C   C1166     1.0  0.95559  0.35413  0.50560  1.0000
  H   H2045     1.0  0.80375  0.49266  0.55432  1.0000
  H   H2046     1.0  0.78285  0.10074  0.50713  1.0000
  H   H2047     1.0  0.97643  0.33818  0.55258  1.0000
  H   H2048     1.0  0.94098  0.33886  0.53395  1.0000
  H   H2049     1.0  0.95550  0.39221  0.57790  1.0000
  C   C1167     1.0  0.92635  0.43784  0.58330  1.0000
  C   C1168     1.0  0.81012  0.44693  0.58410  1.0000
  C   C1169     1.0  0.83021  0.44409  0.59449  1.0000
  C   C1170     1.0  0.84628  0.42675  0.58927  1.0000
  C   C1171     1.0  0.84272  0.41228  0.57335  1.0000
  C   C1172     1.0  0.82317  0.41587  0.56227  1.0000
  C   C1173     1.0  0.80683  0.43280  0.56786  1.0000
  H   H2050     1.0  0.83298  0.45471  0.60709  1.0000
  H   H2051     1.0  0.86131  0.42418  0.59799  1.0000
  H   H2052     1.0  0.82032  0.40515  0.54981  1.0000
  H   H2053     1.0  0.79141  0.43485  0.55965  1.0000
  H   H2054     1.0  0.00018  0.16839  0.52330  1.0000
  C   C1174     1.0  0.83708  0.03493  0.56186  1.0000
  C   C1175     1.0  0.82395  0.05014  0.57374  1.0000
  C   C1176     1.0  0.80878  0.04152  0.58947  1.0000
  C   C1177     1.0  0.80653  0.01804  0.59316  1.0000
  H   H2055     1.0  0.84878  0.04120  0.54968  1.0000
  H   H2056     1.0  0.79855  0.05308  0.59880  1.0000
  H   H2057     1.0  0.83465  0.48859  0.57059  1.0000
  C   C1178     1.0  0.84540  0.46524  0.50857  1.0000
  H   H2058     1.0  0.79760  0.40779  0.64889  1.0000
  H   H2059     1.0  0.76229  0.49875  0.55885  1.0000
  H   H2060     1.0  0.91303  0.15021  0.54638  1.0000
  H   H2061     1.0  0.75721  0.09427  0.52255  1.0000
  N   N65       1.0  0.93235  0.19128  0.53013  1.0000
  C   C1179     1.0  0.97260  0.41902  0.54195  1.0000
  H   H2062     1.0  0.78082  0.10517  0.53457  1.0000
  C   C1180     1.0  0.83482  0.01150  0.56553  1.0000
  H   H2063     1.0  0.77478  0.38218  0.63135  1.0000
  H   H2064     1.0  0.75577  0.36663  0.59878  1.0000
  C   C1181     1.0  0.79279  0.38335  0.62594  1.0000
  H   H2065     1.0  0.72971  0.32732  0.61220  1.0000
  H   H2066     1.0  0.73432  0.32534  0.63964  1.0000
  H   H2067     1.0  0.91556  0.38247  0.55159  1.0000
  H   H2068     1.0  0.77042  0.32051  0.61945  1.0000
  S   S270      1.0  0.88907  0.12372  0.50091  1.0000
  H   H2069     1.0  0.93332  0.44332  0.53335  1.0000
  C   C1182     1.0  0.92149  0.17826  0.51411  1.0000
  H   H2070     1.0  0.93824  0.15270  0.56005  1.0000
  H   H2071     1.0  0.93596  0.22187  0.51022  1.0000
  H   H2072     1.0  0.82150  0.46419  0.53543  1.0000
  C   C1183     1.0  0.73731  0.33569  0.62492  1.0000
  H   H2073     1.0  0.92852  0.01813  0.52451  1.0000
  H   H2074     1.0  0.94166  0.12080  0.50244  1.0000
  H   H2075     1.0  0.72222  0.49415  0.71755  1.0000
  H   H2076     1.0  0.91475  0.42347  0.54528  1.0000
  H   H2077     1.0  0.96437  0.19204  0.54459  1.0000
  N   N66       1.0  0.90617  0.04545  0.59066  1.0000
  H   H2078     1.0  0.92945  0.16096  0.51347  1.0000
  C   C1184     1.0  0.92833  0.05467  0.59618  1.0000
  C   C1185     1.0  0.88719  0.06068  0.59926  1.0000
  C   C1186     1.0  0.90467  0.04584  0.56740  1.0000
  C   C1187     1.0  0.92151  0.02988  0.55556  1.0000
  H   H2079     1.0  0.98472  0.03719  0.60339  1.0000
  C   C1188     1.0  0.88817  0.08607  0.59227  1.0000
  C   C1189     1.0  0.94860  0.03758  0.59940  1.0000
  C   C1190     1.0  0.97060  0.04972  0.60057  1.0000
  H   H2080     1.0  0.99481  0.42737  0.56661  1.0000
  C   C1191     1.0  0.93324  0.41213  0.51786  1.0000
  C   C1192     1.0  0.87041  0.10016  0.60452  1.0000
  C   C1193     1.0  0.99352  0.41430  0.55521  1.0000
  H   H2081     1.0  0.90472  0.35843  0.58250  1.0000
  H   H2082     1.0  0.93386  0.06792  0.58423  1.0000
  H   H2083     1.0  0.92614  0.06341  0.61106  1.0000
  H   H2084     1.0  0.88645  0.05924  0.61660  1.0000
  H   H2085     1.0  0.87052  0.05554  0.59456  1.0000
  H   H2086     1.0  0.85995  0.02068  0.51198  1.0000
  H   H2087     1.0  0.90776  0.06302  0.56042  1.0000
  C   C1194     1.0  0.92679  0.45796  0.59697  1.0000
  H   H2088     1.0  0.93433  0.39369  0.52142  1.0000
  H   H2089     1.0  0.85085  0.46864  0.55516  1.0000
  H   H2090     1.0  0.90329  0.19214  0.55187  1.0000
  H   H2091     1.0  0.88465  0.08847  0.57559  1.0000
  H   H2092     1.0  0.90484  0.09298  0.59444  1.0000
  C   C1195     1.0  0.95711  0.18460  0.53115  1.0000
  H   H2093     1.0  0.81016  0.47381  0.51175  1.0000
  Fe  Fe135     1.0  0.86485  0.09590  0.49927  1.0000
  C   C1196     1.0  0.99824  0.11622  0.53026  1.0000
  H   H2094     1.0  0.87158  0.47966  0.58464  1.0000
  C   C1197     1.0  0.79530  0.38126  0.60216  1.0000
  C   C1198     1.0  0.77594  0.09400  0.52251  1.0000
  H   H2095     1.0  0.99278  0.39751  0.56365  1.0000
  H   H2096     1.0  0.93922  0.26787  0.54584  1.0000
  H   H2097     1.0  0.77866  0.06454  0.54304  1.0000
  H   H2098     1.0  0.94097  0.45579  0.60754  1.0000
  H   H2099     1.0  0.87075  0.11807  0.59863  1.0000
  H   H2100     1.0  0.85323  0.09414  0.60272  1.0000
  H   H2101     1.0  0.87390  0.09923  0.62129  1.0000
  C   C1199     1.0  0.76269  0.33786  0.62030  1.0000
  H   H2102     1.0  0.96856  0.17856  0.49913  1.0000
  C   C1200     1.0  0.92088  0.15989  0.55799  1.0000
  H   H2103     1.0  0.80315  0.37021  0.63436  1.0000
  H   H2104     1.0  0.81771  0.04055  0.49299  1.0000
  H   H2105     1.0  0.90979  0.22026  0.52456  1.0000
  H   H2106     1.0  0.96165  0.43006  0.58178  1.0000
  H   H2107     1.0  0.97464  0.05948  0.58569  1.0000
  H   H2108     1.0  0.78322  0.39417  0.59546  1.0000
  C   C1201     1.0  0.85973  0.22590  0.50586  1.0000
  H   H2109     1.0  0.80578  0.33772  0.61976  1.0000
  H   H2110     1.0  0.92077  0.01224  0.56201  1.0000
  C   C1202     1.0  0.90313  0.02216  0.60081  1.0000
  H   H2111     1.0  0.89681  0.41438  0.51474  1.0000
  H   H2112     1.0  0.84549  0.47249  0.49232  1.0000
  H   H2113     1.0  0.86164  0.46830  0.51532  1.0000
  H   H2114     1.0  0.76048  0.36921  0.56187  1.0000
  H   H2115     1.0  0.81857  0.40808  0.62757  1.0000
  H   H2116     1.0  0.91843  0.04710  0.52501  1.0000
  H   H2117     1.0  0.92951  0.19343  0.56367  1.0000
  H   H2118     1.0  0.95506  0.22869  0.54390  1.0000
  C   C1203     1.0  0.81411  0.03068  0.50793  1.0000
  C   C1204     1.0  0.93684  0.23210  0.54152  1.0000
  H   H2119     1.0  0.91071  0.45936  0.60661  1.0000
  H   H2120     1.0  0.80021  0.37964  0.53054  1.0000
  H   H2121     1.0  0.91535  0.16479  0.59119  1.0000
  H   H2122     1.0  0.72881  0.35257  0.62672  1.0000
  H   H2123     1.0  0.91095  0.39841  0.57408  1.0000
  C   C1205     1.0  0.92230  0.36411  0.58029  1.0000
  N   N67       1.0  0.79161  0.35840  0.59430  1.0000
  H   H2124     1.0  0.92380  0.42271  0.59393  1.0000
  C   C1206     1.0  0.97235  0.18990  0.51144  1.0000
  C   C1207     1.0  0.92110  0.18538  0.55122  1.0000
  C   C1208     1.0  0.91646  0.02998  0.53258  1.0000
  C   C1209     1.0  0.76759  0.35150  0.59937  1.0000
  H   H2125     1.0  0.90773  0.13773  0.58320  1.0000
  H   H2126     1.0  0.95942  0.16604  0.53420  1.0000
  C   C1210     1.0  0.99608  0.35320  0.52671  1.0000
  H   H2127     1.0  0.76957  0.34559  0.63363  1.0000
  H   H2128     1.0  0.90367  0.02279  0.61802  1.0000
  H   H2129     1.0  0.88975  0.16238  0.57759  1.0000
  H   H2130     1.0  0.80519  0.32406  0.59616  1.0000
  H   H2131     1.0  0.90336  0.17575  0.51877  1.0000
  H   H2132     1.0  0.94574  0.02745  0.61428  1.0000
  C   C1211     1.0  0.80824  0.34056  0.60267  1.0000
  C   C1212     1.0  0.79547  0.36005  0.57088  1.0000
  C   C1213     1.0  0.83366  0.34516  0.59840  1.0000
  C   C1214     1.0  0.84862  0.32565  0.60713  1.0000
  C   C1215     1.0  0.78304  0.37375  0.53508  1.0000
  H   H2133     1.0  0.92715  0.23005  0.55669  1.0000
  H   H2134     1.0  0.79600  0.34288  0.56471  1.0000
  H   H2135     1.0  0.81212  0.36722  0.56634  1.0000
  H   H2136     1.0  0.81224  0.38699  0.59666  1.0000
  H   H2137     1.0  0.83820  0.34700  0.58155  1.0000
  H   H2138     1.0  0.83810  0.36063  0.60580  1.0000
  S   S271      1.0  0.93034  0.35567  0.49218  1.0000
  H   H2139     1.0  0.86666  0.32948  0.60384  1.0000
  H   H2140     1.0  0.84546  0.32314  0.62422  1.0000
  H   H2141     1.0  0.84545  0.30982  0.59961  1.0000
  H   H2142     1.0  0.91553  0.26118  0.53148  1.0000
  H   H2143     1.0  0.78197  0.35623  0.53021  1.0000
  H   H2144     1.0  0.77061  0.38470  0.52652  1.0000
  H   H2145     1.0  0.94373  0.26035  0.51920  1.0000
  C   C1216     1.0  0.77792  0.37485  0.55852  1.0000
  H   H2146     1.0  0.82260  0.48706  0.70398  1.0000
  C   C1217     1.0  0.82491  0.47544  0.52131  1.0000
  H   H2147     1.0  0.76219  0.34042  0.58735  1.0000
  C   C1218     1.0  0.92262  0.38596  0.56658  1.0000
  H   H2148     1.0  0.82229  0.03988  0.51977  1.0000
  S   S272      1.0  0.87300  0.32264  0.49752  1.0000
  H   H2149     1.0  0.77827  0.39277  0.56228  1.0000
  C   C1219     1.0  0.80032  0.40627  0.63185  1.0000
  C   C1220     1.0  0.90758  0.15607  0.57879  1.0000
  H   H2150     1.0  0.91159  0.44082  0.57360  1.0000
  H   H2151     1.0  0.95602  0.38185  0.55285  1.0000
  H   H2152     1.0  0.88724  0.04242  0.56336  1.0000
  C   C1221     1.0  0.93206  0.42507  0.53812  1.0000
  H   H2153     1.0  0.93296  0.35064  0.57285  1.0000
  H   H2154     1.0  0.91723  0.01031  0.59617  1.0000
  H   H2155     1.0  0.86208  0.26227  0.50343  1.0000
  H   H2156     1.0  0.75081  0.03578  0.54106  1.0000
  C   C1222     1.0  0.97757  0.12600  0.49958  1.0000
  C   C1223     1.0  0.91255  0.41794  0.50524  1.0000
  H   H2157     1.0  0.95106  0.02577  0.58677  1.0000
  H   H2158     1.0  0.99045  0.30765  0.51100  1.0000
  H   H2159     1.0  0.96927  0.06138  0.61347  1.0000
  H   H2160     1.0  0.93891  0.03576  0.55615  1.0000
  H   H2161     1.0  0.79430  0.02926  0.54590  1.0000
  C   C1224     1.0  0.99817  0.12418  0.50942  1.0000
  C   C1225     1.0  0.94702  0.39430  0.56289  1.0000
  N   N68       1.0  0.94968  0.41796  0.55347  1.0000
  H   H2162     1.0  0.92859  0.47388  0.58722  1.0000
  H   H2163     1.0  0.86585  0.02022  0.60206  1.0000
  H   H2164     1.0  0.92852  0.36682  0.59582  1.0000
  H   H2165     1.0  0.97433  0.40628  0.52989  1.0000
  C   C1226     1.0  0.84393  0.43972  0.50758  1.0000
  H   H2166     1.0  0.79835  0.49838  0.69026  1.0000
  H   H2167     1.0  0.85785  0.22469  0.48939  1.0000
  C   C1227     1.0  0.84928  0.48651  0.55933  1.0000
  C   C1228     1.0  0.92828  0.21633  0.52561  1.0000
  C   C1229     1.0  0.92131  0.18906  0.49156  1.0000
  H   H2168     1.0  0.89902  0.02463  0.53078  1.0000
  N   N69       1.0  0.78899  0.03006  0.51293  1.0000
  H   H2169     1.0  0.97022  0.20770  0.50556  1.0000
  C   C1230     1.0  0.97553  0.36215  0.49555  1.0000
  H   H2170     1.0  0.76035  0.05407  0.51066  1.0000
  H   H2171     1.0  0.79469  0.01170  0.60523  1.0000
  H   H2172     1.0  0.90905  0.20379  0.49102  1.0000
  C   C1231     1.0  0.78549  0.07008  0.52729  1.0000
  H   H2173     1.0  0.85813  0.43303  0.49745  1.0000
  H   H2174     1.0  0.77931  0.49037  0.52386  1.0000
  C   C1232     1.0  0.99676  0.30035  0.49623  1.0000
  H   H2175     1.0  0.97444  0.43580  0.53350  1.0000
  C   C1233     1.0  0.99722  0.18551  0.51588  1.0000
  H   H2176     1.0  0.91332  0.40750  0.49145  1.0000
  H   H2177     1.0  0.75108  0.00678  0.53438  1.0000
  H   H2178     1.0  0.99654  0.26620  0.50964  1.0000
  C   C1234     1.0  0.81943  0.00286  0.58108  1.0000
  H   H2179     1.0  0.82781  0.43545  0.50111  1.0000
  H   H2180     1.0  0.96373  0.28733  0.49162  1.0000
  C   C1235     1.0  0.75795  0.01160  0.56596  1.0000
  N   N70       1.0  0.82643  0.49948  0.52726  1.0000
  H   H2181     1.0  0.75910  0.01725  0.50101  1.0000
  C   C1236     1.0  0.75989  0.01914  0.54291  1.0000
  H   H2182     1.0  0.76438  0.02466  0.57543  1.0000
  C   C1237     1.0  0.99575  0.36167  0.50605  1.0000
  C   C1238     1.0  0.88114  0.01062  0.59622  1.0000
  C   C1239     1.0  0.82714  0.00752  0.50682  1.0000
  H   H2183     1.0  0.73996  0.00920  0.57095  1.0000
  H   H2184     1.0  0.88015  0.00884  0.57928  1.0000
  H   H2185     1.0  0.84503  0.99993  0.55621  1.0000
  Fe  Fe136     1.0  0.60568  0.10316  0.92267  1.0000
  S   S273      1.0  0.59778  0.09147  0.95575  1.0000
  S   S274      1.0  0.60753  0.07465  0.90010  1.0000
  Fe  Fe137     1.0  0.60555  0.15344  0.93455  1.0000
  S   S275      1.0  0.59854  0.14424  0.96853  1.0000
  S   S276      1.0  0.60711  0.18998  0.92087  1.0000
  Fe  Fe138     1.0  0.62369  0.11527  0.96352  1.0000
  C   C1240     1.0  0.66595  0.02135  0.89053  1.0000
  Fe  Fe139     1.0  0.57310  0.12119  0.95742  1.0000
  C   C1241     1.0  0.68262  0.39349  0.85990  1.0000
  S   S277      1.0  0.63285  0.12597  0.93017  1.0000
  S   S278      1.0  0.57881  0.13152  0.92363  1.0000
  Fe  Fe140     1.0  0.61460  0.32245  0.95056  1.0000
  C   C1242     1.0  0.61539  0.05198  0.82451  1.0000
  S   S279      1.0  0.62828  0.28564  0.95479  1.0000
  Fe  Fe141     1.0  0.61126  0.36967  0.92840  1.0000
  S   S280      1.0  0.58691  0.38317  0.95302  1.0000
  S   S281      1.0  0.62063  0.39337  0.90018  1.0000
  C   C1243     1.0  0.52409  0.26534  0.97834  1.0000
  H   H2186     1.0  0.68137  0.40446  0.87327  1.0000
  Fe  Fe142     1.0  0.56977  0.35033  0.95292  1.0000
  S   S282      1.0  0.53331  0.34427  0.96371  1.0000
  S   S283      1.0  0.63567  0.35347  0.95089  1.0000
  S   S284      1.0  0.59195  0.33770  0.92615  1.0000
  S   S285      1.0  0.69355  0.46895  0.88520  1.0000
  C   C1244     1.0  0.66849  0.41582  0.97320  1.0000
  H   H2187     1.0  0.64941  0.34143  0.90841  1.0000
  H   H2188     1.0  0.74901  0.35892  0.84726  1.0000
  H   H2189     1.0  0.64701  0.29836  0.88459  1.0000
  C   C1245     1.0  0.63857  0.41676  0.89862  1.0000
  C   C1246     1.0  0.63679  0.43305  0.88200  1.0000
  C   C1247     1.0  0.65262  0.45007  0.87846  1.0000
  C   C1248     1.0  0.67082  0.45068  0.89125  1.0000
  C   C1249     1.0  0.67214  0.43490  0.90834  1.0000
  C   C1250     1.0  0.65587  0.41836  0.91225  1.0000
  H   H2190     1.0  0.62343  0.43211  0.87138  1.0000
  H   H2191     1.0  0.65138  0.46199  0.86521  1.0000
  H   H2192     1.0  0.68609  0.43522  0.91838  1.0000
  H   H2193     1.0  0.65723  0.40624  0.92529  1.0000
  H   H2194     1.0  0.53144  0.24169  0.93186  1.0000
  C   C1251     1.0  0.50510  0.06495  0.93683  1.0000
  H   H2195     1.0  0.50132  0.16618  0.89438  1.0000
  H   H2196     1.0  0.52940  0.12511  0.93134  1.0000
  H   H2197     1.0  0.65581  0.37329  0.87284  1.0000
  C   C1252     1.0  0.61125  0.21652  0.93143  1.0000
  C   C1253     1.0  0.60862  0.23635  0.91858  1.0000
  C   C1254     1.0  0.61264  0.25771  0.92578  1.0000
  C   C1255     1.0  0.61967  0.25959  0.94592  1.0000
  C   C1256     1.0  0.62174  0.23983  0.95896  1.0000
  C   C1257     1.0  0.61738  0.21846  0.95188  1.0000
  H   H2198     1.0  0.60383  0.23511  0.90277  1.0000
  H   H2199     1.0  0.61108  0.27258  0.91544  1.0000
  H   H2200     1.0  0.67272  0.20870  0.97806  1.0000
  H   H2201     1.0  0.61924  0.20347  0.96204  1.0000
  C   C1258     1.0  0.62041  0.49048  0.94943  1.0000
  C   C1259     1.0  0.62600  0.03291  0.89010  1.0000
  C   C1260     1.0  0.63017  0.05405  0.89753  1.0000
  C   C1261     1.0  0.65233  0.05860  0.90170  1.0000
  C   C1262     1.0  0.67009  0.04245  0.89801  1.0000
  H   H2202     1.0  0.53597  0.30017  0.94983  1.0000
  H   H2203     1.0  0.60893  0.02912  0.88694  1.0000
  H   H2204     1.0  0.65587  0.07479  0.90733  1.0000
  H   H2205     1.0  0.65867  0.18212  0.96184  1.0000
  H   H2206     1.0  0.68105  0.03973  0.84004  1.0000
  H   H2207     1.0  0.65498  0.29992  0.91119  1.0000
  H   H2208     1.0  0.64041  0.34049  0.88241  1.0000
  H   H2209     1.0  0.57362  0.28960  0.93244  1.0000
  C   C1263     1.0  0.54846  0.20971  0.93797  1.0000
  H   H2210     1.0  0.57922  0.27880  0.96478  1.0000
  N   N71       1.0  0.64701  0.02051  0.81743  1.0000
  S   S286      1.0  0.53904  0.11748  0.97505  1.0000
  C   C1264     1.0  0.62424  0.46912  0.93671  1.0000
  C   C1265     1.0  0.67609  0.49299  0.78976  1.0000
  C   C1266     1.0  0.50685  0.34970  0.92930  1.0000
  H   H2211     1.0  0.70052  0.39239  0.85403  1.0000
  C   C1267     1.0  0.66568  0.16459  0.96315  1.0000
  H   H2212     1.0  0.59783  0.04566  0.97890  1.0000
  S   S287      1.0  0.65337  0.10174  0.98164  1.0000
  H   H2213     1.0  0.66980  0.16384  0.92958  1.0000
  C   C1268     1.0  0.64370  0.01654  0.88694  1.0000
  C   C1269     1.0  0.51360  0.12336  0.94034  1.0000
  H   H2214     1.0  0.59651  0.45046  0.95198  1.0000
  C   C1270     1.0  0.68016  0.16031  0.94330  1.0000
  C   C1271     1.0  0.65243  0.04426  0.96923  1.0000
  H   H2215     1.0  0.62979  0.48682  0.96368  1.0000
  H   H2216     1.0  0.61864  0.43317  0.94004  1.0000
  C   C1272     1.0  0.71157  0.02642  0.82522  1.0000
  H   H2217     1.0  0.54682  0.31703  0.91502  1.0000
  H   H2218     1.0  0.71262  0.34734  0.91770  1.0000
  H   H2219     1.0  0.67128  0.45173  0.97024  1.0000
  C   C1273     1.0  0.53713  0.23151  0.94567  1.0000
  H   H2220     1.0  0.69468  0.17151  0.94177  1.0000
  H   H2221     1.0  0.60244  0.03919  0.82713  1.0000
  C   C1274     1.0  0.67942  0.15963  0.98284  1.0000
  H   H2222     1.0  0.70828  0.35671  0.84054  1.0000
  H   H2223     1.0  0.62315  0.44571  0.96413  1.0000
  H   H2224     1.0  0.51005  0.25959  0.96952  1.0000
  C   C1275     1.0  0.55000  0.29976  0.90948  1.0000
  C   C1276     1.0  0.71576  0.34470  0.85231  1.0000
  H   H2225     1.0  0.56110  0.26678  0.92075  1.0000
  H   H2226     1.0  0.57013  0.24517  0.94936  1.0000
  H   H2227     1.0  0.68719  0.04635  0.90101  1.0000
  C   C1277     1.0  0.67110  0.03774  0.95310  1.0000
  H   H2228     1.0  0.59212  0.07848  0.83566  1.0000
  H   H2229     1.0  0.53433  0.29409  0.90317  1.0000
  C   C1278     1.0  0.52852  0.06213  0.94559  1.0000
  H   H2230     1.0  0.61558  0.47082  0.92189  1.0000
  H   H2231     1.0  0.64161  0.03968  0.84506  1.0000
  H   H2232     1.0  0.52224  0.35243  0.91989  1.0000
  H   H2233     1.0  0.67969  0.05310  0.94682  1.0000
  H   H2234     1.0  0.50739  0.07092  0.92022  1.0000
  H   H2235     1.0  0.56344  0.30041  0.89678  1.0000
  C   C1279     1.0  0.55763  0.28354  0.92722  1.0000
  H   H2236     1.0  0.64256  0.46571  0.93314  1.0000
  H   H2237     1.0  0.64165  0.03442  0.78632  1.0000
  H   H2238     1.0  0.64974  0.00902  0.97762  1.0000
  H   H2239     1.0  0.51097  0.30061  0.97652  1.0000
  C   C1280     1.0  0.53935  0.28252  0.94538  1.0000
  H   H2240     1.0  0.52328  0.27774  0.93909  1.0000
  H   H2241     1.0  0.68743  0.32145  0.89520  1.0000
  C   C1281     1.0  0.63638  0.01976  0.79675  1.0000
  H   H2242     1.0  0.67872  0.37562  0.94428  1.0000
  H   H2243     1.0  0.69465  0.43641  0.98157  1.0000
  H   H2244     1.0  0.66055  0.05082  0.98256  1.0000
  H   H2245     1.0  0.69478  0.38360  0.90020  1.0000
  H   H2246     1.0  0.55554  0.19910  0.95100  1.0000
  H   H2247     1.0  0.56225  0.21365  0.92614  1.0000
  C   C1282     1.0  0.60907  0.07094  0.83905  1.0000
  H   H2248     1.0  0.66388  0.02966  0.94004  1.0000
  H   H2249     1.0  0.53597  0.19986  0.93060  1.0000
  S   S288      1.0  0.59167  0.33383  0.97715  1.0000
  H   H2250     1.0  0.64978  0.41529  0.97375  1.0000
  C   C1283     1.0  0.69516  0.35400  0.92121  1.0000
  H   H2251     1.0  0.67658  0.03399  0.80077  1.0000
  C   C1284     1.0  0.65200  0.33247  0.89387  1.0000
  H   H2252     1.0  0.65085  0.05594  0.82252  1.0000
  H   H2253     1.0  0.68445  0.33960  0.92606  1.0000
  C   C1285     1.0  0.50772  0.34588  0.95086  1.0000
  H   H2254     1.0  0.69306  0.48716  0.92646  1.0000
  H   H2255     1.0  0.61218  0.00252  0.76575  1.0000
  H   H2256     1.0  0.53747  0.07813  0.94283  1.0000
  H   H2257     1.0  0.68648  0.14241  0.94339  1.0000
  H   H2258     1.0  0.70225  0.35841  0.95336  1.0000
  H   H2259     1.0  0.74393  0.33654  0.83067  1.0000
  C   C1286     1.0  0.55349  0.24439  0.95818  1.0000
  C   C1287     1.0  0.67232  0.02065  0.81306  1.0000
  H   H2260     1.0  0.61448  0.05923  0.80828  1.0000
  H   H2261     1.0  0.72020  0.34038  0.88511  1.0000
  H   H2262     1.0  0.62685  0.30842  0.90420  1.0000
  H   H2263     1.0  0.66783  0.37306  0.90660  1.0000
  H   H2264     1.0  0.62151  0.08439  0.83704  1.0000
  H   H2265     1.0  0.62737  0.02082  0.96271  1.0000
  H   H2266     1.0  0.60845  0.06424  0.85549  1.0000
  H   H2267     1.0  0.69401  0.49578  0.79257  1.0000
  H   H2268     1.0  0.68193  0.49159  0.75684  1.0000
  C   C1288     1.0  0.63963  0.04200  0.82796  1.0000
  H   H2269     1.0  0.67136  0.39594  0.82822  1.0000
  H   H2270     1.0  0.70723  0.38287  0.93612  1.0000
  C   C1289     1.0  0.67687  0.33291  0.88505  1.0000
  H   H2271     1.0  0.67715  0.32471  0.86998  1.0000
  H   H2272     1.0  0.53880  0.04863  0.93783  1.0000
  H   H2273     1.0  0.67329  0.47466  0.79203  1.0000
  N   N72       1.0  0.68675  0.35586  0.88207  1.0000
  H   H2274     1.0  0.67485  0.42265  0.83933  1.0000
  C   C1290     1.0  0.51357  0.11976  0.96196  1.0000
  H   H2275     1.0  0.67509  0.41456  0.95686  1.0000
  H   H2276     1.0  0.68383  0.02591  0.96028  1.0000
  H   H2277     1.0  0.60979  0.00919  0.84787  1.0000
  C   C1291     1.0  0.64490  0.30828  0.89869  1.0000
  H   H2278     1.0  0.70868  0.32797  0.85090  1.0000
  Fe  Fe143     1.0  0.61036  0.36571  0.97548  1.0000
  C   C1292     1.0  0.71124  0.35289  0.87466  1.0000
  H   H2279     1.0  0.74946  0.32990  0.85757  1.0000
  H   H2280     1.0  0.50127  0.03133  0.92720  1.0000
  C   C1293     1.0  0.69587  0.36869  0.93982  1.0000
  H   H2281     1.0  0.72017  0.36883  0.87566  1.0000
  H   H2282     1.0  0.69605  0.16752  0.97997  1.0000
  H   H2283     1.0  0.66577  0.49194  0.95617  1.0000
  H   H2284     1.0  0.67153  0.36061  0.85227  1.0000
  H   H2285     1.0  0.62695  0.24111  0.97460  1.0000
  C   C1294     1.0  0.74111  0.34240  0.84669  1.0000
  H   H2286     1.0  0.65131  0.15323  0.96362  1.0000
  H   H2287     1.0  0.65076  0.40637  0.84752  1.0000
  C   C1295     1.0  0.68556  0.36767  0.90220  1.0000
  C   C1296     1.0  0.67340  0.36997  0.86647  1.0000
  H   H2288     1.0  0.52710  0.05808  0.96263  1.0000
  H   H2289     1.0  0.60225  0.49170  0.95492  1.0000
  C   C1297     1.0  0.66902  0.40525  0.84267  1.0000
  H   H2290     1.0  0.64176  0.05806  0.96194  1.0000
  H   H2291     1.0  0.55683  0.23332  0.97226  1.0000
  C   C1298     1.0  0.63782  0.02389  0.97604  1.0000
  H   H2292     1.0  0.65289  0.49730  0.76569  1.0000
  C   C1299     1.0  0.61509  0.44843  0.94903  1.0000
  N   N73       1.0  0.54513  0.26756  0.96423  1.0000
  C   C1300     1.0  0.68660  0.02431  0.83195  1.0000
  H   H2293     1.0  0.68540  0.00976  0.84333  1.0000
  H   H2294     1.0  0.76531  0.49824  0.79256  1.0000
  H   H2295     1.0  0.67893  0.00439  0.80692  1.0000
  H   H2296     1.0  0.52203  0.22688  0.95568  1.0000
  H   H2297     1.0  0.61772  0.02160  0.79847  1.0000
  H   H2298     1.0  0.67537  0.40108  0.98254  1.0000
  H   H2299     1.0  0.71823  0.01126  0.81720  1.0000
  H   H2300     1.0  0.55889  0.29621  0.97769  1.0000
  C   C1301     1.0  0.56354  0.27821  0.97498  1.0000
  H   H2301     1.0  0.72142  0.02793  0.83918  1.0000
  H   H2302     1.0  0.50515  0.19342  0.90414  1.0000
  H   H2303     1.0  0.63800  0.01376  0.75378  1.0000
  H   H2304     1.0  0.71399  0.04166  0.81469  1.0000
  C   C1302     1.0  0.67601  0.43765  0.98147  1.0000
  H   H2305     1.0  0.64010  0.00012  0.88198  1.0000
  H   H2306     1.0  0.65002  0.00086  0.84649  1.0000
  S   S289      1.0  0.68910  0.00159  0.88646  1.0000
  H   H2307     1.0  0.59703  0.00572  0.98531  1.0000
  H   H2308     1.0  0.68329  0.14106  0.98317  1.0000
  C   C1303     1.0  0.64190  0.00003  0.83152  1.0000
  H   H2309     1.0  0.65369  0.49893  0.91777  1.0000
  S   S290      1.0  0.67502  0.98366  0.06635  1.0000
  Fe  Fe144     1.0  0.55691  0.63606  0.02296  1.0000
  S   S291      1.0  0.58152  0.63583  0.04794  1.0000
  S   S292      1.0  0.52082  0.64415  0.03464  1.0000
  H   H2310     1.0  0.54749  0.54871  0.08386  1.0000
  S   S293      1.0  0.62223  0.62544  0.01361  1.0000
  H   H2311     1.0  0.56014  0.53894  0.06021  1.0000
  Fe  Fe145     1.0  0.59824  0.60487  0.03450  1.0000
  S   S294      1.0  0.60276  0.57389  0.05708  1.0000
  Fe  Fe146     1.0  0.60307  0.65663  0.02523  1.0000
  S   S295      1.0  0.61735  0.68671  0.03988  1.0000
  S   S296      1.0  0.57192  0.60381  0.01091  1.0000
  C   C1304     1.0  0.52240  0.54102  0.06159  1.0000
  Fe  Fe147     1.0  0.60322  0.87357  0.99852  1.0000
  S   S297      1.0  0.63353  0.85436  0.01090  1.0000
  C   C1305     1.0  0.56988  0.94638  0.17358  1.0000
  Fe  Fe148     1.0  0.57176  0.85692  0.03475  1.0000
  S   S298      1.0  0.60008  0.83709  0.05008  1.0000
  S   S299      1.0  0.53694  0.85661  0.05133  1.0000
  Fe  Fe149     1.0  0.62072  0.86778  0.04167  1.0000
  S   S300      1.0  0.64291  0.88235  0.06512  1.0000
  Fe  Fe150     1.0  0.61017  0.82547  0.01815  1.0000
  S   S301      1.0  0.61599  0.79001  0.00572  1.0000
  S   S302      1.0  0.59154  0.88827  0.02882  1.0000
  S   S303      1.0  0.58077  0.84413  0.00330  1.0000
  H   H2312     1.0  0.54253  0.69645  0.06415  1.0000
  H   H2313     1.0  0.52832  0.84523  0.00914  1.0000
  C   C1306     1.0  0.61456  0.71556  0.03074  1.0000
  C   C1307     1.0  0.61878  0.73258  0.04414  1.0000
  C   C1308     1.0  0.61838  0.75553  0.03705  1.0000
  C   C1309     1.0  0.61411  0.76174  0.01634  1.0000
  C   C1310     1.0  0.60951  0.74474  0.00306  1.0000
  C   C1311     1.0  0.60942  0.72185  0.01025  1.0000
  H   H2314     1.0  0.58809  0.98439  0.10410  1.0000
  H   H2315     1.0  0.62247  0.76828  0.04734  1.0000
  C   C1312     1.0  0.60387  0.97131  0.07630  1.0000
  H   H2316     1.0  0.52393  0.57371  0.01534  1.0000
  C   C1313     1.0  0.66604  0.95545  0.06669  1.0000
  C   C1314     1.0  0.65381  0.94902  0.05009  1.0000
  C   C1315     1.0  0.64615  0.92694  0.04962  1.0000
  C   C1316     1.0  0.65129  0.91072  0.06543  1.0000
  C   C1317     1.0  0.66385  0.91705  0.08187  1.0000
  C   C1318     1.0  0.67117  0.93925  0.08251  1.0000
  H   H2317     1.0  0.65001  0.96126  0.03763  1.0000
  H   H2318     1.0  0.63637  0.92239  0.03701  1.0000
  H   H2319     1.0  0.66821  0.90457  0.09403  1.0000
  H   H2320     1.0  0.68143  0.94358  0.09485  1.0000
  C   C1319     1.0  0.62176  0.53565  0.07640  1.0000
  C   C1320     1.0  0.62475  0.55275  0.06057  1.0000
  C   C1321     1.0  0.64520  0.55290  0.04865  1.0000
  C   C1322     1.0  0.66265  0.53664  0.05305  1.0000
  H   H2321     1.0  0.60604  0.53531  0.08574  1.0000
  H   H2322     1.0  0.64774  0.56570  0.03624  1.0000
  H   H2323     1.0  0.56334  0.74611  0.03296  1.0000
  H   H2324     1.0  0.91678  0.99037  0.19289  1.0000
  C   C1323     1.0  0.51277  0.84409  0.01865  1.0000
  H   H2325     1.0  0.55835  0.59605  0.08515  1.0000
  H   H2326     1.0  0.63802  0.95346  0.16091  1.0000
  H   H2327     1.0  0.56355  0.55876  0.02746  1.0000
  H   H2328     1.0  0.56440  0.51063  0.08906  1.0000
  H   H2329     1.0  0.94755  0.97195  0.21331  1.0000
  H   H2330     1.0  0.63658  0.50634  0.09299  1.0000
  H   H2331     1.0  0.51574  0.54532  0.01919  1.0000
  H   H2332     1.0  0.67859  0.92875  0.13331  1.0000
  H   H2333     1.0  0.66799  0.60541  0.01757  1.0000
  H   H2334     1.0  0.62292  0.72794  0.05998  1.0000
  C   C1324     1.0  0.93380  0.99743  0.19117  1.0000
  H   H2335     1.0  0.67864  0.53744  0.04418  1.0000
  H   H2336     1.0  0.55621  0.95756  0.16702  1.0000
  C   C1325     1.0  0.52649  0.55792  0.02532  1.0000
  C   C1326     1.0  0.65511  0.56153  0.11595  1.0000
  C   C1327     1.0  0.55092  0.54839  0.02102  1.0000
  H   H2337     1.0  0.56884  0.92920  0.16787  1.0000
  H   H2338     1.0  0.54475  0.70251  0.03644  1.0000
  H   H2339     1.0  0.63796  0.98273  0.00658  1.0000
  H   H2340     1.0  0.61215  0.95532  0.07114  1.0000
  H   H2341     1.0  0.53420  0.51013  0.09388  1.0000
  C   C1328     1.0  0.63908  0.51917  0.08057  1.0000
  C   C1329     1.0  0.62114  0.96784  0.11164  1.0000
  C   C1330     1.0  0.59301  0.95582  0.16750  1.0000
  H   H2342     1.0  0.58918  0.95421  0.10338  1.0000
  H   H2343     1.0  0.68825  0.62681  0.01179  1.0000
  H   H2344     1.0  0.58243  0.96606  0.13707  1.0000
  H   H2345     1.0  0.55078  0.57703  0.05463  1.0000
  C   C1331     1.0  0.54564  0.53676  0.07155  1.0000
  C   C1332     1.0  0.54489  0.74902  0.03674  1.0000
  H   H2346     1.0  0.71447  0.65210  0.08698  1.0000
  H   H2347     1.0  0.55272  0.53090  0.02793  1.0000
  H   H2348     1.0  0.59235  0.96221  0.99967  1.0000
  H   H2349     1.0  0.55534  0.56430  0.98972  1.0000
  C   C1333     1.0  0.70841  0.99212  0.00425  1.0000
  H   H2350     1.0  0.72491  0.98433  0.00883  1.0000
  H   H2351     1.0  0.66592  0.97729  0.14510  1.0000
  H   H2352     1.0  0.62998  0.95192  0.10661  1.0000
  H   H2353     1.0  0.65352  0.56974  0.13102  1.0000
  C   C1334     1.0  0.53791  0.73208  0.05494  1.0000
  H   H2354     1.0  0.50353  0.70644  0.03001  1.0000
  H   H2355     1.0  0.51905  0.52596  0.05293  1.0000
  C   C1335     1.0  0.54882  0.70862  0.05169  1.0000
  H   H2356     1.0  0.51675  0.61832  0.99803  1.0000
  C   C1336     1.0  0.95084  0.97834  0.19693  1.0000
  C   C1337     1.0  0.55902  0.78444  0.04905  1.0000
  H   H2357     1.0  0.64584  0.91053  0.00195  1.0000
  C   C1338     1.0  0.55661  0.54724  0.99767  1.0000
  H   H2358     1.0  0.56717  0.94530  0.19078  1.0000
  C   C1339     1.0  0.56531  0.77479  0.07090  1.0000
  C   C1340     1.0  0.58225  0.78928  0.08028  1.0000
  C   C1341     1.0  0.65974  0.51961  0.06900  1.0000
  H   H2359     1.0  0.68247  0.50571  0.02350  1.0000
  C   C1342     1.0  0.53628  0.78555  0.01861  1.0000
  H   H2360     1.0  0.57482  0.78245  0.03912  1.0000
  H   H2361     1.0  0.55551  0.80302  0.04974  1.0000
  H   H2362     1.0  0.55044  0.77402  0.08204  1.0000
  H   H2363     1.0  0.54498  0.53611  0.99063  1.0000
  H   H2364     1.0  0.51930  0.73060  0.05593  1.0000
  H   H2365     1.0  0.60637  0.74925  0.98696  1.0000
  H   H2366     1.0  0.53659  0.74345  0.02296  1.0000
  H   H2367     1.0  0.56940  0.79724  0.00789  1.0000
  H   H2368     1.0  0.62220  0.99123  0.15943  1.0000
  H   H2369     1.0  0.57340  0.75766  0.06967  1.0000
  H   H2370     1.0  0.57476  0.80651  0.08255  1.0000
  H   H2371     1.0  0.58686  0.78162  0.09565  1.0000
  H   H2372     1.0  0.59788  0.79042  0.07005  1.0000
  C   C1343     1.0  0.51225  0.84950  0.03947  1.0000
  H   H2373     1.0  0.96835  0.98425  0.19490  1.0000
  H   H2374     1.0  0.53073  0.80342  0.02046  1.0000
  N   N74       1.0  0.65579  0.61760  0.08081  1.0000
  C   C1344     1.0  0.63604  0.63396  0.07701  1.0000
  C   C1345     1.0  0.66439  0.60850  0.06032  1.0000
  C   C1346     1.0  0.64700  0.59795  0.09440  1.0000
  C   C1347     1.0  0.67454  0.62788  0.09151  1.0000
  C   C1348     1.0  0.67768  0.65359  0.08712  1.0000
  C   C1349     1.0  0.62265  0.64182  0.09692  1.0000
  C   C1350     1.0  0.66414  0.57786  0.09860  1.0000
  C   C1351     1.0  0.67448  0.62561  0.04375  1.0000
  C   C1352     1.0  0.68213  0.61404  0.02380  1.0000
  C   C1353     1.0  0.69983  0.66065  0.09523  1.0000
  C   C1354     1.0  0.60950  0.66422  0.09294  1.0000
  H   H2375     1.0  0.62373  0.62617  0.06751  1.0000
  H   H2376     1.0  0.64130  0.64906  0.06735  1.0000
  H   H2377     1.0  0.67807  0.59535  0.06267  1.0000
  H   H2378     1.0  0.63211  0.59106  0.08754  1.0000
  H   H2379     1.0  0.64077  0.60363  0.10991  1.0000
  H   H2380     1.0  0.67203  0.62542  0.10873  1.0000
  H   H2381     1.0  0.69097  0.61881  0.08765  1.0000
  H   H2382     1.0  0.66378  0.66349  0.09506  1.0000
  H   H2383     1.0  0.67764  0.65880  0.07038  1.0000
  H   H2384     1.0  0.61031  0.62896  0.10240  1.0000
  H   H2385     1.0  0.63396  0.64381  0.10973  1.0000
  H   H2386     1.0  0.68054  0.58371  0.10314  1.0000
  H   H2387     1.0  0.66201  0.63940  0.03965  1.0000
  H   H2388     1.0  0.68973  0.63281  0.04941  1.0000
  C   C1355     1.0  0.55705  0.78555  0.00299  1.0000
  H   H2389     1.0  0.70127  0.67916  0.09246  1.0000
  H   H2390     1.0  0.70037  0.65643  0.11221  1.0000
  C   C1356     1.0  0.68084  0.94416  0.14178  1.0000
  H   H2391     1.0  0.59739  0.66283  0.08065  1.0000
  H   H2392     1.0  0.59984  0.66897  0.10740  1.0000
  H   H2393     1.0  0.62120  0.67782  0.08804  1.0000
  H   H2394     1.0  0.63836  0.55567  0.11231  1.0000
  C   C1357     1.0  0.66245  0.96216  0.13670  1.0000
  H   H2395     1.0  0.63763  0.93608  0.13936  1.0000
  H   H2396     1.0  0.53138  0.59601  0.04267  1.0000
  H   H2397     1.0  0.67050  0.89664  0.99015  1.0000
  C   C1358     1.0  0.60824  0.96319  0.00781  1.0000
  H   H2398     1.0  0.65052  0.60015  0.05322  1.0000
  C   C1359     1.0  0.59896  0.96959  0.09982  1.0000
  H   H2399     1.0  0.60628  0.70900  0.99970  1.0000
  H   H2400     1.0  0.62653  0.54432  0.00487  1.0000
  N   N75       1.0  0.61895  0.96798  0.13522  1.0000
  H   H2401     1.0  0.57416  0.54029  0.99506  1.0000
  H   H2402     1.0  0.66721  0.56807  0.08453  1.0000
  H   H2403     1.0  0.66410  0.96676  0.11982  1.0000
  Fe  Fe151     1.0  0.59487  0.62591  0.99066  1.0000
  H   H2404     1.0  0.68042  0.93976  0.15877  1.0000
  H   H2405     1.0  0.53592  0.61047  0.09989  1.0000
  H   H2406     1.0  0.94936  0.96419  0.18665  1.0000
  H   H2407     1.0  0.51714  0.79663  0.05686  1.0000
  H   H2408     1.0  0.60572  0.94445  0.17523  1.0000
  C   C1360     1.0  0.54174  0.60537  0.08412  1.0000
  H   H2409     1.0  0.59741  0.93959  0.13821  1.0000
  H   H2410     1.0  0.66693  0.54654  0.11749  1.0000
  C   C1361     1.0  0.53244  0.58151  0.05436  1.0000
  C   C1362     1.0  0.63860  0.95391  0.14365  1.0000
  C   C1363     1.0  0.62228  0.98239  0.99809  1.0000
  C   C1364     1.0  0.52429  0.59073  0.07569  1.0000
  C   C1365     1.0  0.54792  0.51295  0.08168  1.0000
  H   H2411     1.0  0.69767  0.95071  0.13690  1.0000
  C   C1366     1.0  0.59751  0.95711  0.14352  1.0000
  H   H2412     1.0  0.59321  0.97273  0.17387  1.0000
  S   S304      1.0  0.57749  0.65847  0.00081  1.0000
  H   H2413     1.0  0.54278  0.73728  0.07016  1.0000
  H   H2414     1.0  0.56749  0.70897  0.05228  1.0000
  N   N76       1.0  0.53960  0.77381  0.03968  1.0000
  C   C1367     1.0  0.70257  0.51608  0.99652  1.0000
  C   C1368     1.0  0.66389  0.91252  0.99693  1.0000
  H   H2415     1.0  0.63207  0.98155  0.10507  1.0000
  H   H2416     1.0  0.52051  0.57689  0.08746  1.0000
  H   H2417     1.0  0.69244  0.96076  0.00340  1.0000
  H   H2418     1.0  0.54366  0.62088  0.07389  1.0000
  H   H2419     1.0  0.69613  0.60141  0.02678  1.0000
  H   H2420     1.0  0.61499  0.98545  0.07173  1.0000
  N   N77       1.0  0.51942  0.56221  0.04767  1.0000
  H   H2421     1.0  0.67347  0.91523  0.01081  1.0000
  H   H2422     1.0  0.58782  0.97418  0.06831  1.0000
  H   H2423     1.0  0.61799  0.94688  0.00647  1.0000
  C   C1369     1.0  0.62031  0.99155  0.14234  1.0000
  H   H2424     1.0  0.71076  0.52917  0.00470  1.0000
  H   H2425     1.0  0.50858  0.60146  0.07393  1.0000
  H   H2426     1.0  0.50166  0.68850  0.00858  1.0000
  H   H2427     1.0  0.60414  0.96563  0.02458  1.0000
  C   C1370     1.0  0.51838  0.77847  0.05314  1.0000
  H   H2428     1.0  0.51884  0.76904  0.06843  1.0000
  H   H2429     1.0  0.50928  0.71739  0.00364  1.0000
  H   H2430     1.0  0.50953  0.54084  0.07487  1.0000
  H   H2431     1.0  0.56523  0.76847  0.00200  1.0000
  H   H2432     1.0  0.52262  0.77779  0.01073  1.0000
  H   H2433     1.0  0.73810  0.99310  0.18321  1.0000
  H   H2434     1.0  0.69842  0.99661  0.01865  1.0000
  H   H2435     1.0  0.66198  0.94800  0.98954  1.0000
  C   C1371     1.0  0.69551  0.97565  0.99256  1.0000
  H   H2436     1.0  0.66486  0.80418  0.98886  1.0000
  H   H2437     1.0  0.67918  0.98418  0.98891  1.0000
  C   C1372     1.0  0.62651  0.54843  0.98785  1.0000
  H   H2438     1.0  0.63592  0.99923  0.13553  1.0000
  H   H2439     1.0  0.68803  0.52426  0.98847  1.0000
  H   H2440     1.0  0.54733  0.50018  0.06983  1.0000
  H   H2441     1.0  0.74450  0.99925  0.15585  1.0000
  S   S305      1.0  0.82253  0.96954  0.37906  1.0000
  Fe  Fe152     1.0  0.90799  0.60698  0.43571  1.0000
  S   S306      1.0  0.88071  0.61349  0.41311  1.0000
  S   S307      1.0  0.94287  0.61707  0.42328  1.0000
  Fe  Fe153     1.0  0.87346  0.59294  0.47029  1.0000
  S   S308      1.0  0.84373  0.59929  0.45029  1.0000
  H   H2442     1.0  0.96384  0.71293  0.41350  1.0000
  Fe  Fe154     1.0  0.86568  0.58115  0.42621  1.0000
  S   S309      1.0  0.85847  0.55351  0.40421  1.0000
  Fe  Fe155     1.0  0.86160  0.63110  0.43900  1.0000
  S   S310      1.0  0.84534  0.66609  0.43149  1.0000
  S   S311      1.0  0.89469  0.57342  0.44690  1.0000
  S   S312      1.0  0.88942  0.62589  0.46096  1.0000
  C   C1373     1.0  0.96851  0.67776  0.40893  1.0000
  S   S313      1.0  0.84658  0.82676  0.46415  1.0000
  C   C1374     1.0  0.82120  0.97804  0.43408  1.0000
  Fe  Fe156     1.0  0.90619  0.83369  0.43706  1.0000
  S   S314      1.0  0.87816  0.81766  0.42175  1.0000
  S   S315      1.0  0.94097  0.83829  0.42105  1.0000
  Fe  Fe157     1.0  0.85572  0.84661  0.43401  1.0000
  S   S316      1.0  0.82675  0.86826  0.41977  1.0000
  Fe  Fe158     1.0  0.87150  0.79931  0.45308  1.0000
  S   S317      1.0  0.87304  0.76112  0.46232  1.0000
  S   S318      1.0  0.88440  0.86364  0.44660  1.0000
  S   S319      1.0  0.90050  0.81465  0.46761  1.0000
  C   C1375     1.0  0.85426  0.69242  0.43932  1.0000
  C   C1376     1.0  0.84552  0.71266  0.42984  1.0000
  C   C1377     1.0  0.85144  0.73387  0.43622  1.0000
  C   C1378     1.0  0.86581  0.73509  0.45254  1.0000
  C   C1379     1.0  0.87454  0.71482  0.46198  1.0000
  C   C1380     1.0  0.86911  0.69366  0.45524  1.0000
  H   H2443     1.0  0.83396  0.71198  0.41754  1.0000
  H   H2444     1.0  0.84446  0.74925  0.42884  1.0000
  H   H2445     1.0  0.85269  0.94171  0.48444  1.0000
  H   H2446     1.0  0.87601  0.67832  0.46270  1.0000
  H   H2447     1.0  0.78521  0.90673  0.45478  1.0000
  C   C1381     1.0  0.96622  0.82204  0.45389  1.0000
  C   C1382     1.0  0.96620  0.83319  0.43422  1.0000
  H   H2448     1.0  0.98940  0.62580  0.41303  1.0000
  H   H2449     1.0  0.92424  0.66417  0.41504  1.0000
  Fe  Fe159     1.0  0.87612  0.84314  0.47605  1.0000
  C   C1383     1.0  0.86230  0.55867  0.32785  1.0000
  C   C1384     1.0  0.89029  0.50536  0.42586  1.0000
  C   C1385     1.0  0.96767  0.60906  0.43637  1.0000
  C   C1386     1.0  0.96691  0.59607  0.45515  1.0000
  H   H2450     1.0  0.96886  0.74856  0.44898  1.0000
  H   H2451     1.0  0.78944  0.51654  0.34591  1.0000
  H   H2452     1.0  0.95086  0.59071  0.46203  1.0000
  H   H2453     1.0  0.98677  0.84947  0.40965  1.0000
  H   H2454     1.0  0.99783  0.77788  0.44285  1.0000
  C   C1387     1.0  0.84166  0.51777  0.38559  1.0000
  C   C1388     1.0  0.83740  0.53380  0.40074  1.0000
  C   C1389     1.0  0.81626  0.53451  0.41151  1.0000
  H   H2455     1.0  0.94723  0.91203  0.43054  1.0000
  C   C1390     1.0  0.98993  0.67970  0.39472  1.0000
  H   H2456     1.0  0.81259  0.54681  0.42309  1.0000
  C   C1391     1.0  0.91648  0.68123  0.41172  1.0000
  C   C1392     1.0  0.82299  0.94186  0.39158  1.0000
  C   C1393     1.0  0.80333  0.93044  0.39751  1.0000
  C   C1394     1.0  0.80482  0.90810  0.40634  1.0000
  C   C1395     1.0  0.82590  0.89696  0.40974  1.0000
  C   C1396     1.0  0.84551  0.90870  0.40457  1.0000
  C   C1397     1.0  0.84404  0.93088  0.39542  1.0000
  H   H2457     1.0  0.78702  0.93854  0.39468  1.0000
  H   H2458     1.0  0.78951  0.89922  0.41023  1.0000
  H   H2459     1.0  0.86185  0.90043  0.40697  1.0000
  H   H2460     1.0  0.85938  0.93948  0.39095  1.0000
  H   H2461     1.0  0.85933  0.90689  0.45042  1.0000
  H   H2462     1.0  0.85422  0.55874  0.36100  1.0000
  H   H2463     1.0  0.82359  0.53965  0.34875  1.0000
  H   H2464     1.0  0.63545  0.99750  0.33457  1.0000
  H   H2465     1.0  0.80481  0.61704  0.29466  1.0000
  H   H2466     1.0  0.88842  0.51918  0.43679  1.0000
  H   H2467     1.0  0.89659  0.76338  0.42033  1.0000
  C   C1398     1.0  0.91156  0.68282  0.38831  1.0000
  H   H2468     1.0  0.80810  0.63709  0.31428  1.0000
  C   C1399     1.0  0.91837  0.72182  0.41430  1.0000
  H   H2469     1.0  0.95957  0.66308  0.40423  1.0000
  H   H2470     1.0  0.88552  0.71554  0.47473  1.0000
  H   H2471     1.0  0.79970  0.62251  0.46389  1.0000
  H   H2472     1.0  0.84088  0.96766  0.45998  1.0000
  H   H2473     1.0  0.80429  0.97588  0.42808  1.0000
  C   C1400     1.0  0.82982  0.60520  0.37456  1.0000
  C   C1401     1.0  0.93929  0.67146  0.47501  1.0000
  H   H2474     1.0  0.90023  0.72102  0.41980  1.0000
  C   C1402     1.0  0.92771  0.74272  0.42380  1.0000
  C   C1403     1.0  0.84660  0.53368  0.47599  1.0000
  C   C1404     1.0  0.82283  0.59392  0.32911  1.0000
  C   C1405     1.0  0.84784  0.92592  0.47776  1.0000
  C   C1406     1.0  0.86367  0.92212  0.45817  1.0000
  H   H2475     1.0  0.89987  0.68129  0.42070  1.0000
  H   H2476     1.0  0.81179  0.97481  0.46656  1.0000
  H   H2477     1.0  0.83404  0.60814  0.33074  1.0000
  C   C1407     1.0  0.91500  0.76443  0.41648  1.0000
  C   C1408     1.0  0.98866  0.61591  0.42763  1.0000
  H   H2478     1.0  0.82294  0.69462  0.47748  1.0000
  N   N78       1.0  0.93069  0.69939  0.41897  1.0000
  C   C1409     1.0  0.81416  0.55488  0.34226  1.0000
  H   H2479     1.0  0.91783  0.76767  0.39942  1.0000
  C   C1410     1.0  0.78615  0.87395  0.47043  1.0000
  H   H2480     1.0  0.78031  0.90649  0.48264  1.0000
  N   N79       1.0  0.82282  0.92642  0.47444  1.0000
  H   H2481     1.0  0.78984  0.54940  0.36881  1.0000
  C   C1411     1.0  0.79083  0.89905  0.46983  1.0000
  H   H2482     1.0  0.89673  0.56602  0.33471  1.0000
  H   H2483     1.0  0.89075  0.90429  0.47470  1.0000
  H   H2484     1.0  0.98559  0.68209  0.37819  1.0000
  H   H2485     1.0  0.91841  0.72579  0.39722  1.0000
  C   C1412     1.0  0.81712  0.94082  0.45525  1.0000
  H   H2486     1.0  0.78032  0.62949  0.30814  1.0000
  H   H2487     1.0  0.80178  0.65057  0.45160  1.0000
  H   H2488     1.0  0.80109  0.61807  0.39377  1.0000
  H   H2489     1.0  0.84791  0.60104  0.37707  1.0000
  H   H2490     1.0  0.94828  0.70493  0.44673  1.0000
  C   C1413     1.0  0.95359  0.69980  0.40754  1.0000
  H   H2491     1.0  0.86340  0.53770  0.46862  1.0000
  H   H2492     1.0  0.82829  0.58707  0.31386  1.0000
  C   C1414     1.0  0.81801  0.58449  0.36737  1.0000
  H   H2493     1.0  0.92578  0.74141  0.44105  1.0000
  H   H2494     1.0  0.82037  0.59874  0.40746  1.0000
  H   H2495     1.0  0.82847  0.61972  0.36304  1.0000
  H   H2496     1.0  0.76793  0.87181  0.46846  1.0000
  H   H2497     1.0  0.86072  0.58539  0.34883  1.0000
  C   C1415     1.0  0.79800  0.62300  0.30989  1.0000
  H   H2498     1.0  0.85788  0.51710  0.37705  1.0000
  H   H2499     1.0  0.90851  0.64675  0.38562  1.0000
  H   H2500     1.0  0.82505  0.89588  0.45755  1.0000
  H   H2501     1.0  0.82238  0.89107  0.48476  1.0000
  H   H2502     1.0  0.98623  0.81073  0.47967  1.0000
  C   C1416     1.0  0.98637  0.81925  0.46439  1.0000
  C   C1417     1.0  0.98704  0.58980  0.46497  1.0000
  H   H2503     1.0  0.82816  0.62721  0.40040  1.0000
  C   C1418     1.0  0.98664  0.84091  0.42493  1.0000
  H   H2504     1.0  0.92744  0.68284  0.37839  1.0000
  N   N80       1.0  0.82600  0.57609  0.34641  1.0000
  H   H2505     1.0  0.83445  0.97140  0.42292  1.0000
  H   H2506     1.0  0.93193  0.88687  0.43693  1.0000
  H   H2507     1.0  0.81414  0.55268  0.32522  1.0000
  H   H2508     1.0  0.91854  0.70500  0.45066  1.0000
  H   H2509     1.0  0.96235  0.88512  0.43305  1.0000
  H   H2510     1.0  0.77865  0.56753  0.34835  1.0000
  H   H2511     1.0  0.88762  0.53878  0.34508  1.0000
  H   H2512     1.0  0.89368  0.93451  0.47093  1.0000
  H   H2513     1.0  0.97405  0.67443  0.42499  1.0000
  H   H2514     1.0  0.78767  0.59055  0.32164  1.0000
  H   H2515     1.0  0.82493  0.93330  0.44100  1.0000
  H   H2516     1.0  0.94615  0.66071  0.44407  1.0000
  H   H2517     1.0  0.98633  0.57962  0.47943  1.0000
  C   C1419     1.0  0.93370  0.67200  0.45216  1.0000
  C   C1420     1.0  0.78965  0.55237  0.35165  1.0000
  C   C1421     1.0  0.94773  0.89544  0.43938  1.0000
  H   H2518     1.0  0.79963  0.58882  0.36811  1.0000
  H   H2519     1.0  0.82019  0.57071  0.37955  1.0000
  H   H2520     1.0  0.77346  0.98880  0.46515  1.0000
  H   H2521     1.0  0.79866  0.94113  0.45305  1.0000
  H   H2522     1.0  0.96603  0.90730  0.46381  1.0000
  C   C1422     1.0  0.77882  0.53221  0.34318  1.0000
  C   C1423     1.0  0.95001  0.89880  0.46247  1.0000
  H   H2523     1.0  0.94577  0.74469  0.41912  1.0000
  C   C1424     1.0  0.79848  0.60373  0.32664  1.0000
  C   C1425     1.0  0.85100  0.57014  0.34710  1.0000
  C   C1426     1.0  0.82502  0.50284  0.38104  1.0000
  H   H2524     1.0  0.93559  0.90997  0.46753  1.0000
  C   C1427     1.0  0.81912  0.61271  0.39531  1.0000
  H   H2525     1.0  0.86243  0.93669  0.44667  1.0000
  H   H2526     1.0  0.83679  0.54981  0.47823  1.0000
  H   H2527     1.0  0.92663  0.68191  0.48400  1.0000
  C   C1428     1.0  0.79950  0.51976  0.40678  1.0000
  C   C1429     1.0  0.82338  0.96588  0.45540  1.0000
  H   H2528     1.0  0.77656  0.53506  0.32625  1.0000
  H   H2529     1.0  0.88212  0.66208  0.39212  1.0000
  C   C1430     1.0  0.93308  0.69646  0.44225  1.0000
  H   H2530     1.0  0.86246  0.57055  0.31394  1.0000
  H   H2531     1.0  0.79106  0.61057  0.34124  1.0000
  H   H2532     1.0  0.95642  0.67772  0.47653  1.0000
  H   H2533     1.0  0.89475  0.66440  0.36603  1.0000
  C   C1431     1.0  0.89842  0.66274  0.38275  1.0000
  H   H2534     1.0  0.82356  0.99633  0.43516  1.0000
  H   H2535     1.0  0.90109  0.69824  0.38434  1.0000
  H   H2536     1.0  0.91686  0.66482  0.45155  1.0000
  H   H2537     1.0  0.78305  0.52080  0.41490  1.0000
  H   H2538     1.0  0.92112  0.77894  0.42434  1.0000
  H   H2539     1.0  0.95188  0.70496  0.39082  1.0000
  H   H2540     1.0  0.95068  0.81581  0.46110  1.0000
  H   H2541     1.0  0.88888  0.51292  0.40980  1.0000
  C   C1432     1.0  0.80368  0.50392  0.39144  1.0000
  H   H2542     1.0  0.89467  0.54331  0.31765  1.0000
  C   C1433     1.0  0.81634  0.90255  0.47178  1.0000
  H   H2543     1.0  0.79603  0.86558  0.45768  1.0000
  H   H2544     1.0  0.82996  0.65780  0.47707  1.0000
  C   C1434     1.0  0.88683  0.55129  0.33162  1.0000
  H   H2545     1.0  0.76201  0.52975  0.35127  1.0000
  H   H2546     1.0  0.85351  0.54343  0.32425  1.0000
  C   C1435     1.0  0.94945  0.87604  0.47531  1.0000
  H   H2547     1.0  0.97665  0.74441  0.47572  1.0000
  H   H2548     1.0  0.83780  0.52349  0.46532  1.0000
  H   H2549     1.0  0.93900  0.65380  0.48169  1.0000
  H   H2550     1.0  0.55943  0.97216  0.35953  1.0000
  H   H2551     1.0  0.77467  0.64034  0.46058  1.0000
  C   C1436     1.0  0.79279  0.64017  0.46403  1.0000
  H   H2552     1.0  0.82048  0.73568  0.48091  1.0000
  H   H2553     1.0  0.96147  0.86408  0.46739  1.0000
  C   C1437     1.0  0.88831  0.91924  0.46376  1.0000
  H   H2554     1.0  0.79065  0.86556  0.48557  1.0000
  H   H2555     1.0  0.89911  0.91661  0.44940  1.0000
  C   C1438     1.0  0.99958  0.76482  0.45573  1.0000
  H   H2556     1.0  0.93251  0.86945  0.47338  1.0000
  C   C1439     1.0  0.97600  0.75665  0.46206  1.0000
  H   H2557     1.0  0.99584  0.87454  0.47331  1.0000
  H   H2558     1.0  0.96461  0.77121  0.46632  1.0000
  C   C1440     1.0  0.79515  0.64966  0.48527  1.0000
  H   H2559     1.0  0.78710  0.66685  0.48473  1.0000
  H   H2560     1.0  0.59529  0.98787  0.34568  1.0000
  H   H2561     1.0  0.99985  0.69402  0.39884  1.0000
  H   H2562     1.0  0.57056  0.98944  0.37822  1.0000
  H   H2563     1.0  0.66598  0.98806  0.35870  1.0000
  C   C1441     1.0  0.56323  0.98969  0.36274  1.0000
  C   C1442     1.0  0.57988  0.99907  0.34581  1.0000
  H   H2564     1.0  0.62543  0.99746  0.36156  1.0000
  H   H2565     1.0  0.57201  0.99815  0.33065  1.0000
  H   H2566     1.0  0.00065  0.66396  0.39652  1.0000
  Fe  Fe160     1.0  0.79750  0.99958  0.37228  1.0000
  Fe  Fe161     1.0  0.79677  0.90500  0.63426  1.0000
  S   S320      1.0  0.77982  0.93964  0.63499  1.0000
  S   S321      1.0  0.80606  0.88300  0.66273  1.0000
  Fe  Fe162     1.0  0.78480  0.89978  0.58925  1.0000
  S   S322      1.0  0.76568  0.93334  0.58744  1.0000
  S   S323      1.0  0.78662  0.87714  0.56202  1.0000
  Fe  Fe163     1.0  0.79572  0.94612  0.60241  1.0000
  S   S324      1.0  0.81714  0.97309  0.58442  1.0000
  Fe  Fe164     1.0  0.75137  0.92374  0.61996  1.0000
  S   S325      1.0  0.71511  0.92892  0.63411  1.0000
  S   S326      1.0  0.81507  0.91233  0.60332  1.0000
  S   S327      1.0  0.76799  0.88931  0.62014  1.0000
  H   H2567     1.0  0.50794  0.66220  0.70977  1.0000
  S   S328      1.0  0.59245  0.59327  0.71454  1.0000
  H   H2568     1.0  0.64961  0.53919  0.70293  1.0000
  Fe  Fe165     1.0  0.59808  0.65296  0.68730  1.0000
  S   S329      1.0  0.58060  0.62539  0.67295  1.0000
  S   S330      1.0  0.60355  0.68713  0.67076  1.0000
  Fe  Fe166     1.0  0.56441  0.61840  0.70504  1.0000
  S   S331      1.0  0.52720  0.61537  0.71656  1.0000
  Fe  Fe167     1.0  0.61009  0.60274  0.68349  1.0000
  S   S332      1.0  0.62928  0.57871  0.66157  1.0000
  S   S333      1.0  0.58051  0.64741  0.71863  1.0000
  S   S334      1.0  0.62840  0.63092  0.69525  1.0000
  H   H2569     1.0  0.86931  0.50890  0.57568  1.0000
  S   S335      1.0  0.60083  0.87544  0.70892  1.0000
  C   C1443     1.0  0.82021  0.64982  0.49059  1.0000
  Fe  Fe168     1.0  0.59085  0.81083  0.71386  1.0000
  S   S336      1.0  0.58339  0.83226  0.68501  1.0000
  H   H2570     1.0  0.97630  0.90467  0.49577  1.0000
  Fe  Fe169     1.0  0.61658  0.84868  0.68889  1.0000
  S   S337      1.0  0.64470  0.85293  0.66316  1.0000
  Fe  Fe170     1.0  0.56802  0.85739  0.70715  1.0000
  S   S338      1.0  0.53538  0.87808  0.70015  1.0000
  S   S339      1.0  0.62502  0.82474  0.71585  1.0000
  H   H2571     1.0  0.81936  0.53264  0.51264  1.0000
  Fe  Fe171     1.0  0.81162  0.53493  0.63147  1.0000
  Fe  Fe172     1.0  0.60793  0.85085  0.73585  1.0000
  S   S340      1.0  0.84182  0.53861  0.65094  1.0000
  Fe  Fe173     1.0  0.78658  0.54961  0.59284  1.0000
  S   S341      1.0  0.75924  0.52513  0.60087  1.0000
  S   S342      1.0  0.78407  0.57142  0.56295  1.0000
  Fe  Fe174     1.0  0.76010  0.53577  0.63380  1.0000
  S   S343      1.0  0.73363  0.54575  0.65958  1.0000
  H   H2572     1.0  0.84088  0.77745  0.71728  1.0000
  S   S344      1.0  0.78530  0.56234  0.62504  1.0000
  S   S345      1.0  0.81526  0.52446  0.59832  1.0000
  C   C1444     1.0  0.80867  0.57329  0.54636  1.0000
  C   C1445     1.0  0.82990  0.56716  0.55370  1.0000
  C   C1446     1.0  0.84935  0.56909  0.54038  1.0000
  C   C1447     1.0  0.84776  0.57712  0.51964  1.0000
  C   C1448     1.0  0.82652  0.58319  0.51218  1.0000
  C   C1449     1.0  0.80701  0.58132  0.52555  1.0000
  H   H2573     1.0  0.83143  0.56135  0.56976  1.0000
  C   C1450     1.0  0.52651  0.87829  0.64144  1.0000
  H   H2574     1.0  0.79060  0.58603  0.51978  1.0000
  H   H2575     1.0  0.82511  0.58922  0.49616  1.0000
  H   H2576     1.0  0.77911  0.65584  0.52550  1.0000
  C   C1451     1.0  0.58770  0.75085  0.70682  1.0000
  C   C1452     1.0  0.60038  0.75211  0.68787  1.0000
  C   C1453     1.0  0.60494  0.73253  0.67673  1.0000
  C   C1454     1.0  0.59691  0.71166  0.68451  1.0000
  C   C1455     1.0  0.58396  0.71058  0.70328  1.0000
  H   H2577     1.0  0.77900  0.56126  0.72009  1.0000
  H   H2578     1.0  0.60676  0.76810  0.68187  1.0000
  H   H2579     1.0  0.61490  0.73354  0.66215  1.0000
  C   C1456     1.0  0.80246  0.52303  0.72527  1.0000
  H   H2580     1.0  0.53457  0.75138  0.71779  1.0000
  C   C1457     1.0  0.65842  0.57000  0.66116  1.0000
  C   C1458     1.0  0.66797  0.55833  0.64419  1.0000
  C   C1459     1.0  0.69097  0.55098  0.64326  1.0000
  C   C1460     1.0  0.70464  0.55490  0.65953  1.0000
  C   C1461     1.0  0.69501  0.56635  0.67662  1.0000
  C   C1462     1.0  0.67218  0.57424  0.67727  1.0000
  H   H2581     1.0  0.65749  0.55491  0.63164  1.0000
  H   H2582     1.0  0.69802  0.54202  0.63011  1.0000
  H   H2583     1.0  0.70540  0.56942  0.68932  1.0000
  H   H2584     1.0  0.66515  0.58337  0.69031  1.0000
  H   H2585     1.0  0.91579  0.94293  0.52249  1.0000
  H   H2586     1.0  0.62436  0.63663  0.61151  1.0000
  H   H2587     1.0  0.89474  0.97604  0.60094  1.0000
  C   C1463     1.0  0.97647  0.88663  0.50117  1.0000
  H   H2588     1.0  0.86574  0.56448  0.54626  1.0000
  H   H2589     1.0  0.61039  0.65080  0.63298  1.0000
  C   C1464     1.0  0.69601  0.90745  0.64257  1.0000
  C   C1465     1.0  0.70083  0.88467  0.63911  1.0000
  C   C1466     1.0  0.68500  0.86832  0.64562  1.0000
  C   C1467     1.0  0.66433  0.87433  0.65610  1.0000
  C   C1468     1.0  0.65963  0.89706  0.65989  1.0000
  C   C1469     1.0  0.67526  0.91351  0.65296  1.0000
  H   H2590     1.0  0.71658  0.87967  0.63104  1.0000
  H   H2591     1.0  0.68882  0.85085  0.64242  1.0000
  H   H2592     1.0  0.64395  0.90204  0.66803  1.0000
  H   H2593     1.0  0.67130  0.93105  0.65573  1.0000
  C   C1470     1.0  0.85178  0.86592  0.52125  1.0000
  C   C1471     1.0  0.85192  0.87894  0.53871  1.0000
  C   C1472     1.0  0.83214  0.88236  0.55146  1.0000
  C   C1473     1.0  0.81207  0.87273  0.54686  1.0000
  C   C1474     1.0  0.81199  0.85966  0.52944  1.0000
  C   C1475     1.0  0.83174  0.85629  0.51666  1.0000
  H   H2594     1.0  0.86734  0.88645  0.54239  1.0000
  H   H2595     1.0  0.83241  0.89253  0.56477  1.0000
  H   H2596     1.0  0.79656  0.85214  0.52578  1.0000
  C   C1476     1.0  0.68556  0.86064  0.71194  1.0000
  C   C1477     1.0  0.86143  0.88995  0.70809  1.0000
  C   C1478     1.0  0.86283  0.90177  0.68859  1.0000
  C   C1479     1.0  0.84590  0.90008  0.67436  1.0000
  C   C1480     1.0  0.82752  0.88665  0.67973  1.0000
  C   C1481     1.0  0.82609  0.87509  0.69926  1.0000
  C   C1482     1.0  0.84285  0.87689  0.71343  1.0000
  H   H2597     1.0  0.87714  0.91203  0.68439  1.0000
  H   H2598     1.0  0.84713  0.90901  0.65926  1.0000
  H   H2599     1.0  0.81181  0.86479  0.70353  1.0000
  C   C1483     1.0  0.84399  0.59697  0.69447  1.0000
  C   C1484     1.0  0.85932  0.57844  0.69618  1.0000
  C   C1485     1.0  0.85868  0.56078  0.68259  1.0000
  C   C1486     1.0  0.84246  0.56130  0.66748  1.0000
  C   C1487     1.0  0.82699  0.57970  0.66600  1.0000
  C   C1488     1.0  0.82794  0.59755  0.67925  1.0000
  H   H2600     1.0  0.53975  0.65421  0.64802  1.0000
  H   H2601     1.0  0.87075  0.54664  0.68381  1.0000
  H   H2602     1.0  0.81455  0.58042  0.65439  1.0000
  H   H2603     1.0  0.81621  0.61193  0.67765  1.0000
  H   H2604     1.0  0.80743  0.52180  0.54800  1.0000
  H   H2605     1.0  0.88769  0.75083  0.66727  1.0000
  H   H2606     1.0  0.86120  0.99390  0.50009  1.0000
  H   H2607     1.0  0.55490  0.88495  0.56250  1.0000
  H   H2608     1.0  0.51055  0.77051  0.71445  1.0000
  H   H2609     1.0  0.94609  0.81219  0.52963  1.0000
  H   H2610     1.0  0.55129  0.85520  0.65536  1.0000
  H   H2611     1.0  0.79214  0.94000  0.48993  1.0000
  H   H2612     1.0  0.89403  0.73661  0.73012  1.0000
  H   H2613     1.0  0.72316  0.57452  0.61320  1.0000
  C   C1489     1.0  0.79589  0.56377  0.72613  1.0000
  C   C1490     1.0  0.97062  0.82250  0.72541  1.0000
  C   C1491     1.0  0.72711  0.59050  0.60421  1.0000
  H   H2614     1.0  0.94085  0.92339  0.49700  1.0000
  H   H2615     1.0  0.52149  0.72464  0.67752  1.0000
  C   C1492     1.0  0.84680  0.50255  0.53967  1.0000
  H   H2616     1.0  0.65107  0.68438  0.68593  1.0000
  H   H2617     1.0  0.60282  0.54260  0.72568  1.0000
  H   H2618     1.0  0.86439  0.97922  0.60325  1.0000
  H   H2619     1.0  0.50538  0.85199  0.63201  1.0000
  C   C1493     1.0  0.81024  0.93630  0.49301  1.0000
  C   C1494     1.0  0.81162  0.93310  0.72847  1.0000
  C   C1495     1.0  0.51508  0.68391  0.67371  1.0000
  C   C1496     1.0  0.82557  0.82340  0.63706  1.0000
  C   C1497     1.0  0.93659  0.91428  0.51201  1.0000
  H   H2620     1.0  0.51475  0.53821  0.71197  1.0000
  H   H2621     1.0  0.79698  0.94133  0.67677  1.0000
  C   C1498     1.0  0.85770  0.77177  0.67559  1.0000
  H   H2622     1.0  0.71769  0.54439  0.72648  1.0000
  H   H2623     1.0  0.96786  0.84203  0.49708  1.0000
  S   S346      1.0  0.57404  0.83528  0.73592  1.0000
  H   H2624     1.0  0.90038  0.92218  0.51053  1.0000
  C   C1499     1.0  0.54110  0.68109  0.66950  1.0000
  H   H2625     1.0  0.78243  0.52006  0.51772  1.0000
  H   H2626     1.0  0.91863  0.88543  0.50340  1.0000
  H   H2627     1.0  0.78465  0.52125  0.72124  1.0000
  C   C1500     1.0  0.54682  0.67115  0.64841  1.0000
  C   C1501     1.0  0.68622  0.81786  0.71210  1.0000
  H   H2628     1.0  0.53549  0.71467  0.70005  1.0000
  H   H2629     1.0  0.58006  0.93736  0.66421  1.0000
  C   C1502     1.0  0.93506  0.88852  0.51003  1.0000
  S   S347      1.0  0.78670  0.50849  0.64150  1.0000
  H   H2630     1.0  0.84332  0.70368  0.49470  1.0000
  H   H2631     1.0  0.74698  0.51275  0.53810  1.0000
  C   C1503     1.0  0.93766  0.81450  0.51467  1.0000
  H   H2632     1.0  0.76762  0.99537  0.56898  1.0000
  H   H2633     1.0  0.89107  0.64851  0.53075  1.0000
  H   H2634     1.0  0.87186  0.57788  0.70773  1.0000
  H   H2635     1.0  0.54875  0.66945  0.68146  1.0000
  H   H2636     1.0  0.54943  0.69741  0.66932  1.0000
  H   H2637     1.0  0.57117  0.88480  0.66672  1.0000
  C   C1504     1.0  0.51387  0.67938  0.71155  1.0000
  H   H2638     1.0  0.54247  0.90542  0.57978  1.0000
  H   H2639     1.0  0.88074  0.98769  0.62391  1.0000
  C   C1505     1.0  0.64378  0.92285  0.71858  1.0000
  H   H2640     1.0  0.79116  0.60787  0.70960  1.0000
  H   H2641     1.0  0.54830  0.86775  0.59782  1.0000
  H   H2642     1.0  0.93355  0.88151  0.52645  1.0000
  C   C1506     1.0  0.79997  0.93467  0.53180  1.0000
  H   H2643     1.0  0.83140  0.84617  0.50334  1.0000
  H   H2644     1.0  0.50900  0.85167  0.65969  1.0000
  C   C1507     1.0  0.88034  0.98696  0.60677  1.0000
  H   H2645     1.0  0.87943  0.78422  0.69803  1.0000
  H   H2646     1.0  0.58044  0.83823  0.61117  1.0000
  H   H2647     1.0  0.58405  0.90004  0.60946  1.0000
  C   C1508     1.0  0.81702  0.52362  0.70457  1.0000
  H   H2648     1.0  0.96263  0.85138  0.52259  1.0000
  C   C1509     1.0  0.59444  0.90714  0.64999  1.0000
  C   C1510     1.0  0.84896  0.81274  0.71030  1.0000
  C   C1511     1.0  0.72607  0.51218  0.71449  1.0000
  H   H2649     1.0  0.60930  0.89544  0.65235  1.0000
  H   H2650     1.0  0.83499  0.52620  0.70718  1.0000
  H   H2651     1.0  0.62305  0.83513  0.61193  1.0000
  H   H2652     1.0  0.60956  0.80873  0.61752  1.0000
  H   H2653     1.0  0.83834  0.55161  0.73074  1.0000
  C   C1512     1.0  0.81134  0.92196  0.51378  1.0000
  H   H2654     1.0  0.82651  0.50206  0.67915  1.0000
  H   H2655     1.0  0.66186  0.66437  0.70539  1.0000
  H   H2656     1.0  0.61967  0.62165  0.63651  1.0000
  H   H2657     1.0  0.78180  0.93840  0.52922  1.0000
  H   H2658     1.0  0.52794  0.76246  0.69204  1.0000
  C   C1513     1.0  0.95577  0.85223  0.50681  1.0000
  C   C1514     1.0  0.59113  0.86227  0.63348  1.0000
  H   H2659     1.0  0.87487  0.74409  0.69293  1.0000
  N   N81       1.0  0.82498  0.66055  0.51045  1.0000
  C   C1515     1.0  0.81590  0.68472  0.51073  1.0000
  C   C1516     1.0  0.81557  0.64685  0.52927  1.0000
  C   C1517     1.0  0.85032  0.66076  0.51175  1.0000
  H   H2660     1.0  0.50430  0.83973  0.70992  1.0000
  H   H2661     1.0  0.57809  0.86785  0.58996  1.0000
  C   C1518     1.0  0.86291  0.63734  0.51422  1.0000
  C   C1519     1.0  0.79129  0.65337  0.53786  1.0000
  C   C1520     1.0  0.78235  0.63531  0.55364  1.0000
  H   H2662     1.0  0.82700  0.80418  0.67473  1.0000
  C   C1521     1.0  0.50566  0.87463  0.69891  1.0000
  H   H2663     1.0  0.81958  0.69187  0.52572  1.0000
  H   H2664     1.0  0.79726  0.68586  0.51022  1.0000
  H   H2665     1.0  0.81631  0.62858  0.52617  1.0000
  H   H2666     1.0  0.82628  0.64812  0.54278  1.0000
  H   H2667     1.0  0.85458  0.67076  0.52499  1.0000
  H   H2668     1.0  0.78578  0.63857  0.49682  1.0000
  H   H2669     1.0  0.70161  0.65147  0.69706  1.0000
  C   C1522     1.0  0.80648  0.94470  0.69048  1.0000
  H   H2670     1.0  0.71857  0.62672  0.70446  1.0000
  H   H2671     1.0  0.80742  0.50704  0.73384  1.0000
  H   H2672     1.0  0.51388  0.61499  0.67317  1.0000
  H   H2673     1.0  0.85642  0.62727  0.52811  1.0000
  H   H2674     1.0  0.79145  0.66940  0.54590  1.0000
  C   C1523     1.0  0.57950  0.73003  0.71442  1.0000
  H   H2675     1.0  0.78008  0.61947  0.54585  1.0000
  H   H2676     1.0  0.79418  0.63176  0.56630  1.0000
  H   H2677     1.0  0.76570  0.64106  0.56064  1.0000
  H   H2678     1.0  0.85936  0.53126  0.50652  1.0000
  H   H2679     1.0  0.77923  0.93848  0.71280  1.0000
  H   H2680     1.0  0.78237  0.99759  0.50141  1.0000
  N   N82       1.0  0.85816  0.81290  0.68798  1.0000
  H   H2681     1.0  0.54004  0.68240  0.63567  1.0000
  H   H2682     1.0  0.59713  0.91659  0.63482  1.0000
  H   H2683     1.0  0.53256  0.67711  0.71161  1.0000
  H   H2684     1.0  0.82837  0.83289  0.67934  1.0000
  H   H2685     1.0  0.86283  0.81009  0.72112  1.0000
  C   C1524     1.0  0.57233  0.89399  0.65113  1.0000
  H   H2686     1.0  0.84074  0.82945  0.71358  1.0000
  C   C1525     1.0  0.54936  0.86451  0.64001  1.0000
  H   H2687     1.0  0.97937  0.88643  0.51811  1.0000
  H   H2688     1.0  0.86482  0.84854  0.68498  1.0000
  H   H2689     1.0  0.82909  0.91782  0.51756  1.0000
  H   H2690     1.0  0.92169  0.84653  0.52112  1.0000
  C   C1526     1.0  0.61175  0.82568  0.62330  1.0000
  Fe  Fe175     1.0  0.60939  0.62297  0.72562  1.0000
  H   H2691     1.0  0.55509  0.90545  0.61564  1.0000
  H   H2692     1.0  0.90118  0.81509  0.70299  1.0000
  H   H2693     1.0  0.85918  0.81173  0.64485  1.0000
  H   H2694     1.0  0.74425  0.68691  0.61876  1.0000
  N   N83       1.0  0.57012  0.87778  0.63420  1.0000
  H   H2695     1.0  0.71298  0.83822  0.69957  1.0000
  S   S348      1.0  0.84403  0.61967  0.71100  1.0000
  S   S349      1.0  0.87686  0.86227  0.50544  1.0000
  H   H2696     1.0  0.92048  0.84188  0.67761  1.0000
  H   H2697     1.0  0.59782  0.85951  0.64923  1.0000
  C   C1527     1.0  0.56810  0.89148  0.61390  1.0000
  C   C1528     1.0  0.89324  0.83216  0.70005  1.0000
  H   H2698     1.0  0.81880  0.80627  0.63758  1.0000
  C   C1529     1.0  0.68137  0.90175  0.71130  1.0000
  C   C1530     1.0  0.71812  0.88314  0.70224  1.0000
  H   H2699     1.0  0.73067  0.86936  0.70639  1.0000
  H   H2700     1.0  0.64474  0.51435  0.73592  1.0000
  H   H2701     1.0  0.80255  0.90602  0.51295  1.0000
  H   H2702     1.0  0.72234  0.51742  0.69818  1.0000
  H   H2703     1.0  0.76462  0.60101  0.72322  1.0000
  C   C1531     1.0  0.73109  0.90518  0.70153  1.0000
  C   C1532     1.0  0.75016  0.90487  0.68455  1.0000
  H   H2704     1.0  0.89682  0.62286  0.51744  1.0000
  C   C1533     1.0  0.51065  0.55545  0.71724  1.0000
  C   C1534     1.0  0.81305  0.72430  0.49352  1.0000
  H   H2705     1.0  0.68051  0.90423  0.69419  1.0000
  H   H2706     1.0  0.68792  0.91772  0.71603  1.0000
  H   H2707     1.0  0.84149  0.76919  0.68452  1.0000
  H   H2708     1.0  0.71371  0.88051  0.68596  1.0000
  H   H2709     1.0  0.67878  0.86237  0.69614  1.0000
  C   C1535     1.0  0.87111  0.79096  0.68373  1.0000
  H   H2710     1.0  0.90443  0.86532  0.68877  1.0000
  H   H2711     1.0  0.98975  0.56909  0.73144  1.0000
  H   H2712     1.0  0.61013  0.93277  0.66620  1.0000
  H   H2713     1.0  0.94832  0.80631  0.50229  1.0000
  C   C1536     1.0  0.82647  0.51574  0.50828  1.0000
  H   H2714     1.0  0.76522  0.52858  0.55252  1.0000
  H   H2715     1.0  0.80518  0.96309  0.69276  1.0000
  H   H2716     1.0  0.68255  0.50804  0.72513  1.0000
  H   H2717     1.0  0.72002  0.92026  0.69789  1.0000
  H   H2718     1.0  0.73891  0.90691  0.71651  1.0000
  H   H2719     1.0  0.75879  0.92107  0.68363  1.0000
  H   H2720     1.0  0.76276  0.89093  0.68792  1.0000
  H   H2721     1.0  0.74341  0.90275  0.66908  1.0000
  H   H2722     1.0  0.74436  0.51400  0.71628  1.0000
  H   H2723     1.0  0.81526  0.95123  0.72914  1.0000
  H   H2724     1.0  0.80116  0.92412  0.54651  1.0000
  C   C1537     1.0  0.84963  0.52070  0.49689  1.0000
  C   C1538     1.0  0.91173  0.84802  0.69202  1.0000
  H   H2725     1.0  0.67431  0.81639  0.72599  1.0000
  H   H2726     1.0  0.82031  0.99706  0.49523  1.0000
  H   H2727     1.0  0.50867  0.66662  0.67364  1.0000
  H   H2728     1.0  0.85227  0.84102  0.64880  1.0000
  C   C1539     1.0  0.55788  0.89469  0.57620  1.0000
  C   C1540     1.0  0.59379  0.92432  0.66677  1.0000
  H   H2729     1.0  0.80415  0.89220  0.73432  1.0000
  C   C1541     1.0  0.82517  0.70108  0.49298  1.0000
  N   N84       1.0  0.68901  0.63273  0.63690  1.0000
  C   C1542     1.0  0.70484  0.61310  0.63133  1.0000
  C   C1543     1.0  0.68664  0.63432  0.66031  1.0000
  C   C1544     1.0  0.66602  0.62814  0.62951  1.0000
  C   C1545     1.0  0.69636  0.65470  0.62632  1.0000
  C   C1546     1.0  0.72070  0.66140  0.62967  1.0000
  C   C1547     1.0  0.70833  0.60860  0.60788  1.0000
  C   C1548     1.0  0.64659  0.64552  0.63530  1.0000
  C   C1549     1.0  0.70772  0.62749  0.67288  1.0000
  C   C1550     1.0  0.70375  0.63296  0.69568  1.0000
  C   C1551     1.0  0.72694  0.68209  0.61570  1.0000
  C   C1552     1.0  0.63871  0.54428  0.71652  1.0000
  C   C1553     1.0  0.62392  0.63812  0.62861  1.0000
  H   H2730     1.0  0.69862  0.59738  0.63939  1.0000
  H   H2731     1.0  0.72187  0.61481  0.63712  1.0000
  H   H2732     1.0  0.68073  0.65167  0.66434  1.0000
  H   H2733     1.0  0.67327  0.62308  0.66714  1.0000
  H   H2734     1.0  0.66077  0.61115  0.63569  1.0000
  H   H2735     1.0  0.66655  0.62763  0.61229  1.0000
  H   H2736     1.0  0.69417  0.65477  0.60929  1.0000
  H   H2737     1.0  0.68517  0.66895  0.63175  1.0000
  H   H2738     1.0  0.73339  0.64773  0.62604  1.0000
  H   H2739     1.0  0.72199  0.66602  0.64595  1.0000
  H   H2740     1.0  0.69269  0.60240  0.60197  1.0000
  H   H2741     1.0  0.71318  0.62402  0.59852  1.0000
  H   H2742     1.0  0.64958  0.66225  0.62735  1.0000
  H   H2743     1.0  0.64482  0.64764  0.65227  1.0000
  H   H2744     1.0  0.71143  0.60906  0.67251  1.0000
  H   H2745     1.0  0.72301  0.63597  0.66658  1.0000
  H   H2746     1.0  0.85377  0.77575  0.65913  1.0000
  H   H2747     1.0  0.97925  0.55183  0.71245  1.0000
  H   H2748     1.0  0.68850  0.62468  0.70273  1.0000
  H   H2749     1.0  0.72667  0.67834  0.59904  1.0000
  H   H2750     1.0  0.71502  0.69661  0.61888  1.0000
  C   C1554     1.0  0.84576  0.82374  0.65070  1.0000
  H   H2751     1.0  0.61988  0.82339  0.63841  1.0000
  H   H2752     1.0  0.54732  0.85130  0.62893  1.0000
  H   H2753     1.0  0.84121  0.86834  0.72857  1.0000
  H   H2754     1.0  0.79550  0.91376  0.70563  1.0000
  H   H2755     1.0  0.86174  0.73607  0.67013  1.0000
  C   C1555     1.0  0.83885  0.81808  0.67392  1.0000
  H   H2756     1.0  0.55810  0.90684  0.65126  1.0000
  H   H2757     1.0  0.57233  0.90564  0.57209  1.0000
  C   C1556     1.0  0.56304  0.87845  0.59475  1.0000
  H   H2758     1.0  0.89572  0.64952  0.50269  1.0000
  H   H2759     1.0  0.88534  0.79374  0.67197  1.0000
  C   C1557     1.0  0.88817  0.63984  0.51641  1.0000
  H   H2760     1.0  0.88268  0.83169  0.66869  1.0000
  H   H2761     1.0  0.60505  0.87034  0.62384  1.0000
  H   H2762     1.0  0.67256  0.69248  0.70230  1.0000
  H   H2763     1.0  0.92436  0.84881  0.70399  1.0000
  H   H2764     1.0  0.82447  0.93954  0.68722  1.0000
  C   C1558     1.0  0.51844  0.71730  0.69370  1.0000
  S   S350      1.0  0.87277  0.57901  0.50367  1.0000
  H   H2765     1.0  0.57736  0.69476  0.70926  1.0000
  C   C1559     1.0  0.79662  0.93153  0.70967  1.0000
  C   C1560     1.0  0.52063  0.75637  0.70748  1.0000
  H   H2766     1.0  0.86111  0.62757  0.50037  1.0000
  H   H2767     1.0  0.82627  0.99803  0.52214  1.0000
  H   H2768     1.0  0.68437  0.53394  0.71071  1.0000
  H   H2769     1.0  0.56545  0.66937  0.64570  1.0000
  C   C1561     1.0  0.70045  0.83849  0.71303  1.0000
  H   H2770     1.0  0.97321  0.82389  0.70821  1.0000
  H   H2771     1.0  0.81753  0.79491  0.70737  1.0000
  C   C1562     1.0  0.87142  0.74936  0.67655  1.0000
  H   H2772     1.0  0.57851  0.82805  0.63785  1.0000
  C   C1563     1.0  0.58876  0.83812  0.62606  1.0000
  C   C1564     1.0  0.63885  0.69067  0.71750  1.0000
  H   H2773     1.0  0.82814  0.92425  0.72437  1.0000
  H   H2774     1.0  0.59095  0.91595  0.68247  1.0000
  H   H2775     1.0  0.81198  0.83564  0.64230  1.0000
  H   H2776     1.0  0.92471  0.84086  0.49409  1.0000
  H   H2777     1.0  0.52595  0.88970  0.65447  1.0000
  H   H2778     1.0  0.64781  0.88804  0.71169  1.0000
  C   C1565     1.0  0.50559  0.73653  0.70543  1.0000
  H   H2779     1.0  0.80843  0.95063  0.53373  1.0000
  C   C1566     1.0  0.61480  0.53761  0.71271  1.0000
  C   C1567     1.0  0.68670  0.52593  0.72647  1.0000
  H   H2780     1.0  0.64426  0.92959  0.70214  1.0000
  H   H2781     1.0  0.81509  0.73185  0.50862  1.0000
  H   H2782     1.0  0.90980  0.91658  0.53655  1.0000
  H   H2783     1.0  0.74355  0.59620  0.60888  1.0000
  S   S351      1.0  0.88293  0.89162  0.72559  1.0000
  H   H2784     1.0  0.83087  0.82830  0.62068  1.0000
  H   H2785     1.0  0.61435  0.51914  0.71114  1.0000
  S   S352      1.0  0.58173  0.77446  0.72191  1.0000
  C   C1568     1.0  0.91426  0.92457  0.52094  1.0000
  H   H2786     1.0  0.92128  0.80609  0.51643  1.0000
  H   H2787     1.0  0.52360  0.88849  0.62683  1.0000
  N   N85       1.0  0.69709  0.88183  0.71655  1.0000
  H   H2788     1.0  0.80746  0.56698  0.71220  1.0000
  H   H2789     1.0  0.67651  0.81911  0.69780  1.0000
  H   H2790     1.0  0.72890  0.58703  0.58744  1.0000
  C   C1569     1.0  0.93339  0.83955  0.50883  1.0000
  H   H2791     1.0  0.84663  0.52023  0.54458  1.0000
  H   H2792     1.0  0.78258  0.62094  0.73338  1.0000
  H   H2793     1.0  0.81064  0.53718  0.69360  1.0000
  C   C1570     1.0  0.50676  0.86270  0.64539  1.0000
  C   C1571     1.0  0.83213  0.79435  0.71738  1.0000
  N   N86       1.0  0.95418  0.87638  0.49806  1.0000
  C   C1572     1.0  0.76317  0.51199  0.54598  1.0000
  C   C1573     1.0  0.87423  0.83194  0.68454  1.0000
  H   H2794     1.0  0.94990  0.91746  0.52280  1.0000
  H   H2795     1.0  0.85231  0.91227  0.48961  1.0000
  H   H2796     1.0  0.63487  0.70866  0.71319  1.0000
  H   H2797     1.0  0.70956  0.83674  0.72763  1.0000
  C   C1574     1.0  0.78242  0.60507  0.72514  1.0000
  H   H2798     1.0  0.79479  0.72310  0.49103  1.0000
  C   C1575     1.0  0.99764  0.87509  0.49029  1.0000
  H   H2799     1.0  0.88611  0.83840  0.71505  1.0000
  C   C1576     1.0  0.65680  0.90010  0.72041  1.0000
  H   H2800     1.0  0.94426  0.79925  0.72445  1.0000
  H   H2801     1.0  0.67062  0.85791  0.72294  1.0000
  H   H2802     1.0  0.95900  0.83667  0.73019  1.0000
  H   H2803     1.0  0.67743  0.56855  0.72507  1.0000
  H   H2804     1.0  0.60921  0.54628  0.69803  1.0000
  H   H2805     1.0  0.98714  0.82430  0.73220  1.0000
  C   C1577     1.0  0.96051  0.79982  0.73218  1.0000
  H   H2806     1.0  0.00062  0.85762  0.49688  1.0000
  H   H2807     1.0  0.63843  0.56292  0.71694  1.0000
  H   H2808     1.0  0.81698  0.95290  0.49591  1.0000
  H   H2809     1.0  0.62365  0.68099  0.71554  1.0000
  C   C1578     1.0  0.65730  0.68244  0.70187  1.0000
  H   H2810     1.0  0.98232  0.58154  0.70635  1.0000
  H   H2811     1.0  0.62587  0.92075  0.72397  1.0000
  H   H2812     1.0  0.97157  0.78597  0.72595  1.0000
  C   C1579     1.0  0.71225  0.52687  0.72969  1.0000
  H   H2813     1.0  0.52322  0.55948  0.72844  1.0000
  H   H2814     1.0  0.51208  0.56778  0.70366  1.0000
  H   H2815     1.0  0.85820  0.66920  0.49748  1.0000
  C   C1580     1.0  0.98990  0.56631  0.71454  1.0000
  H   H2816     1.0  0.50810  0.69356  0.66000  1.0000
  H   H2817     1.0  0.69738  0.80236  0.71182  1.0000
  H   H2818     1.0  0.82636  0.63187  0.49116  1.0000
  C   C1581     1.0  0.78275  0.50661  0.53039  1.0000
  N   N87       1.0  0.50709  0.69500  0.69350  1.0000
  C   C1582     1.0  0.80568  0.50527  0.54101  1.0000
  C   C1583     1.0  0.50614  0.68670  0.73352  1.0000
  H   H2819     1.0  0.81511  0.50997  0.49669  1.0000
  H   H2820     1.0  0.56964  0.72896  0.72905  1.0000
  H   H2821     1.0  0.70384  0.59757  0.73365  1.0000
  H   H2822     1.0  0.86011  0.50528  0.49395  1.0000
  H   H2823     1.0  0.65108  0.93509  0.72841  1.0000
  H   H2824     1.0  0.86278  0.50036  0.53012  1.0000
  C   C1584     1.0  0.81598  0.50138  0.69393  1.0000
  Fe  Fe176     1.0  0.78827  0.50013  0.60765  1.0000
  H   H2825     1.0  0.50081  0.90913  0.68751  1.0000
  Fe  Fe177     1.0  0.69055  0.91774  0.87780  1.0000
  S   S353      1.0  0.71746  0.94224  0.88109  1.0000
  S   S354      1.0  0.68698  0.89174  0.90450  1.0000
  Fe  Fe178     1.0  0.67879  0.93814  0.83566  1.0000
  S   S355      1.0  0.70488  0.96434  0.83621  1.0000
  S   S356      1.0  0.65694  0.94104  0.80773  1.0000
  Fe  Fe179     1.0  0.72790  0.93563  0.84786  1.0000
  S   S357      1.0  0.76514  0.93371  0.83623  1.0000
  Fe  Fe180     1.0  0.69205  0.96858  0.86945  1.0000
  S   S358      1.0  0.62811  0.85413  0.76441  1.0000
  S   S359      1.0  0.70252  0.90923  0.84522  1.0000
  S   S360      1.0  0.66445  0.94428  0.86817  1.0000
  Fe  Fe181     1.0  0.68545  0.55200  0.88294  1.0000
  S   S361      1.0  0.71665  0.52967  0.87748  1.0000
  S   S362      1.0  0.68409  0.56741  0.91446  1.0000
  Fe  Fe182     1.0  0.66673  0.54007  0.84204  1.0000
  H   H2826     1.0  0.87487  0.61077  0.83791  1.0000
  S   S363      1.0  0.63853  0.54226  0.81964  1.0000
  H   H2827     1.0  0.66491  0.50192  0.80132  1.0000
  Fe  Fe183     1.0  0.71749  0.54391  0.84422  1.0000
  S   S364      1.0  0.74325  0.55959  0.82007  1.0000
  S   S365      1.0  0.66134  0.52620  0.87510  1.0000
  S   S366      1.0  0.68782  0.56818  0.85051  1.0000
  Fe  Fe184     1.0  0.91131  0.61448  0.75959  1.0000
  H   H2828     1.0  0.97414  0.89882  0.83995  1.0000
  S   S367      1.0  0.94929  0.61196  0.74999  1.0000
  Fe  Fe185     1.0  0.86661  0.60082  0.78330  1.0000
  S   S368      1.0  0.84683  0.62943  0.76818  1.0000
  S   S369      1.0  0.84900  0.57705  0.80769  1.0000
  C   C1585     1.0  0.82748  0.54627  0.74463  1.0000
  H   H2829     1.0  0.64975  0.98454  0.82481  1.0000
  Fe  Fe186     1.0  0.87604  0.65080  0.77329  1.0000
  S   S370      1.0  0.87029  0.68425  0.78880  1.0000
  S   S371      1.0  0.88464  0.58985  0.75349  1.0000
  S   S372      1.0  0.89497  0.62271  0.79076  1.0000
  Fe  Fe187     1.0  0.86191  0.84637  0.79216  1.0000
  S   S373      1.0  0.85860  0.83905  0.75870  1.0000
  S   S374      1.0  0.82771  0.84793  0.81049  1.0000
  Fe  Fe188     1.0  0.91421  0.84529  0.78663  1.0000
  H   H2830     1.0  0.71203  0.91444  0.78008  1.0000
  S   S375      1.0  0.94776  0.84317  0.80287  1.0000
  H   H2831     1.0  0.69027  0.86991  0.74875  1.0000
  H   H2832     1.0  0.94712  0.66457  0.78200  1.0000
  Fe  Fe189     1.0  0.88753  0.81372  0.76255  1.0000
  H   H2833     1.0  0.97901  0.63933  0.81236  1.0000
  S   S376      1.0  0.88706  0.87346  0.78532  1.0000
  S   S377      1.0  0.88913  0.81868  0.79659  1.0000
  H   H2834     1.0  0.66319  0.69536  0.74006  1.0000
  H   H2835     1.0  0.62799  0.69253  0.79087  1.0000
  C   C1586     1.0  0.69551  0.59601  0.74949  1.0000
  C   C1587     1.0  0.97968  0.85625  0.77162  1.0000
  C   C1588     1.0  0.97562  0.84613  0.79150  1.0000
  H   H2836     1.0  0.64196  0.55766  0.98307  1.0000
  H   H2837     1.0  0.55219  0.86428  0.93948  1.0000
  H   H2838     1.0  0.67622  0.68730  0.77087  1.0000
  H   H2839     1.0  0.96559  0.86236  0.76262  1.0000
  H   H2840     1.0  0.65719  0.57109  0.74613  1.0000
  C   C1589     1.0  0.87659  0.71094  0.77654  1.0000
  C   C1590     1.0  0.87389  0.73026  0.78818  1.0000
  C   C1591     1.0  0.87843  0.75179  0.77900  1.0000
  C   C1592     1.0  0.88562  0.75423  0.75800  1.0000
  H   H2841     1.0  0.69707  0.51720  0.92414  1.0000
  C   C1593     1.0  0.88399  0.71337  0.75557  1.0000
  H   H2842     1.0  0.86816  0.72858  0.80440  1.0000
  H   H2843     1.0  0.87621  0.76649  0.78816  1.0000
  C   C1594     1.0  0.59873  0.54212  0.88967  1.0000
  H   H2844     1.0  0.64734  0.72782  0.75401  1.0000
  H   H2845     1.0  0.78304  0.93353  0.79009  1.0000
  H   H2846     1.0  0.78535  0.58423  0.75307  1.0000
  C   C1595     1.0  0.97450  0.60525  0.76318  1.0000
  C   C1596     1.0  0.97456  0.59435  0.78301  1.0000
  C   C1597     1.0  0.60752  0.68713  0.75442  1.0000
  H   H2847     1.0  0.63121  0.96534  0.94207  1.0000
  H   H2848     1.0  0.95874  0.58986  0.79098  1.0000
  H   H2849     1.0  0.56055  0.69268  0.75804  1.0000
  C   C1598     1.0  0.77260  0.56496  0.81778  1.0000
  C   C1599     1.0  0.78801  0.55551  0.83180  1.0000
  C   C1600     1.0  0.81129  0.55941  0.82850  1.0000
  C   C1601     1.0  0.81947  0.57280  0.81122  1.0000
  C   C1602     1.0  0.80401  0.58240  0.79731  1.0000
  C   C1603     1.0  0.78076  0.57858  0.80065  1.0000
  H   H2850     1.0  0.78206  0.54495  0.84502  1.0000
  H   H2851     1.0  0.82306  0.55187  0.83936  1.0000
  H   H2852     1.0  0.81003  0.59260  0.78389  1.0000
  H   H2853     1.0  0.76898  0.58602  0.78975  1.0000
  C   C1604     1.0  0.66022  0.58192  0.92571  1.0000
  C   C1605     1.0  0.66008  0.58687  0.94675  1.0000
  C   C1606     1.0  0.64123  0.59806  0.95641  1.0000
  C   C1607     1.0  0.62237  0.60439  0.94506  1.0000
  C   C1608     1.0  0.62257  0.59955  0.92398  1.0000
  C   C1609     1.0  0.64145  0.58844  0.91430  1.0000
  H   H2854     1.0  0.67464  0.58204  0.95562  1.0000
  H   H2855     1.0  0.64132  0.60187  0.97259  1.0000
  H   H2856     1.0  0.64155  0.58507  0.89800  1.0000
  C   C1610     1.0  0.63606  0.56568  0.80169  1.0000
  C   C1611     1.0  0.64946  0.58429  0.80246  1.0000
  C   C1612     1.0  0.64718  0.60263  0.78785  1.0000
  C   C1613     1.0  0.63173  0.60235  0.77221  1.0000
  C   C1614     1.0  0.61841  0.58368  0.77133  1.0000
  C   C1615     1.0  0.62051  0.56546  0.78611  1.0000
  H   H2857     1.0  0.66150  0.58463  0.81437  1.0000
  H   H2858     1.0  0.65756  0.61700  0.78861  1.0000
  H   H2859     1.0  0.60810  0.60457  0.91506  1.0000
  H   H2860     1.0  0.61002  0.55114  0.78550  1.0000
  C   C1616     1.0  0.78224  0.90940  0.82972  1.0000
  C   C1617     1.0  0.77346  0.88800  0.82940  1.0000
  C   C1618     1.0  0.78763  0.86939  0.82359  1.0000
  C   C1619     1.0  0.81064  0.87196  0.81774  1.0000
  C   C1620     1.0  0.81938  0.89336  0.81801  1.0000
  C   C1621     1.0  0.80529  0.91190  0.82406  1.0000
  H   H2861     1.0  0.75580  0.88574  0.83374  1.0000
  H   H2862     1.0  0.78070  0.85289  0.82358  1.0000
  H   H2863     1.0  0.83709  0.89553  0.81384  1.0000
  H   H2864     1.0  0.81227  0.92833  0.82443  1.0000
  C   C1622     1.0  0.85183  0.64031  0.83503  1.0000
  N   N88       1.0  0.63057  0.69610  0.75706  1.0000
  C   C1623     1.0  0.64869  0.91678  0.79600  1.0000
  C   C1624     1.0  0.63355  0.91918  0.77994  1.0000
  C   C1625     1.0  0.62671  0.90014  0.77029  1.0000
  C   C1626     1.0  0.63535  0.87863  0.77637  1.0000
  C   C1627     1.0  0.65048  0.87630  0.79240  1.0000
  C   C1628     1.0  0.65706  0.89525  0.80224  1.0000
  H   H2865     1.0  0.62691  0.93578  0.77509  1.0000
  H   H2866     1.0  0.84394  0.93530  0.79825  1.0000
  H   H2867     1.0  0.65714  0.85970  0.79728  1.0000
  H   H2868     1.0  0.66868  0.89318  0.81459  1.0000
  C   C1629     1.0  0.66371  0.89423  0.92240  1.0000
  C   C1630     1.0  0.66493  0.88306  0.94203  1.0000
  C   C1631     1.0  0.64625  0.88353  0.95635  1.0000
  C   C1632     1.0  0.62641  0.89563  0.95134  1.0000
  C   C1633     1.0  0.62528  0.90719  0.93181  1.0000
  C   C1634     1.0  0.64383  0.90634  0.91726  1.0000
  H   H2869     1.0  0.68025  0.87360  0.94603  1.0000
  H   H2870     1.0  0.63402  0.98328  0.79385  1.0000
  H   H2871     1.0  0.60991  0.91654  0.92782  1.0000
  H   H2872     1.0  0.64268  0.91484  0.90207  1.0000
  H   H2873     1.0  0.63273  0.54642  0.94703  1.0000
  C   C1635     1.0  0.61968  0.75962  0.76914  1.0000
  C   C1636     1.0  0.82092  0.92273  0.76416  1.0000
  H   H2874     1.0  0.65245  0.84142  0.94224  1.0000
  H   H2875     1.0  0.70248  0.88610  0.78162  1.0000
  C   C1637     1.0  0.74885  0.92626  0.92742  1.0000
  H   H2876     1.0  0.78951  0.65506  0.87571  1.0000
  H   H2877     1.0  0.63441  0.98375  0.75584  1.0000
  H   H2878     1.0  0.59497  0.97090  0.85197  1.0000
  H   H2879     1.0  0.81962  0.95773  0.77386  1.0000
  C   C1638     1.0  0.85092  0.94147  0.78274  1.0000
  H   H2880     1.0  0.80305  0.68835  0.89114  1.0000
  H   H2881     1.0  0.63580  0.96177  0.91459  1.0000
  N   N89       1.0  0.62436  0.82679  0.92897  1.0000
  C   C1639     1.0  0.62866  0.84272  0.91018  1.0000
  C   C1640     1.0  0.60552  0.83652  0.94307  1.0000
  C   C1641     1.0  0.64579  0.82457  0.94066  1.0000
  C   C1642     1.0  0.61917  0.80349  0.92304  1.0000
  C   C1643     1.0  0.59810  0.80156  0.91035  1.0000
  C   C1644     1.0  0.64944  0.83674  0.89551  1.0000
  H   H2882     1.0  0.60380  0.55343  0.91987  1.0000
  C   C1645     1.0  0.58606  0.85042  0.93244  1.0000
  H   H2883     1.0  0.99547  0.61922  0.73773  1.0000
  C   C1646     1.0  0.59642  0.77756  0.90345  1.0000
  C   C1647     1.0  0.65044  0.85288  0.87616  1.0000
  H   H2884     1.0  0.77256  0.50755  0.75546  1.0000
  H   H2885     1.0  0.63110  0.85993  0.91542  1.0000
  H   H2886     1.0  0.61386  0.84467  0.90045  1.0000
  H   H2887     1.0  0.71403  0.91495  0.74157  1.0000
  H   H2888     1.0  0.78767  0.69660  0.86843  1.0000
  H   H2889     1.0  0.59198  0.86735  0.92703  1.0000
  H   H2890     1.0  0.65932  0.81497  0.93179  1.0000
  H   H2891     1.0  0.63396  0.79558  0.91442  1.0000
  H   H2892     1.0  0.61638  0.79223  0.93725  1.0000
  H   H2893     1.0  0.59854  0.81297  0.89615  1.0000
  H   H2894     1.0  0.58258  0.80539  0.92017  1.0000
  H   H2895     1.0  0.66536  0.83830  0.90346  1.0000
  H   H2896     1.0  0.64882  0.81938  0.89026  1.0000
  H   H2897     1.0  0.77992  0.52235  0.79934  1.0000
  H   H2898     1.0  0.60808  0.76872  0.78024  1.0000
  C   C1648     1.0  0.71276  0.89838  0.77202  1.0000
  H   H2899     1.0  0.58027  0.84245  0.91876  1.0000
  C   C1649     1.0  0.76964  0.51572  0.78740  1.0000
  H   H2900     1.0  0.83045  0.52202  0.77132  1.0000
  H   H2901     1.0  0.56603  0.79488  0.97072  1.0000
  H   H2902     1.0  0.58091  0.77648  0.89476  1.0000
  H   H2903     1.0  0.61126  0.77285  0.89306  1.0000
  H   H2904     1.0  0.59546  0.76534  0.91715  1.0000
  H   H2905     1.0  0.63556  0.85119  0.86677  1.0000
  H   H2906     1.0  0.65096  0.87062  0.88061  1.0000
  H   H2907     1.0  0.66598  0.84895  0.86638  1.0000
  H   H2908     1.0  0.68615  0.91019  0.75264  1.0000
  H   H2909     1.0  0.75271  0.93989  0.91540  1.0000
  C   C1650     1.0  0.80328  0.68771  0.87395  1.0000
  H   H2910     1.0  0.70563  0.50074  0.94689  1.0000
  N   N90       1.0  0.62691  0.51254  0.93839  1.0000
  H   H2911     1.0  0.55851  0.83749  0.95290  1.0000
  C   C1651     1.0  0.79383  0.90055  0.74678  1.0000
  C   C1652     1.0  0.70280  0.88013  0.73920  1.0000
  H   H2912     1.0  0.75370  0.52618  0.78626  1.0000
  H   H2913     1.0  0.60460  0.53809  0.95248  1.0000
  H   H2914     1.0  0.95288  0.71417  0.76714  1.0000
  H   H2915     1.0  0.71546  0.98362  0.96389  1.0000
  H   H2916     1.0  0.63151  0.82200  0.97306  1.0000
  H   H2917     1.0  0.59853  0.69783  0.74259  1.0000
  C   C1653     1.0  0.67346  0.56221  0.74139  1.0000
  C   C1654     1.0  0.56764  0.67903  0.76859  1.0000
  H   H2918     1.0  0.54224  0.81110  0.98165  1.0000
  C   C1655     1.0  0.98553  0.89748  0.82577  1.0000
  H   H2919     1.0  0.53895  0.78231  0.97490  1.0000
  H   H2920     1.0  0.70685  0.60247  0.76067  1.0000
  H   H2921     1.0  0.79431  0.54907  0.77092  1.0000
  C   C1656     1.0  0.56551  0.85392  0.94745  1.0000
  C   C1657     1.0  0.86357  0.53134  0.76063  1.0000
  H   H2922     1.0  0.59411  0.51329  0.92498  1.0000
  H   H2923     1.0  0.65973  0.99431  0.78199  1.0000
  C   C1658     1.0  0.61327  0.97325  0.84846  1.0000
  H   H2924     1.0  0.78839  0.95736  0.75596  1.0000
  H   H2925     1.0  0.70247  0.92652  0.98133  1.0000
  H   H2926     1.0  0.84052  0.51090  0.74671  1.0000
  H   H2927     1.0  0.97780  0.90765  0.81280  1.0000
  N   N91       1.0  0.67081  0.53696  0.74235  1.0000
  H   H2928     1.0  0.97794  0.74501  0.77361  1.0000
  H   H2929     1.0  0.62181  0.97205  0.86337  1.0000
  H   H2930     1.0  0.65034  0.66881  0.74305  1.0000
  H   H2931     1.0  0.72441  0.95892  0.97864  1.0000
  H   H2932     1.0  0.65296  0.93145  0.96963  1.0000
  H   H2933     1.0  0.78519  0.84948  0.77550  1.0000
  H   H2934     1.0  0.76921  0.94031  0.74500  1.0000
  H   H2935     1.0  0.99131  0.83052  0.81838  1.0000
  H   H2936     1.0  0.65539  0.52788  0.92160  1.0000
  H   H2937     1.0  0.88808  0.63746  0.83797  1.0000
  H   H2938     1.0  0.83456  0.91051  0.75873  1.0000
  H   H2939     1.0  0.66473  0.97237  0.96166  1.0000
  N   N92       1.0  0.80809  0.63851  0.83592  1.0000
  C   C1659     1.0  0.83032  0.62747  0.84213  1.0000
  C   C1660     1.0  0.78881  0.62348  0.84286  1.0000
  C   C1661     1.0  0.80902  0.64123  0.81243  1.0000
  C   C1662     1.0  0.80418  0.66166  0.84418  1.0000
  H   H2940     1.0  0.64240  0.51715  0.97901  1.0000
  C   C1663     1.0  0.78654  0.64897  0.80237  1.0000
  C   C1664     1.0  0.79095  0.60880  0.86343  1.0000
  C   C1665     1.0  0.76858  0.59820  0.87040  1.0000
  H   H2941     1.0  0.81662  0.67346  0.83664  1.0000
  C   C1666     1.0  0.78944  0.64980  0.77864  1.0000
  H   H2942     1.0  0.83237  0.61040  0.83584  1.0000
  H   H2943     1.0  0.83069  0.62438  0.85920  1.0000
  H   H2944     1.0  0.77255  0.63361  0.84394  1.0000
  H   H2945     1.0  0.78658  0.61098  0.83101  1.0000
  H   H2946     1.0  0.81504  0.62508  0.80571  1.0000
  H   H2947     1.0  0.82156  0.65382  0.80665  1.0000
  H   H2948     1.0  0.66194  0.53572  0.77533  1.0000
  H   H2949     1.0  0.78744  0.66905  0.83983  1.0000
  H   H2950     1.0  0.93501  0.75264  0.76399  1.0000
  C   C1667     1.0  0.67067  0.50131  0.76769  1.0000
  H   H2951     1.0  0.78094  0.66613  0.80691  1.0000
  H   H2952     1.0  0.77283  0.63734  0.80696  1.0000
  H   H2953     1.0  0.80378  0.59482  0.86102  1.0000
  H   H2954     1.0  0.79619  0.61850  0.87631  1.0000
  H   H2955     1.0  0.75544  0.61144  0.87428  1.0000
  H   H2956     1.0  0.76259  0.58812  0.85799  1.0000
  H   H2957     1.0  0.77088  0.58681  0.88446  1.0000
  H   H2958     1.0  0.77094  0.54827  0.75518  1.0000
  H   H2959     1.0  0.85906  0.95763  0.78452  1.0000
  H   H2960     1.0  0.86340  0.54560  0.77105  1.0000
  H   H2961     1.0  0.79409  0.63275  0.77314  1.0000
  H   H2962     1.0  0.61233  0.84846  0.95359  1.0000
  H   H2963     1.0  0.80275  0.66158  0.77300  1.0000
  H   H2964     1.0  0.63475  0.53815  0.74991  1.0000
  H   H2965     1.0  0.97848  0.68732  0.79147  1.0000
  C   C1668     1.0  0.64668  0.68726  0.74009  1.0000
  H   H2966     1.0  0.58093  0.53764  0.89331  1.0000
  S   S378      1.0  0.89346  0.64382  0.74245  1.0000
  H   H2967     1.0  0.67989  0.80315  0.96382  1.0000
  H   H2968     1.0  0.99507  0.58007  0.80756  1.0000
  C   C1669     1.0  0.71362  0.94833  0.94054  1.0000
  H   H2969     1.0  0.78724  0.89001  0.78019  1.0000
  C   C1670     1.0  0.73620  0.93597  0.94643  1.0000
  H   H2970     1.0  0.88611  0.69867  0.74642  1.0000
  H   H2971     1.0  0.60670  0.53059  0.87815  1.0000
  C   C1671     1.0  0.62993  0.72154  0.75467  1.0000
  H   H2972     1.0  0.63934  0.66840  0.77861  1.0000
  H   H2973     1.0  0.94415  0.63693  0.79435  1.0000
  H   H2974     1.0  0.68422  0.57033  0.77196  1.0000
  H   H2975     1.0  0.61889  0.72832  0.78720  1.0000
  N   N93       1.0  0.97175  0.78087  0.76773  1.0000
  H   H2976     1.0  0.93695  0.79622  0.82381  1.0000
  C   C1672     1.0  0.67395  0.52703  0.76416  1.0000
  H   H2977     1.0  0.97946  0.67900  0.81812  1.0000
  C   C1673     1.0  0.99424  0.83840  0.80298  1.0000
  H   H2978     1.0  0.59810  0.82292  0.95360  1.0000
  C   C1674     1.0  0.70921  0.96825  0.97273  1.0000
  C   C1675     1.0  0.80449  0.66314  0.86801  1.0000
  H   H2979     1.0  0.97786  0.77076  0.79985  1.0000
  H   H2980     1.0  0.73865  0.91359  0.92064  1.0000
  H   H2981     1.0  0.61660  0.76672  0.75318  1.0000
  C   C1676     1.0  0.75237  0.95200  0.78282  1.0000
  Fe  Fe190     1.0  0.86594  0.61975  0.73872  1.0000
  C   C1677     1.0  0.61201  0.51672  0.92013  1.0000
  S   S379      1.0  0.91354  0.83909  0.75281  1.0000
  H   H2982     1.0  0.59717  0.73269  0.76854  1.0000
  C   C1678     1.0  0.61533  0.73441  0.77112  1.0000
  H   H2983     1.0  0.96718  0.79893  0.79585  1.0000
  C   C1679     1.0  0.61187  0.54084  0.90944  1.0000
  C   C1680     1.0  0.83946  0.52596  0.75611  1.0000
  H   H2984     1.0  0.73993  0.95377  0.77054  1.0000
  C   C1681     1.0  0.55056  0.79398  0.98122  1.0000
  H   H2985     1.0  0.75982  0.96853  0.78460  1.0000
  C   C1682     1.0  0.99522  0.58881  0.79237  1.0000
  C   C1683     1.0  0.63932  0.68722  0.77763  1.0000
  H   H2986     1.0  0.79130  0.85375  0.74789  1.0000
  H   H2987     1.0  0.94187  0.66117  0.80998  1.0000
  C   C1684     1.0  0.95079  0.65381  0.79618  1.0000
  H   H2988     1.0  0.67658  0.95963  0.91695  1.0000
  H   H2989     1.0  0.95477  0.81352  0.76300  1.0000
  H   H2990     1.0  0.76502  0.91780  0.93203  1.0000
  C   C1685     1.0  0.98627  0.67442  0.80239  1.0000
  H   H2991     1.0  0.86402  0.92903  0.77697  1.0000
  H   H2992     1.0  0.92041  0.77152  0.82676  1.0000
  H   H2993     1.0  0.68709  0.68946  0.80673  1.0000
  S   S380      1.0  0.60275  0.89628  0.96903  1.0000
  H   H2994     1.0  0.66951  0.66586  0.80475  1.0000
  H   H2995     1.0  0.87199  0.51642  0.76856  1.0000
  S   S381      1.0  0.62986  0.62542  0.75385  1.0000
  N   N94       1.0  0.80370  0.54289  0.73868  1.0000
  N   N95       1.0  0.69720  0.95409  0.95848  1.0000
  H   H2996     1.0  0.69004  0.91850  0.95885  1.0000
  C   C1686     1.0  0.66606  0.93258  0.98110  1.0000
  N   N96       1.0  0.80205  0.92393  0.74934  1.0000
  C   C1687     1.0  0.96573  0.78151  0.79078  1.0000
  C   C1688     1.0  0.77092  0.93414  0.77766  1.0000
  C   C1689     1.0  0.62635  0.52674  0.97625  1.0000
  H   H2997     1.0  0.64421  0.98724  0.92530  1.0000
  C   C1690     1.0  0.87290  0.62813  0.84351  1.0000
  S   S382      1.0  0.59822  0.61824  0.95656  1.0000
  H   H2998     1.0  0.67194  0.83007  0.97461  1.0000
  H   H2999     1.0  0.98693  0.87953  0.82185  1.0000
  H   H3000     1.0  0.62312  0.72751  0.73951  1.0000
  H   H3001     1.0  0.87355  0.53577  0.74597  1.0000
  C   C1691     1.0  0.97217  0.75696  0.76086  1.0000
  C   C1692     1.0  0.67787  0.96815  0.94949  1.0000
  H   H3002     1.0  0.76258  0.91787  0.77770  1.0000
  S   S383      1.0  0.89158  0.78094  0.74574  1.0000
  H   H3003     1.0  0.63909  0.79521  0.96235  1.0000
  H   H3004     1.0  0.57011  0.86295  0.96106  1.0000
  H   H3005     1.0  0.65792  0.69135  0.81610  1.0000
  H   H3006     1.0  0.60928  0.67000  0.74823  1.0000
  C   C1693     1.0  0.64402  0.81292  0.96281  1.0000
  H   H3007     1.0  0.74319  0.94692  0.79772  1.0000
  H   H3008     1.0  0.83674  0.79513  0.75062  1.0000
  C   C1694     1.0  0.79505  0.88323  0.76576  1.0000
  H   H3009     1.0  0.95019  0.76908  0.83121  1.0000
  H   H3010     1.0  0.52830  0.66127  0.74880  1.0000
  H   H3011     1.0  0.66423  0.71267  0.78202  1.0000
  C   C1695     1.0  0.62257  0.53178  0.95274  1.0000
  H   H3012     1.0  0.99884  0.66357  0.75928  1.0000
  C   C1696     1.0  0.66978  0.68457  0.80379  1.0000
  H   H3013     1.0  0.63734  0.76263  0.77270  1.0000
  H   H3014     1.0  0.59016  0.69931  0.78342  1.0000
  H   H3015     1.0  0.77333  0.65578  0.77182  1.0000
  C   C1697     1.0  0.93724  0.77782  0.82150  1.0000
  H   H3016     1.0  0.99292  0.71938  0.80524  1.0000
  H   H3017     1.0  0.81503  0.91605  0.77980  1.0000
  C   C1698     1.0  0.66334  0.69406  0.78228  1.0000
  H   H3018     1.0  0.59776  0.66976  0.78433  1.0000
  H   H3019     1.0  0.61480  0.90206  0.75818  1.0000
  C   C1699     1.0  0.66617  0.95754  0.93178  1.0000
  C   C1700     1.0  0.59145  0.68419  0.77418  1.0000
  H   H3020     1.0  0.62917  0.54604  0.90498  1.0000
  H   H3021     1.0  0.59882  0.55958  0.88252  1.0000
  H   H3022     1.0  0.76511  0.86525  0.75976  1.0000
  C   C1701     1.0  0.94974  0.74851  0.75343  1.0000
  H   H3023     1.0  0.70729  0.56170  0.75481  1.0000
  H   H3024     1.0  0.56792  0.66275  0.76097  1.0000
  C   C1702     1.0  0.51036  0.66751  0.74984  1.0000
  C   C1703     1.0  0.99531  0.61077  0.75304  1.0000
  H   H3025     1.0  0.61709  0.50494  0.90772  1.0000
  C   C1704     1.0  0.78294  0.51576  0.76641  1.0000
  H   H3026     1.0  0.79862  0.50524  0.76850  1.0000
  S   S384      1.0  0.69609  0.51613  0.83476  1.0000
  H   H3027     1.0  0.60635  0.58336  0.75943  1.0000
  H   H3028     1.0  0.64717  0.87432  0.97119  1.0000
  Fe  Fe191     1.0  0.88470  0.86482  0.75200  1.0000
  C   C1705     1.0  0.94213  0.77337  0.79855  1.0000
  C   C1706     1.0  0.95111  0.72295  0.75161  1.0000
  H   H3029     1.0  0.73328  0.92185  0.95814  1.0000
  H   H3030     1.0  0.81298  0.87836  0.76862  1.0000
  H   H3031     1.0  0.55644  0.67759  0.78295  1.0000
  H   H3032     1.0  0.98494  0.75457  0.74774  1.0000
  C   C1707     1.0  0.64138  0.99792  0.78489  1.0000
  H   H3033     1.0  0.81825  0.69661  0.86713  1.0000
  C   C1708     1.0  0.64290  0.96875  0.92830  1.0000
  H   H3034     1.0  0.82770  0.56047  0.75513  1.0000
  C   C1709     1.0  0.78278  0.93976  0.75618  1.0000
  H   H3035     1.0  0.92832  0.78206  0.78995  1.0000
  H   H3036     1.0  0.71790  0.96384  0.93080  1.0000
  C   C1710     1.0  0.68991  0.93239  0.96977  1.0000
  H   H3037     1.0  0.82009  0.65513  0.87428  1.0000
  H   H3038     1.0  0.94150  0.75491  0.79714  1.0000
  H   H3039     1.0  0.85090  0.65762  0.84064  1.0000
  H   H3040     1.0  0.70566  0.93720  0.92999  1.0000
  H   H3041     1.0  0.74749  0.94791  0.95282  1.0000
  C   C1711     1.0  0.83216  0.94518  0.76745  1.0000
  H   H3042     1.0  0.85429  0.64137  0.81784  1.0000
  H   H3043     1.0  0.66420  0.93932  0.93529  1.0000
  H   H3044     1.0  0.69091  0.53012  0.76945  1.0000
  C   C1712     1.0  0.97622  0.65138  0.79885  1.0000
  C   C1713     1.0  0.78338  0.86164  0.76187  1.0000
  H   H3045     1.0  0.98406  0.64355  0.78498  1.0000
  H   H3046     1.0  0.93805  0.79114  0.75838  1.0000
  H   H3047     1.0  0.87187  0.62722  0.86078  1.0000
  C   C1714     1.0  0.66936  0.50698  0.94586  1.0000
  H   H3048     1.0  0.62004  0.95949  0.83862  1.0000
  H   H3049     1.0  0.68387  0.98474  0.94297  1.0000
  C   C1715     1.0  0.88841  0.73492  0.74636  1.0000
  H   H3050     1.0  0.73059  0.89184  0.77083  1.0000
  C   C1716     1.0  0.95561  0.79669  0.75615  1.0000
  C   C1717     1.0  0.66663  0.81260  0.97305  1.0000
  H   H3051     1.0  0.99468  0.80828  0.76715  1.0000
  H   H3052     1.0  0.84013  0.95233  0.75270  1.0000
  C   C1718     1.0  0.69092  0.57135  0.75550  1.0000
  H   H3053     1.0  0.71930  0.87072  0.74103  1.0000
  C   C1719     1.0  0.70348  0.90249  0.75043  1.0000
  H   H3054     1.0  0.81041  0.78425  0.74421  1.0000
  C   C1720     1.0  0.78791  0.54014  0.75794  1.0000
  H   H3055     1.0  0.67952  0.60649  0.74987  1.0000
  Fe  Fe192     1.0  0.69219  0.50422  0.86864  1.0000
  H   H3056     1.0  0.67037  0.52199  0.95516  1.0000
  H   H3057     1.0  0.62716  0.97833  0.98180  1.0000
  H   H3058     1.0  0.60658  0.99697  0.82320  1.0000
  H   H3059     1.0  0.61238  0.51659  0.98344  1.0000
  H   H3060     1.0  0.71656  0.52082  0.74560  1.0000
  H   H3061     1.0  0.96559  0.71785  0.74097  1.0000
  H   H3062     1.0  0.00057  0.78934  0.74706  1.0000
  H   H3063     1.0  0.93536  0.71752  0.74526  1.0000
  H   H3064     1.0  0.61140  0.55958  0.98462  1.0000
  H   H3065     1.0  0.77624  0.90159  0.74151  1.0000
  C   C1721     1.0  0.82286  0.79727  0.73971  1.0000
  H   H3066     1.0  0.81433  0.81418  0.74124  1.0000
  C   C1722     1.0  0.69266  0.50278  0.93512  1.0000
  H   H3067     1.0  0.50629  0.67352  0.76566  1.0000
  H   H3068     1.0  0.81180  0.59155  0.74009  1.0000
  C   C1723     1.0  0.99503  0.79009  0.76377  1.0000
  C   C1724     1.0  0.65113  0.51160  0.92985  1.0000
  C   C1725     1.0  0.61663  0.99626  0.83718  1.0000
  C   C1726     1.0  0.64691  0.53269  0.73713  1.0000
  H   H3069     1.0  0.94620  0.75640  0.73787  1.0000
  H   H3070     1.0  0.51603  0.70110  0.73747  1.0000
  H   H3071     1.0  0.71508  0.50907  0.98486  1.0000
  C   C1727     1.0  0.79454  0.58607  0.73769  1.0000
  C   C1728     1.0  0.63080  0.99972  0.76378  1.0000
  H   H3072     1.0  0.65653  0.89398  0.73695  1.0000
