data_image0
_chemical_formula_structural       HCSHFeSFeHNFeS2FeS2FeSFeS4HSFeS2FeS2FeSFeS3H4C7H6SC6H4CHC2H4C7H4C3H4CHCH3CHCHSH3CH2CHNC5HC4H13CH9CSH2CHNC9HC2H10CH6CHCH2C2H3C2HCHCFeC2HCHCHCH6CH2CH7C2HCH3CHCHC3H2SCH4C2H3CH5CHCHFeH7CH2NHCH3C2H2FeH2CHCHC2H3NC2H3CSC2H3NHC2H10C2H2NHCHCH6CH3C2H3CHCH2CH5CHCHCH3CH5C2HCH3C2H4FeHSHCHSCFeS2FeS2FeSFeS3CSHCFeS2FeS2FeSFeS3C6H4CHCHC3H2C6H4C6H4C3H2CHCH3CNH2C4H5NHC4HC4HC2H9SH3CH8CH4CH2CH2C3HCH2CH3NC2HCH2CH5CH4C2H2C3H5CH3CH3FeCH4C2H5CH2SCH4CH5CH2FeH5CHCHS2C2NC12H17CH3C3H5C2HFeHC2H9CSH2NH2SHFeSFe2S2FeS2FeSFeS3FeS2HSHSHSFeS2FeS2FeSFeS3H5C2H3C6H4FeHCHC9H4CHC2HCH5SHC6H4CH4CNC7HCHCH4C2H11C2H4CHCHCHC2H2CHCH5CH3CH2CHCH2CHCH6CH3CHSH3FeCH4CH2CSH5CH3CH3CHC3H2CH5C3NHCHNHC4HC4HCHCH2NH18CH4NC8SCH7FeH7CH4C2H3CH3CHC2HFeHFeS2FeHS2FeS2FeS2FeSFeS3CFeSHCFeSCFeS2FeS2FeSFeS3C6H5CHCHC2H2C3SHC6H5C3H2SFeHC7H4C2H2CHCH3CH3CH4S2H6C3HC2NH2CSH3CH4CH3CH3CNC2NC7H3C2H8C2H4C2H4CH3NH3CHCH14C2H5CH3CH4CHCH2CH2NC4HC4H15CH2C2H2SC2H2CFeCH8CH2CH2CH6CH4C2H4NC6HC3H14C2H11NH2CHC2HCHCH2CH9C2H2C2HCH6CH2CH3CH2CSCFeS2FeS2FeSFeS3H2SFeS2FeS2FeSFeS3CH4C2H2CH5CHC6H4C6H4C2H2CHC6H4C3H2CNC9H16SCH2NC6HC2H5CH4C2H6NH13CHCHCH2CHCH4C2H2CH5NFeCHCH3NC12H30CH2CH3CHCHCH3CH3CH3C2H6CH3CH2CNC8HCHCH16CH2CH2CHCH3CHCH2NCH4CSHCH6CH4SFeS2FeS2FeSFeS3CHCS2H3FeS2FeS2FeSFeS3C4H4C2H2C6H4C2H3CHC6H4C6H4C3H4C2HCNC12H28SHCNH2CHCH3FeH4CH3CHCHCH3CH3C6H2CH4CH3C2H2NH3CH4CH2CHC2NC9HCH22C2H2C2HC2HCHCHC2H5CH6C3H12CH3C2HCHCHCH2CH7C2HCH2CHNH3CHCH3CH5CSH2NH4CH7CH2CHCH8CHCHC2HCH3CHSH2CFeS2FeS2FeSFeS3FeS2FeCFeS3FeS2FeS2FeSFeS3CH4CHC2HCH2CH4C6H4C6H5CHC2H2CH2CHCH2C6H8CH4CHCHC2H2CHCNC2NHC4HC4HCH6CHCH2CH18NC7HCHCH14CH5CH2CHCSHNC9HC2H12CH8SHNH5CH2C3HCHC2H6CH11C2H12C3H2CHCH2CHC2FeHC2NHCHCH2CH2CNHSFeSCFeS2FeSFeS4HFeSFeS2FeS2FeSFeS3C2H2CH2C2HC6H4C2H3CH2C6H5SC9H4C3HCHCH7CH5FeH3CH5CH2FeCH3C2HC2HC2H7C2H2C2H5FeC2HCH2CNCH3C2H3C2HCNC2H4C3HCH12SH5CHNC4HCSH15CNC12H29C4H3SHC3HCHCH2CHCH2CH2CHCH9SH
_chemical_formula_sum              "H1536 C864 S192 Fe96 N48"
_cell_length_a       52.8443
_cell_length_b       53.0976
_cell_length_c       41.9702
_cell_angle_alpha    88.3879
_cell_angle_beta     88.8508
_cell_angle_gamma    90.1523

_space_group_name_H-M_alt    "P 1"
_space_group_IT_number       1

loop_
  _space_group_symop_operation_xyz
  'x, y, z'

loop_
  _atom_site_type_symbol
  _atom_site_label
  _atom_site_symmetry_multiplicity
  _atom_site_fract_x
  _atom_site_fract_y
  _atom_site_fract_z
  _atom_site_occupancy
  H   H1        1.0  0.16367  0.28459  0.46396  1.0000
  C   C1        1.0  0.29129  0.05577  0.45829  1.0000
  S   S1        1.0  0.46176  0.13633  0.13675  1.0000
  H   H2        1.0  0.32150  0.21370  0.42174  1.0000
  Fe  Fe1       1.0  0.47508  0.14788  0.18469  1.0000
  S   S2        1.0  0.45105  0.16545  0.22415  1.0000
  Fe  Fe2       1.0  0.48394  0.10124  0.14612  1.0000
  H   H3        1.0  0.12967  0.42384  0.39144  1.0000
  N   N1        1.0  0.04044  0.35225  0.25738  1.0000
  Fe  Fe3       1.0  0.29246  0.09457  0.35561  1.0000
  S   S3        1.0  0.32964  0.11508  0.35660  1.0000
  S   S4        1.0  0.29993  0.05297  0.36606  1.0000
  Fe  Fe4       1.0  0.26289  0.14495  0.34663  1.0000
  S   S5        1.0  0.29872  0.16802  0.34573  1.0000
  S   S6        1.0  0.22204  0.15988  0.34769  1.0000
  Fe  Fe5       1.0  0.31568  0.13772  0.31472  1.0000
  S   S7        1.0  0.33723  0.13798  0.26664  1.0000
  Fe  Fe6       1.0  0.30944  0.14260  0.38751  1.0000
  S   S8        1.0  0.32614  0.15641  0.43339  1.0000
  S   S9        1.0  0.27875  0.11619  0.31262  1.0000
  S   S10       1.0  0.27315  0.12081  0.38937  1.0000
  S   S11       1.0  0.10131  0.47236  0.15362  1.0000
  H   H4        1.0  0.46565  0.19396  0.12815  1.0000
  S   S12       1.0  0.14045  0.44000  0.22166  1.0000
  Fe  Fe7       1.0  0.10953  0.33859  0.36225  1.0000
  S   S13       1.0  0.11816  0.30759  0.32867  1.0000
  S   S14       1.0  0.10817  0.38055  0.35004  1.0000
  Fe  Fe8       1.0  0.09379  0.30156  0.41637  1.0000
  S   S15       1.0  0.10102  0.26756  0.38645  1.0000
  S   S16       1.0  0.07638  0.29566  0.46601  1.0000
  Fe  Fe9       1.0  0.13683  0.28742  0.37010  1.0000
  S   S17       1.0  0.17690  0.27093  0.36464  1.0000
  Fe  Fe10      1.0  0.08181  0.29028  0.34777  1.0000
  S   S18       1.0  0.05552  0.27409  0.31169  1.0000
  S   S19       1.0  0.13085  0.32023  0.40274  1.0000
  S   S20       1.0  0.07194  0.32241  0.37867  1.0000
  H   H5        1.0  0.25952  0.15925  0.44792  1.0000
  H   H6        1.0  0.17211  0.18339  0.28774  1.0000
  H   H7        1.0  0.47441  0.02313  0.00986  1.0000
  H   H8        1.0  0.11192  0.33759  0.46790  1.0000
  C   C2        1.0  0.46533  0.01614  0.15464  1.0000
  C   C3        1.0  0.12998  0.42209  0.25585  1.0000
  C   C4        1.0  0.11069  0.43089  0.27582  1.0000
  C   C5        1.0  0.10379  0.41751  0.30402  1.0000
  C   C6        1.0  0.11575  0.39481  0.31242  1.0000
  C   C7        1.0  0.13431  0.38523  0.29183  1.0000
  C   C8        1.0  0.14157  0.39899  0.26380  1.0000
  H   H9        1.0  0.10133  0.44819  0.26974  1.0000
  H   H10       1.0  0.08905  0.42476  0.31943  1.0000
  H   H11       1.0  0.14380  0.36782  0.29815  1.0000
  H   H12       1.0  0.15653  0.39196  0.24851  1.0000
  H   H13       1.0  0.17081  0.18677  0.24510  1.0000
  H   H14       1.0  0.02635  0.34176  0.30453  1.0000
  S   S21       1.0  0.02945  0.46601  0.16593  1.0000
  C   C9        1.0  0.21024  0.19084  0.35425  1.0000
  C   C10       1.0  0.18421  0.19408  0.36082  1.0000
  C   C11       1.0  0.17376  0.21831  0.36477  1.0000
  C   C12       1.0  0.18913  0.23975  0.36151  1.0000
  C   C13       1.0  0.21521  0.23650  0.35529  1.0000
  C   C14       1.0  0.22574  0.21226  0.35182  1.0000
  H   H15       1.0  0.17200  0.17769  0.36279  1.0000
  H   H16       1.0  0.15375  0.22041  0.36998  1.0000
  H   H17       1.0  0.22736  0.25291  0.35289  1.0000
  H   H18       1.0  0.24575  0.21019  0.34662  1.0000
  C   C15       1.0  0.31456  0.14353  0.47022  1.0000
  H   H19       1.0  0.16768  0.27990  0.23424  1.0000
  C   C16       1.0  0.29648  0.12428  0.47120  1.0000
  C   C17       1.0  0.17412  0.30463  0.27277  1.0000
  H   H20       1.0  0.29035  0.11632  0.44946  1.0000
  H   H21       1.0  0.28428  0.01624  0.46556  1.0000
  H   H22       1.0  0.08687  0.20140  0.30910  1.0000
  H   H23       1.0  0.04421  0.39447  0.35556  1.0000
  C   C18       1.0  0.02248  0.27949  0.30946  1.0000
  C   C19       1.0  0.42008  0.15584  0.23688  1.0000
  C   C20       1.0  0.41031  0.16396  0.26628  1.0000
  C   C21       1.0  0.38529  0.15798  0.27633  1.0000
  C   C22       1.0  0.36953  0.14436  0.25664  1.0000
  C   C23       1.0  0.37933  0.13628  0.22721  1.0000
  C   C24       1.0  0.40455  0.14163  0.21760  1.0000
  H   H24       1.0  0.42211  0.17505  0.28134  1.0000
  H   H25       1.0  0.37800  0.16447  0.29893  1.0000
  H   H26       1.0  0.36728  0.12585  0.21171  1.0000
  H   H27       1.0  0.41182  0.13516  0.19503  1.0000
  C   C25       1.0  0.24126  0.00738  0.43198  1.0000
  C   C26       1.0  0.26277  0.02475  0.33702  1.0000
  C   C27       1.0  0.28435  0.02496  0.35578  1.0000
  H   H28       1.0  0.28591  0.07206  0.44283  1.0000
  H   H29       1.0  0.08321  0.42480  0.21306  1.0000
  H   H30       1.0  0.25534  0.04228  0.32741  1.0000
  H   H31       1.0  0.14441  0.46342  0.31466  1.0000
  C   C28       1.0  0.46671  0.04169  0.16166  1.0000
  H   H32       1.0  0.15522  0.31359  0.27118  1.0000
  C   C29       1.0  0.09569  0.21464  0.32567  1.0000
  H   H33       1.0  0.10250  0.23228  0.24015  1.0000
  H   H34       1.0  0.10613  0.20382  0.34422  1.0000
  H   H35       1.0  0.12597  0.25774  0.17980  1.0000
  C   C30       1.0  0.47142  0.06764  0.04138  1.0000
  H   H36       1.0  0.40242  0.29217  0.10281  1.0000
  C   C31       1.0  0.00972  0.26797  0.28488  1.0000
  H   H37       1.0  0.28676  0.02589  0.42484  1.0000
  S   S22       1.0  0.46785  0.06443  0.13077  1.0000
  H   H38       1.0  0.15781  0.24166  0.21788  1.0000
  H   H39       1.0  0.32640  0.05059  0.43113  1.0000
  H   H40       1.0  0.18847  0.22684  0.29232  1.0000
  C   C32       1.0  0.40223  0.03270  0.19664  1.0000
  H   H41       1.0  0.04434  0.39699  0.29689  1.0000
  H   H42       1.0  0.01595  0.48285  0.05278  1.0000
  C   C33       1.0  0.27824  0.03108  0.44814  1.0000
  H   H43       1.0  0.01985  0.25556  0.26913  1.0000
  N   N2        1.0  0.41595  0.21235  0.15440  1.0000
  C   C34       1.0  0.44348  0.21895  0.15859  1.0000
  C   C35       1.0  0.40232  0.21316  0.18634  1.0000
  C   C36       1.0  0.41485  0.18540  0.14374  1.0000
  C   C37       1.0  0.40317  0.22911  0.12988  1.0000
  C   C38       1.0  0.41245  0.25688  0.12662  1.0000
  H   H44       1.0  0.01308  0.38794  0.34070  1.0000
  C   C39       1.0  0.38802  0.17374  0.14094  1.0000
  C   C40       1.0  0.40185  0.23865  0.20325  1.0000
  C   C41       1.0  0.39077  0.23542  0.23709  1.0000
  C   C42       1.0  0.39500  0.27261  0.10540  1.0000
  H   H45       1.0  0.05456  0.46538  0.10460  1.0000
  H   H46       1.0  0.34925  0.03800  0.29644  1.0000
  H   H47       1.0  0.45135  0.20779  0.17898  1.0000
  H   H48       1.0  0.44582  0.23882  0.16534  1.0000
  H   H49       1.0  0.38210  0.20776  0.18423  1.0000
  H   H50       1.0  0.41067  0.19899  0.20303  1.0000
  H   H51       1.0  0.42561  0.17297  0.16043  1.0000
  H   H52       1.0  0.42425  0.18366  0.11993  1.0000
  H   H53       1.0  0.40546  0.22130  0.10561  1.0000
  H   H54       1.0  0.38235  0.22932  0.13462  1.0000
  H   H55       1.0  0.43167  0.25777  0.11549  1.0000
  H   H56       1.0  0.41345  0.26604  0.14988  1.0000
  H   H57       1.0  0.03284  0.36251  0.35547  1.0000
  C   C43       1.0  0.20996  0.03414  0.48316  1.0000
  H   H58       1.0  0.37534  0.18646  0.12728  1.0000
  H   H59       1.0  0.37941  0.16993  0.16495  1.0000
  H   H60       1.0  0.42103  0.24681  0.20535  1.0000
  H   H61       1.0  0.38955  0.25214  0.19019  1.0000
  H   H62       1.0  0.37126  0.22756  0.23666  1.0000
  H   H63       1.0  0.40276  0.22256  0.25168  1.0000
  H   H64       1.0  0.39001  0.25397  0.24865  1.0000
  H   H65       1.0  0.39403  0.26456  0.08130  1.0000
  H   H66       1.0  0.37563  0.27334  0.11616  1.0000
  C   C44       1.0  0.09797  0.49387  0.31986  1.0000
  S   S23       1.0  0.49730  0.17410  0.06933  1.0000
  H   H67       1.0  0.25806  0.05779  0.40615  1.0000
  H   H68       1.0  0.01858  0.30439  0.34900  1.0000
  C   C45       1.0  0.12036  0.49282  0.02499  1.0000
  H   H69       1.0  0.20300  0.17115  0.46143  1.0000
  N   N3        1.0  0.39015  0.05312  0.25019  1.0000
  C   C46       1.0  0.38118  0.04274  0.21920  1.0000
  C   C47       1.0  0.36842  0.06669  0.26609  1.0000
  C   C48       1.0  0.41041  0.07254  0.24219  1.0000
  C   C49       1.0  0.40125  0.03320  0.27231  1.0000
  C   C50       1.0  0.22511  0.22877  0.44079  1.0000
  C   C51       1.0  0.28094  0.20629  0.41996  1.0000
  C   C52       1.0  0.42027  0.08771  0.27056  1.0000
  C   C53       1.0  0.34488  0.05056  0.27569  1.0000
  C   C54       1.0  0.32274  0.06720  0.28565  1.0000
  H   H70       1.0  0.46878  0.03631  0.24256  1.0000
  C   C55       1.0  0.21414  0.13667  0.44004  1.0000
  C   C56       1.0  0.44637  0.09912  0.26292  1.0000
  H   H71       1.0  0.37083  0.05758  0.20539  1.0000
  H   H72       1.0  0.36724  0.02735  0.22348  1.0000
  H   H73       1.0  0.37451  0.07547  0.28847  1.0000
  H   H74       1.0  0.36213  0.08271  0.25037  1.0000
  H   H75       1.0  0.40371  0.08639  0.22378  1.0000
  H   H76       1.0  0.42714  0.06336  0.23126  1.0000
  H   H77       1.0  0.42197  0.03109  0.26750  1.0000
  H   H78       1.0  0.39964  0.03922  0.29749  1.0000
  H   H79       1.0  0.40132  0.13501  0.13728  1.0000
  H   H80       1.0  0.22147  0.03673  0.38581  1.0000
  C   C57       1.0  0.03281  0.38088  0.34213  1.0000
  H   H81       1.0  0.41604  0.02114  0.21003  1.0000
  H   H82       1.0  0.42192  0.07584  0.29256  1.0000
  H   H83       1.0  0.40700  0.10334  0.27574  1.0000
  H   H84       1.0  0.33819  0.03915  0.25591  1.0000
  H   H85       1.0  0.13026  0.28833  0.47124  1.0000
  H   H86       1.0  0.30620  0.05528  0.29293  1.0000
  C   C58       1.0  0.24273  0.05396  0.42416  1.0000
  H   H87       1.0  0.12269  0.47302  0.02033  1.0000
  C   C59       1.0  0.08802  0.31340  0.49755  1.0000
  H   H88       1.0  0.04930  0.45152  0.06635  1.0000
  H   H89       1.0  0.01026  0.36778  0.28672  1.0000
  C   C60       1.0  0.49786  0.15885  0.03197  1.0000
  C   C61       1.0  0.21976  0.15861  0.46160  1.0000
  H   H90       1.0  0.12094  0.24625  0.32494  1.0000
  H   H91       1.0  0.13016  0.48539  0.26830  1.0000
  H   H92       1.0  0.01845  0.49436  0.09165  1.0000
  C   C62       1.0  0.00718  0.48962  0.17083  1.0000
  C   C63       1.0  0.17362  0.27814  0.25940  1.0000
  H   H93       1.0  0.00292  0.39557  0.12935  1.0000
  C   C64       1.0  0.11745  0.24423  0.22844  1.0000
  H   H94       1.0  0.19981  0.25823  0.42448  1.0000
  C   C65       1.0  0.11204  0.24533  0.19279  1.0000
  Fe  Fe11      1.0  0.11798  0.47367  0.20266  1.0000
  C   C66       1.0  0.15528  0.26069  0.27920  1.0000
  C   C67       1.0  0.25631  0.18438  0.50331  1.0000
  H   H95       1.0  0.20175  0.04611  0.41870  1.0000
  C   C68       1.0  0.06474  0.41475  0.21418  1.0000
  H   H96       1.0  0.14254  0.21285  0.22738  1.0000
  C   C69       1.0  0.14380  0.23271  0.23483  1.0000
  H   H97       1.0  0.05041  0.42740  0.22492  1.0000
  C   C70       1.0  0.24381  0.17315  0.44977  1.0000
  H   H98       1.0  0.46748  0.06849  0.19893  1.0000
  H   H99       1.0  0.49576  0.22332  0.15411  1.0000
  H   H100      1.0  0.03931  0.36949  0.20975  1.0000
  H   H101      1.0  0.37787  0.02782  0.15594  1.0000
  H   H102      1.0  0.00753  0.33790  0.39889  1.0000
  H   H103      1.0  0.15249  0.43506  0.41902  1.0000
  C   C71       1.0  0.04212  0.37503  0.23486  1.0000
  H   H104      1.0  0.21724  0.19211  0.24136  1.0000
  H   H105      1.0  0.08034  0.22534  0.33762  1.0000
  C   C72       1.0  0.14575  0.27442  0.47005  1.0000
  H   H106      1.0  0.09335  0.47530  0.30987  1.0000
  H   H107      1.0  0.12079  0.48715  0.07631  1.0000
  H   H108      1.0  0.17993  0.30394  0.29811  1.0000
  H   H109      1.0  0.12002  0.44512  0.42237  1.0000
  H   H110      1.0  0.24485  0.05388  0.48818  1.0000
  H   H111      1.0  0.06754  0.30832  0.22968  1.0000
  H   H112      1.0  0.30745  0.22089  0.38384  1.0000
  C   C73       1.0  0.05376  0.49247  0.06465  1.0000
  C   C74       1.0  0.27683  0.20564  0.45680  1.0000
  H   H113      1.0  0.14667  0.21108  0.31169  1.0000
  C   C75       1.0  0.20818  0.18458  0.26377  1.0000
  H   H114      1.0  0.16330  0.24596  0.49875  1.0000
  H   H115      1.0  0.28836  0.02989  0.24268  1.0000
  H   H116      1.0  0.16166  0.26060  0.30424  1.0000
  C   C76       1.0  0.06568  0.33965  0.26258  1.0000
  H   H117      1.0  0.46444  0.01047  0.13011  1.0000
  C   C77       1.0  0.14403  0.48431  0.31720  1.0000
  H   H118      1.0  0.11279  0.22618  0.18281  1.0000
  C   C78       1.0  0.06719  0.39040  0.23419  1.0000
  C   C79       1.0  0.07730  0.32660  0.23309  1.0000
  C   C80       1.0  0.13575  0.21880  0.29129  1.0000
  H   H119      1.0  0.01725  0.33822  0.45599  1.0000
  H   H120      1.0  0.19600  0.07344  0.37074  1.0000
  S   S24       1.0  0.08153  0.48277  0.22772  1.0000
  C   C81       1.0  0.10538  0.32101  0.23743  1.0000
  H   H121      1.0  0.06394  0.32494  0.28202  1.0000
  H   H122      1.0  0.07989  0.35309  0.27132  1.0000
  H   H123      1.0  0.09280  0.25313  0.18900  1.0000
  H   H124      1.0  0.19148  0.23061  0.25013  1.0000
  C   C82       1.0  0.21860  0.05140  0.40392  1.0000
  C   C83       1.0  0.05970  0.46638  0.07886  1.0000
  H   H125      1.0  0.18792  0.31656  0.25887  1.0000
  H   H126      1.0  0.08288  0.37943  0.22351  1.0000
  H   H127      1.0  0.07293  0.39543  0.25831  1.0000
  C   C84       1.0  0.30446  0.22162  0.41007  1.0000
  H   H128      1.0  0.07519  0.33836  0.21105  1.0000
  H   H129      1.0  0.01593  0.30669  0.44159  1.0000
  H   H130      1.0  0.08028  0.46261  0.07632  1.0000
  H   H131      1.0  0.06422  0.37184  0.31199  1.0000
  H   H132      1.0  0.02960  0.32820  0.21900  1.0000
  C   C85       1.0  0.28349  0.01014  0.23717  1.0000
  H   H133      1.0  0.13672  0.27030  0.27973  1.0000
  C   C86       1.0  0.46759  0.04888  0.19335  1.0000
  H   H134      1.0  0.10209  0.24394  0.29018  1.0000
  Fe  Fe12      1.0  0.06592  0.48392  0.17886  1.0000
  H   H135      1.0  0.20891  0.16367  0.26373  1.0000
  H   H136      1.0  0.11312  0.31165  0.21603  1.0000
  H   H137      1.0  0.11617  0.33873  0.24066  1.0000
  H   H138      1.0  0.10791  0.30826  0.25852  1.0000
  H   H139      1.0  0.21915  0.19100  0.28436  1.0000
  H   H140      1.0  0.48122  0.08481  0.04935  1.0000
  H   H141      1.0  0.10351  0.47618  0.38158  1.0000
  C   C87       1.0  0.18066  0.19323  0.26644  1.0000
  H   H142      1.0  0.46093  0.08409  0.26215  1.0000
  H   H143      1.0  0.22040  0.21555  0.42182  1.0000
  N   N4        1.0  0.12204  0.49179  0.33861  1.0000
  H   H144      1.0  0.32686  0.03784  0.47162  1.0000
  C   C88       1.0  0.46791  0.03065  0.21804  1.0000
  H   H145      1.0  0.02336  0.31506  0.25768  1.0000
  H   H146      1.0  0.44645  0.10936  0.23952  1.0000
  H   H147      1.0  0.21433  0.20681  0.48327  1.0000
  C   C89       1.0  0.13548  0.44038  0.40526  1.0000
  C   C90       1.0  0.17914  0.22233  0.26952  1.0000
  H   H148      1.0  0.20482  0.25794  0.46659  1.0000
  H   H149      1.0  0.22909  0.08164  0.36980  1.0000
  Fe  Fe13      1.0  0.49865  0.15176  0.11679  1.0000
  H   H150      1.0  0.11078  0.45368  0.35228  1.0000
  H   H151      1.0  0.19330  0.27097  0.26011  1.0000
  C   C91       1.0  0.46707  0.00514  0.21101  1.0000
  H   H152      1.0  0.01514  0.41048  0.16390  1.0000
  C   C92       1.0  0.38913  0.14858  0.12412  1.0000
  H   H153      1.0  0.27971  0.22500  0.46563  1.0000
  C   C93       1.0  0.48619  0.22856  0.13156  1.0000
  C   C94       1.0  0.11808  0.47092  0.36356  1.0000
  H   H154      1.0  0.30213  0.24161  0.41662  1.0000
  H   H155      1.0  0.12804  0.20204  0.27931  1.0000
  H   H156      1.0  0.28375  0.18685  0.41151  1.0000
  N   N5        1.0  0.15298  0.23385  0.26856  1.0000
  C   C95       1.0  0.11345  0.23295  0.30744  1.0000
  C   C96       1.0  0.04449  0.37808  0.30881  1.0000
  H   H157      1.0  0.45071  0.07057  0.04427  1.0000
  H   H158      1.0  0.11584  0.26366  0.23708  1.0000
  H   H159      1.0  0.14162  0.26131  0.45064  1.0000
  C   C97       1.0  0.21285  0.07600  0.38572  1.0000
  S   S25       1.0  0.49472  0.11139  0.19552  1.0000
  C   C98       1.0  0.14169  0.46286  0.38286  1.0000
  C   C99       1.0  0.10555  0.33287  0.49197  1.0000
  H   H160      1.0  0.15759  0.45707  0.36707  1.0000
  H   H161      1.0  0.47723  0.05153  0.05704  1.0000
  H   H162      1.0  0.02638  0.38831  0.24005  1.0000
  N   N6        1.0  0.24972  0.03186  0.44595  1.0000
  H   H163      1.0  0.41251  0.04874  0.18466  1.0000
  C   C100      1.0  0.02295  0.33305  0.24339  1.0000
  C   C101      1.0  0.23198  0.21475  0.47214  1.0000
  H   H164      1.0  0.14828  0.47845  0.39770  1.0000
  H   H165      1.0  0.45212  0.22007  0.10660  1.0000
  H   H166      1.0  0.39671  0.15124  0.09936  1.0000
  H   H167      1.0  0.23787  0.22966  0.48848  1.0000
  H   H168      1.0  0.19670  0.12673  0.44869  1.0000
  H   H169      1.0  0.31712  0.08000  0.26563  1.0000
  H   H170      1.0  0.17464  0.46935  0.26692  1.0000
  H   H171      1.0  0.20132  0.05050  0.47055  1.0000
  H   H172      1.0  0.23005  0.12304  0.44027  1.0000
  H   H173      1.0  0.21113  0.14360  0.41519  1.0000
  C   C102      1.0  0.39136  0.01666  0.17052  1.0000
  C   C103      1.0  0.32009  0.05362  0.45615  1.0000
  H   H174      1.0  0.32881  0.07141  0.46405  1.0000
  H   H175      1.0  0.24732  0.02117  0.49603  1.0000
  N   N7        1.0  0.25210  0.19474  0.46986  1.0000
  H   H176      1.0  0.24112  0.07159  0.43784  1.0000
  C   C104      1.0  0.46114  0.21434  0.12930  1.0000
  H   H177      1.0  0.05936  0.41067  0.18940  1.0000
  C   C105      1.0  0.32282  0.15328  0.49903  1.0000
  H   H178      1.0  0.04675  0.48021  0.31401  1.0000
  H   H179      1.0  0.20205  0.01642  0.47414  1.0000
  H   H180      1.0  0.45146  0.11260  0.28153  1.0000
  H   H181      1.0  0.32802  0.07867  0.30617  1.0000
  H   H182      1.0  0.36980  0.14042  0.12308  1.0000
  H   H183      1.0  0.26474  0.21425  0.40692  1.0000
  C   C106      1.0  0.17046  0.48987  0.26631  1.0000
  H   H184      1.0  0.40701  0.01026  0.15464  1.0000
  H   H185      1.0  0.20881  0.09133  0.40249  1.0000
  H   H186      1.0  0.24106  0.24116  0.43267  1.0000
  C   C107      1.0  0.02927  0.35915  0.28938  1.0000
  C   C108      1.0  0.23908  0.03525  0.47915  1.0000
  H   H187      1.0  0.48297  0.24922  0.13049  1.0000
  H   H188      1.0  0.24019  0.17948  0.42485  1.0000
  H   H189      1.0  0.33691  0.16812  0.49856  1.0000
  C   C109      1.0  0.20222  0.24576  0.44581  1.0000
  H   H190      1.0  0.26656  0.16613  0.50249  1.0000
  C   C110      1.0  0.28616  0.11534  0.50042  1.0000
  H   H191      1.0  0.18481  0.23417  0.44930  1.0000
  H   H192      1.0  0.07077  0.49288  0.36097  1.0000
  C   C111      1.0  0.14776  0.25973  0.50176  1.0000
  H   H193      1.0  0.02274  0.28235  0.48397  1.0000
  H   H194      1.0  0.16229  0.48926  0.32834  1.0000
  H   H195      1.0  0.22209  0.15046  0.48598  1.0000
  H   H196      1.0  0.49886  0.22356  0.11127  1.0000
  H   H197      1.0  0.29304  0.19432  0.46586  1.0000
  C   C112      1.0  0.00437  0.32336  0.44765  1.0000
  H   H198      1.0  0.24917  0.00596  0.40731  1.0000
  C   C113      1.0  0.00475  0.27992  0.49798  1.0000
  H   H199      1.0  0.28617  0.05994  0.48331  1.0000
  C   C114      1.0  0.00894  0.29547  0.32981  1.0000
  H   H200      1.0  0.12994  0.24909  0.50601  1.0000
  H   H201      1.0  0.27167  0.10093  0.50080  1.0000
  H   H202      1.0  0.06045  0.49252  0.03944  1.0000
  C   C115      1.0  0.14479  0.49491  0.28231  1.0000
  H   H203      1.0  0.28676  0.00748  0.21125  1.0000
  H   H204      1.0  0.18575  0.50008  0.27839  1.0000
  H   H205      1.0  0.17025  0.49642  0.24098  1.0000
  H   H206      1.0  0.26311  0.00705  0.24320  1.0000
  H   H207      1.0  0.36945  0.00588  0.27470  1.0000
  C   C116      1.0  0.02503  0.49785  0.06655  1.0000
  C   C117      1.0  0.39023  0.00614  0.27118  1.0000
  H   H208      1.0  0.22044  0.00683  0.42924  1.0000
  C   C118      1.0  0.05040  0.50042  0.31844  1.0000
  H   H209      1.0  0.03083  0.32154  0.50325  1.0000
  H   H210      1.0  0.01414  0.22836  0.50215  1.0000
  H   H211      1.0  0.23421  0.00151  0.31602  1.0000
  C   C119      1.0  0.25078  0.00167  0.33074  1.0000
  C   C120      1.0  0.29380  0.00207  0.36805  1.0000
  H   H212      1.0  0.31060  0.00201  0.38238  1.0000
  H   H213      1.0  0.04386  0.24492  0.50653  1.0000
  H   H214      1.0  0.02315  0.27365  0.54455  1.0000
  H   H215      1.0  0.18626  0.23466  0.60605  1.0000
  Fe  Fe14      1.0  0.46137  0.14312  0.82283  1.0000
  H   H216      1.0  0.10297  0.25791  0.54380  1.0000
  S   S26       1.0  0.42137  0.15553  0.80997  1.0000
  H   H217      1.0  0.00319  0.32855  0.59630  1.0000
  C   C121      1.0  0.44398  0.07150  0.93706  1.0000
  H   H218      1.0  0.20962  0.01913  0.53219  1.0000
  S   S27       1.0  0.46361  0.10791  0.85383  1.0000
  C   C122      1.0  0.27151  0.20140  0.52577  1.0000
  Fe  Fe15      1.0  0.27498  0.16622  0.66436  1.0000
  S   S28       1.0  0.30694  0.16406  0.62795  1.0000
  S   S29       1.0  0.26116  0.20687  0.67084  1.0000
  Fe  Fe16      1.0  0.28053  0.10946  0.68213  1.0000
  S   S30       1.0  0.31209  0.10440  0.64686  1.0000
  S   S31       1.0  0.27374  0.07522  0.71480  1.0000
  Fe  Fe17      1.0  0.32731  0.14066  0.66512  1.0000
  S   S32       1.0  0.36955  0.14291  0.67509  1.0000
  Fe  Fe18      1.0  0.28864  0.12803  0.61372  1.0000
  S   S33       1.0  0.27944  0.11392  0.56479  1.0000
  S   S34       1.0  0.29682  0.14482  0.70226  1.0000
  S   S35       1.0  0.25552  0.13106  0.64805  1.0000
  C   C123      1.0  0.02846  0.36422  0.53603  1.0000
  S   S36       1.0  0.08129  0.46678  0.81252  1.0000
  H   H219      1.0  0.09417  0.48687  0.69365  1.0000
  C   C124      1.0  0.26847  0.19242  0.56061  1.0000
  Fe  Fe19      1.0  0.13440  0.29962  0.67593  1.0000
  S   S37       1.0  0.15008  0.33780  0.66128  1.0000
  S   S38       1.0  0.15214  0.26004  0.67340  1.0000
  Fe  Fe20      1.0  0.08070  0.32160  0.68421  1.0000
  S   S39       1.0  0.09241  0.36097  0.66936  1.0000
  S   S40       1.0  0.04076  0.31250  0.70122  1.0000
  Fe  Fe21      1.0  0.11538  0.34189  0.63135  1.0000
  S   S41       1.0  0.11958  0.35728  0.58059  1.0000
  Fe  Fe22      1.0  0.12570  0.35392  0.70076  1.0000
  S   S42       1.0  0.14167  0.38423  0.73276  1.0000
  S   S43       1.0  0.10084  0.30317  0.64369  1.0000
  S   S44       1.0  0.11272  0.31525  0.71804  1.0000
  C   C125      1.0  0.09864  0.44385  0.79094  1.0000
  C   C126      1.0  0.12496  0.44159  0.79254  1.0000
  C   C127      1.0  0.13778  0.42326  0.77464  1.0000
  C   C128      1.0  0.12452  0.40683  0.75511  1.0000
  C   C129      1.0  0.09822  0.40921  0.75335  1.0000
  C   C130      1.0  0.08539  0.42761  0.77114  1.0000
  H   H220      1.0  0.13543  0.45377  0.80780  1.0000
  H   H221      1.0  0.15813  0.42161  0.77616  1.0000
  H   H222      1.0  0.08788  0.39683  0.73826  1.0000
  H   H223      1.0  0.06504  0.42916  0.76971  1.0000
  C   C131      1.0  0.15350  0.27757  0.52948  1.0000
  H   H224      1.0  0.07798  0.27052  0.59111  1.0000
  C   C132      1.0  0.49230  0.01239  0.82496  1.0000
  H   H225      1.0  0.03942  0.32400  0.63294  1.0000
  C   C133      1.0  0.07972  0.30767  0.52890  1.0000
  C   C134      1.0  0.10688  0.34037  0.54902  1.0000
  C   C135      1.0  0.08901  0.32118  0.55455  1.0000
  H   H226      1.0  0.27409  0.17237  0.56353  1.0000
  H   H227      1.0  0.08230  0.31686  0.57857  1.0000
  C   C136      1.0  0.23062  0.22123  0.67148  1.0000
  C   C137      1.0  0.22893  0.24772  0.67204  1.0000
  C   C138      1.0  0.20520  0.26000  0.67286  1.0000
  C   C139      1.0  0.18278  0.24589  0.67345  1.0000
  C   C140      1.0  0.18450  0.21941  0.67301  1.0000
  C   C141      1.0  0.20820  0.20715  0.67187  1.0000
  H   H228      1.0  0.24609  0.25885  0.67181  1.0000
  H   H229      1.0  0.20426  0.28034  0.67317  1.0000
  H   H230      1.0  0.16732  0.20827  0.67348  1.0000
  H   H231      1.0  0.20909  0.18681  0.67163  1.0000
  C   C142      1.0  0.40730  0.15096  0.77246  1.0000
  C   C143      1.0  0.38086  0.15282  0.77002  1.0000
  C   C144      1.0  0.36900  0.15017  0.74047  1.0000
  C   C145      1.0  0.38349  0.14578  0.71296  1.0000
  C   C146      1.0  0.40992  0.14383  0.71542  1.0000
  C   C147      1.0  0.42177  0.14634  0.74499  1.0000
  H   H232      1.0  0.36950  0.15624  0.79118  1.0000
  H   H233      1.0  0.34869  0.15158  0.73894  1.0000
  H   H234      1.0  0.42134  0.14053  0.69428  1.0000
  H   H235      1.0  0.44215  0.14508  0.74642  1.0000
  C   C148      1.0  0.26137  0.04318  0.66652  1.0000
  C   C149      1.0  0.26888  0.04538  0.69809  1.0000
  C   C150      1.0  0.27154  0.02343  0.71727  1.0000
  H   H236      1.0  0.25904  0.05996  0.65164  1.0000
  H   H237      1.0  0.27684  0.02502  0.74187  1.0000
  C   C151      1.0  0.46910  0.00455  0.95700  1.0000
  H   H238      1.0  0.30660  0.06362  0.54554  1.0000
  C   C152      1.0  0.45982  0.04357  0.83313  1.0000
  H   H239      1.0  0.15333  0.22558  0.60935  1.0000
  H   H240      1.0  0.19563  0.19715  0.57397  1.0000
  H   H241      1.0  0.14394  0.49436  0.68702  1.0000
  C   C153      1.0  0.29415  0.12521  0.52914  1.0000
  N   N8        1.0  0.46847  0.03283  0.95975  1.0000
  H   H242      1.0  0.31906  0.15177  0.55056  1.0000
  H   H243      1.0  0.27447  0.05274  0.54227  1.0000
  C   C154      1.0  0.02514  0.37899  0.73160  1.0000
  C   C155      1.0  0.44590  0.04258  0.94175  1.0000
  C   C156      1.0  0.42140  0.07869  0.91656  1.0000
  C   C157      1.0  0.31273  0.14408  0.52849  1.0000
  H   H244      1.0  0.49450  0.06371  0.94856  1.0000
  H   H245      1.0  0.18574  0.34407  0.59913  1.0000
  H   H246      1.0  0.37589  0.19884  0.65908  1.0000
  H   H247      1.0  0.48364  0.17022  0.95332  1.0000
  H   H248      1.0  0.42736  0.03115  0.86135  1.0000
  N   N9        1.0  0.35930  0.06270  0.74380  1.0000
  H   H249      1.0  0.38973  0.20475  0.80440  1.0000
  C   C158      1.0  0.38190  0.07558  0.75817  1.0000
  C   C159      1.0  0.33579  0.07037  0.76220  1.0000
  C   C160      1.0  0.35630  0.07123  0.70946  1.0000
  C   C161      1.0  0.37731  0.06304  0.68577  1.0000
  H   H250      1.0  0.19493  0.31597  0.62107  1.0000
  C   C162      1.0  0.33125  0.09914  0.76458  1.0000
  C   C163      1.0  0.40777  0.06174  0.75660  1.0000
  C   C164      1.0  0.42950  0.07914  0.76535  1.0000
  C   C165      1.0  0.37056  0.07001  0.65141  1.0000
  H   H251      1.0  0.01888  0.31404  0.54195  1.0000
  C   C166      1.0  0.30803  0.10462  0.78551  1.0000
  C   C167      1.0  0.49863  0.13528  0.97190  1.0000
  H   H252      1.0  0.13263  0.26176  0.60612  1.0000
  H   H253      1.0  0.38456  0.09484  0.74732  1.0000
  H   H254      1.0  0.37849  0.07859  0.78410  1.0000
  H   H255      1.0  0.33612  0.06221  0.78696  1.0000
  H   H256      1.0  0.31851  0.06273  0.75122  1.0000
  H   H257      1.0  0.33760  0.06522  0.70045  1.0000
  H   H258      1.0  0.35586  0.09216  0.70740  1.0000
  H   H259      1.0  0.38039  0.04242  0.68691  1.0000
  H   H260      1.0  0.39521  0.07300  0.69079  1.0000
  S   S45       1.0  0.07359  0.50004  0.89377  1.0000
  H   H261      1.0  0.37886  0.02738  0.73545  1.0000
  H   H262      1.0  0.32791  0.10774  0.74068  1.0000
  H   H263      1.0  0.34758  0.10868  0.77521  1.0000
  C   C168      1.0  0.25545  0.01935  0.65475  1.0000
  H   H264      1.0  0.41213  0.05450  0.73268  1.0000
  H   H265      1.0  0.40755  0.04547  0.77389  1.0000
  H   H266      1.0  0.42577  0.08779  0.78879  1.0000
  H   H267      1.0  0.01494  0.37911  0.78313  1.0000
  H   H268      1.0  0.38597  0.06397  0.63497  1.0000
  H   H269      1.0  0.35273  0.06054  0.64477  1.0000
  H   H270      1.0  0.36836  0.09073  0.64836  1.0000
  H   H271      1.0  0.27696  0.16797  0.76642  1.0000
  C   C169      1.0  0.47849  0.06291  0.00653  1.0000
  H   H272      1.0  0.12227  0.44146  0.70242  1.0000
  H   H273      1.0  0.30502  0.12529  0.78617  1.0000
  H   H274      1.0  0.29083  0.09588  0.77573  1.0000
  H   H275      1.0  0.31076  0.09729  0.81025  1.0000
  C   C170      1.0  0.33908  0.01876  0.73491  1.0000
  H   H276      1.0  0.17164  0.28707  0.52218  1.0000
  H   H277      1.0  0.02545  0.46691  0.92261  1.0000
  C   C171      1.0  0.01834  0.38513  0.66114  1.0000
  H   H278      1.0  0.03665  0.37609  0.66687  1.0000
  H   H279      1.0  0.40346  0.07156  0.92777  1.0000
  C   C172      1.0  0.30248  0.02290  0.54935  1.0000
  C   C173      1.0  0.49026  0.16017  0.97430  1.0000
  C   C174      1.0  0.19070  0.32385  0.59695  1.0000
  H   H280      1.0  0.17509  0.27435  0.60624  1.0000
  C   C175      1.0  0.01780  0.48298  0.93619  1.0000
  H   H281      1.0  0.26547  0.22133  0.52425  1.0000
  H   H282      1.0  0.02753  0.38314  0.61076  1.0000
  C   C176      1.0  0.48356  0.03701  0.82072  1.0000
  H   H283      1.0  0.11437  0.23044  0.56565  1.0000
  H   H284      1.0  0.33480  0.02411  0.70987  1.0000
  H   H285      1.0  0.18173  0.18891  0.61237  1.0000
  N   N10       1.0  0.15545  0.26585  0.56277  1.0000
  C   C177      1.0  0.16566  0.23936  0.56125  1.0000
  C   C178      1.0  0.44556  0.02594  0.85137  1.0000
  H   H286      1.0  0.26603  0.00575  0.54511  1.0000
  C   C179      1.0  0.16852  0.30982  0.58272  1.0000
  H   H287      1.0  0.18402  0.23959  0.54768  1.0000
  H   H288      1.0  0.15290  0.22711  0.54783  1.0000
  C   C180      1.0  0.29254  0.04948  0.55478  1.0000
  H   H289      1.0  0.42026  0.09954  0.91400  1.0000
  H   H290      1.0  0.19358  0.27898  0.57055  1.0000
  H   H291      1.0  0.24833  0.01798  0.63090  1.0000
  H   H292      1.0  0.16488  0.31868  0.55902  1.0000
  H   H293      1.0  0.13122  0.49281  0.77201  1.0000
  C   C181      1.0  0.10875  0.25042  0.56746  1.0000
  H   H294      1.0  0.42365  0.07093  0.89237  1.0000
  H   H295      1.0  0.43212  0.09431  0.74683  1.0000
  H   H296      1.0  0.06615  0.29265  0.53338  1.0000
  H   H297      1.0  0.45238  0.06215  0.82865  1.0000
  C   C182      1.0  0.08531  0.25102  0.58940  1.0000
  C   C183      1.0  0.02025  0.32111  0.64186  1.0000
  H   H298      1.0  0.13897  0.29278  0.52912  1.0000
  H   H299      1.0  0.25981  0.18938  0.74040  1.0000
  C   C184      1.0  0.28262  0.00277  0.56049  1.0000
  C   C185      1.0  0.49010  0.17194  0.00416  1.0000
  C   C186      1.0  0.36151  0.03438  0.74746  1.0000
  H   H300      1.0  0.15181  0.44845  0.68208  1.0000
  H   H301      1.0  0.48238  0.04508  0.89523  1.0000
  H   H302      1.0  0.44740  0.06826  0.76674  1.0000
  H   H303      1.0  0.04226  0.39128  0.73196  1.0000
  H   H304      1.0  0.35062  0.20198  0.63116  1.0000
  C   C187      1.0  0.13395  0.48090  0.70346  1.0000
  H   H305      1.0  0.23788  0.18003  0.51559  1.0000
  H   H306      1.0  0.32187  0.02152  0.74993  1.0000
  H   H307      1.0  0.40331  0.23581  0.80526  1.0000
  C   C188      1.0  0.46589  0.03850  0.99493  1.0000
  H   H308      1.0  0.25476  0.19004  0.78288  1.0000
  H   H309      1.0  0.12303  0.28635  0.58020  1.0000
  H   H310      1.0  0.03647  0.41242  0.62817  1.0000
  Fe  Fe23      1.0  0.49235  0.12825  0.88257  1.0000
  C   C189      1.0  0.45514  0.00178  0.85731  1.0000
  H   H311      1.0  0.49942  0.06105  0.00498  1.0000
  H   H312      1.0  0.04373  0.34471  0.79953  1.0000
  H   H313      1.0  0.47295  0.07968  0.99212  1.0000
  H   H314      1.0  0.46107  0.07947  0.92481  1.0000
  C   C190      1.0  0.13032  0.26675  0.58040  1.0000
  C   C191      1.0  0.17045  0.22559  0.59364  1.0000
  H   H315      1.0  0.08985  0.24370  0.61369  1.0000
  H   H316      1.0  0.31018  0.29759  0.71712  1.0000
  H   H317      1.0  0.36426  0.22979  0.64755  1.0000
  H   H318      1.0  0.28260  0.28326  0.73675  1.0000
  H   H319      1.0  0.05485  0.34175  0.75899  1.0000
  C   C192      1.0  0.13243  0.45564  0.68698  1.0000
  H   H320      1.0  0.27559  0.00751  0.58478  1.0000
  H   H321      1.0  0.03499  0.35568  0.55891  1.0000
  S   S46       1.0  0.12172  0.49903  0.95953  1.0000
  C   C193      1.0  0.17416  0.28120  0.58095  1.0000
  H   H322      1.0  0.44556  0.03892  0.00250  1.0000
  H   H323      1.0  0.02697  0.41795  0.68871  1.0000
  H   H324      1.0  0.02952  0.22804  0.54015  1.0000
  H   H325      1.0  0.28069  0.20388  0.57587  1.0000
  C   C194      1.0  0.02553  0.23973  0.51848  1.0000
  H   H326      1.0  0.36371  0.02898  0.77313  1.0000
  H   H327      1.0  0.00828  0.34997  0.76340  1.0000
  H   H328      1.0  0.20783  0.32252  0.58134  1.0000
  H   H329      1.0  0.28327  0.28858  0.69421  1.0000
  H   H330      1.0  0.37309  0.22963  0.82469  1.0000
  C   C195      1.0  0.02175  0.36596  0.76486  1.0000
  H   H331      1.0  0.44115  0.08050  0.96033  1.0000
  H   H332      1.0  0.24854  0.19447  0.56904  1.0000
  Fe  Fe24      1.0  0.49553  0.09808  0.82054  1.0000
  H   H333      1.0  0.06079  0.37039  0.78002  1.0000
  H   H334      1.0  0.15165  0.31285  0.59825  1.0000
  H   H335      1.0  0.16262  0.18770  0.57742  1.0000
  H   H336      1.0  0.30676  0.02141  0.52351  1.0000
  H   H337      1.0  0.07017  0.23908  0.57971  1.0000
  C   C196      1.0  0.02162  0.39758  0.62805  1.0000
  H   H338      1.0  0.42799  0.03640  0.95400  1.0000
  C   C197      1.0  0.04684  0.35509  0.77644  1.0000
  H   H339      1.0  0.48351  0.19114  0.00583  1.0000
  S   S47       1.0  0.49220  0.13208  0.78806  1.0000
  S   S48       1.0  0.48775  0.16458  0.85442  1.0000
  C   C198      1.0  0.17806  0.19817  0.58886  1.0000
  C   C199      1.0  0.01583  0.31491  0.67412  1.0000
  N   N11       1.0  0.33249  0.22242  0.73931  1.0000
  C   C200      1.0  0.31076  0.20387  0.73971  1.0000
  C   C201      1.0  0.35060  0.21758  0.71171  1.0000
  C   C202      1.0  0.34669  0.21806  0.76990  1.0000
  C   C203      1.0  0.32348  0.24937  0.73834  1.0000
  C   C204      1.0  0.30628  0.25713  0.71032  1.0000
  C   C205      1.0  0.29030  0.20694  0.76636  1.0000
  C   C206      1.0  0.37212  0.23257  0.77269  1.0000
  C   C207      1.0  0.33921  0.20839  0.68026  1.0000
  C   C208      1.0  0.35876  0.20990  0.65292  1.0000
  C   C209      1.0  0.29498  0.28327  0.71503  1.0000
  C   C210      1.0  0.26925  0.18734  0.76376  1.0000
  C   C211      1.0  0.38525  0.22521  0.80370  1.0000
  H   H340      1.0  0.31822  0.18434  0.74176  1.0000
  H   H341      1.0  0.30052  0.20458  0.71696  1.0000
  H   H342      1.0  0.36222  0.23471  0.70596  1.0000
  H   H343      1.0  0.36443  0.20258  0.71843  1.0000
  H   H344      1.0  0.35090  0.19763  0.77338  1.0000
  H   H345      1.0  0.33492  0.22336  0.79090  1.0000
  H   H346      1.0  0.31343  0.25382  0.76105  1.0000
  H   H347      1.0  0.33987  0.26255  0.73689  1.0000
  H   H348      1.0  0.29024  0.24393  0.70789  1.0000
  H   H349      1.0  0.31756  0.25808  0.68774  1.0000
  H   H350      1.0  0.29843  0.20436  0.79037  1.0000
  H   H351      1.0  0.28136  0.22579  0.76452  1.0000
  H   H352      1.0  0.36888  0.25320  0.77268  1.0000
  H   H353      1.0  0.38552  0.22835  0.75287  1.0000
  H   H354      1.0  0.33333  0.18837  0.68354  1.0000
  H   H355      1.0  0.32242  0.21927  0.67284  1.0000
  H   H356      1.0  0.10073  0.47683  0.73310  1.0000
  C   C212      1.0  0.01113  0.26340  0.52788  1.0000
  H   H357      1.0  0.44518  0.03401  0.91790  1.0000
  H   H358      1.0  0.01596  0.42578  0.74526  1.0000
  H   H359      1.0  0.12247  0.45777  0.66401  1.0000
  C   C213      1.0  0.49824  0.03817  0.90990  1.0000
  C   C214      1.0  0.49314  0.04304  0.94580  1.0000
  C   C215      1.0  0.11493  0.34629  0.51763  1.0000
  H   H360      1.0  0.32039  0.02096  0.56246  1.0000
  H   H361      1.0  0.28940  0.05257  0.58066  1.0000
  H   H362      1.0  0.02854  0.48417  0.95852  1.0000
  H   H363      1.0  0.03006  0.36343  0.71554  1.0000
  H   H364      1.0  0.12860  0.36126  0.51317  1.0000
  C   C216      1.0  0.00590  0.34956  0.52363  1.0000
  C   C217      1.0  0.01077  0.40463  0.68658  1.0000
  H   H365      1.0  0.04447  0.36427  0.51842  1.0000
  Fe  Fe25      1.0  0.09259  0.49871  0.84534  1.0000
  H   H366      1.0  0.50199  0.22205  0.86845  1.0000
  C   C218      1.0  0.20207  0.03550  0.51833  1.0000
  C   C219      1.0  0.10721  0.49023  0.71363  1.0000
  H   H367      1.0  0.18109  0.03517  0.52066  1.0000
  H   H368      1.0  0.20906  0.05322  0.52864  1.0000
  H   H369      1.0  0.04134  0.49075  0.77580  1.0000
  H   H370      1.0  0.14590  0.47805  0.72470  1.0000
  H   H371      1.0  0.05666  0.49558  0.72057  1.0000
  H   H372      1.0  0.02288  0.38402  0.54021  1.0000
  H   H373      1.0  0.29201  0.20078  0.51942  1.0000
  H   H374      1.0  0.49549  0.20504  0.90548  1.0000
  H   H375      1.0  0.50110  0.01785  0.90567  1.0000
  C   C220      1.0  0.01321  0.32173  0.51827  1.0000
  S   S49       1.0  0.49872  0.11870  0.93556  1.0000
  H   H376      1.0  0.00349  0.40593  0.62004  1.0000
  H   H377      1.0  0.00369  0.37027  0.65955  1.0000
  N   N12       1.0  0.00293  0.39385  0.71906  1.0000
  H   H378      1.0  0.31032  0.00214  0.61370  1.0000
  H   H379      1.0  0.04969  0.54440  0.06943  1.0000
  S   S50       1.0  0.43806  0.92802  0.19338  1.0000
  H   H380      1.0  0.06938  0.67144  0.16010  1.0000
  Fe  Fe26      1.0  0.44299  0.89332  0.22410  1.0000
  S   S51       1.0  0.40514  0.87399  0.23585  1.0000
  Fe  Fe27      1.0  0.46853  0.91291  0.16089  1.0000
  Fe  Fe28      1.0  0.30061  0.87874  0.37511  1.0000
  S   S52       1.0  0.27344  0.88059  0.33486  1.0000
  S   S53       1.0  0.34358  0.87774  0.36840  1.0000
  Fe  Fe29      1.0  0.25800  0.88544  0.42516  1.0000
  S   S54       1.0  0.22814  0.88836  0.38776  1.0000
  S   S55       1.0  0.24211  0.89032  0.47522  1.0000
  Fe  Fe30      1.0  0.24790  0.85550  0.36591  1.0000
  S   S56       1.0  0.23046  0.81916  0.34784  1.0000
  Fe  Fe31      1.0  0.25624  0.91326  0.36067  1.0000
  S   S57       1.0  0.24501  0.95000  0.33506  1.0000
  S   S58       1.0  0.27660  0.85130  0.40481  1.0000
  S   S59       1.0  0.28456  0.91262  0.39963  1.0000
  Fe  Fe32      1.0  0.09239  0.52338  0.21892  1.0000
  S   S60       1.0  0.13018  0.51463  0.19613  1.0000
  S   S61       1.0  0.08091  0.54888  0.25966  1.0000
  H   H381      1.0  0.00891  0.58759  0.21909  1.0000
  S   S62       1.0  0.49929  0.93279  0.18694  1.0000
  H   H382      1.0  0.03881  0.67475  0.11693  1.0000
  S   S63       1.0  0.11617  0.53743  0.10309  1.0000
  H   H383      1.0  0.10004  0.67761  0.25410  1.0000
  S   S64       1.0  0.07257  0.52528  0.17212  1.0000
  Fe  Fe33      1.0  0.10818  0.69152  0.41453  1.0000
  S   S65       1.0  0.08149  0.72332  0.40514  1.0000
  S   S66       1.0  0.12410  0.68315  0.46359  1.0000
  Fe  Fe34      1.0  0.11029  0.67744  0.34381  1.0000
  S   S67       1.0  0.08415  0.70922  0.32951  1.0000
  S   S68       1.0  0.12854  0.65127  0.30764  1.0000
  Fe  Fe35      1.0  0.10705  0.73280  0.36288  1.0000
  S   S69       1.0  0.11795  0.77446  0.35825  1.0000
  Fe  Fe36      1.0  0.06134  0.69696  0.37320  1.0000
  S   S70       1.0  0.01960  0.68689  0.37931  1.0000
  S   S71       1.0  0.13475  0.70208  0.37384  1.0000
  S   S72       1.0  0.08647  0.66406  0.38574  1.0000
  H   H384      1.0  0.04345  0.64217  0.10746  1.0000
  H   H385      1.0  0.03593  0.72835  0.47285  1.0000
  H   H386      1.0  0.14095  0.77577  0.48959  1.0000
  H   H387      1.0  0.08102  0.71634  0.47114  1.0000
  H   H388      1.0  0.39459  0.96946  0.29497  1.0000
  C   C221      1.0  0.49916  0.89043  0.03383  1.0000
  C   C222      1.0  0.47725  0.82994  0.10536  1.0000
  H   H389      1.0  0.27318  0.96198  0.25989  1.0000
  H   H390      1.0  0.25316  0.88086  0.23076  1.0000
  H   H391      1.0  0.07638  0.52369  0.34326  1.0000
  C   C223      1.0  0.09512  0.57661  0.27385  1.0000
  C   C224      1.0  0.08115  0.59164  0.29487  1.0000
  C   C225      1.0  0.09120  0.61440  0.30574  1.0000
  C   C226      1.0  0.11543  0.62229  0.29576  1.0000
  C   C227      1.0  0.12955  0.60702  0.27513  1.0000
  C   C228      1.0  0.11952  0.58421  0.26435  1.0000
  H   H392      1.0  0.06233  0.58579  0.30258  1.0000
  H   H393      1.0  0.08015  0.62592  0.32167  1.0000
  H   H394      1.0  0.14837  0.61292  0.26744  1.0000
  H   H395      1.0  0.13058  0.57265  0.24849  1.0000
  Fe  Fe37      1.0  0.10938  0.51389  0.14912  1.0000
  H   H396      1.0  0.03382  0.50815  0.33152  1.0000
  C   C229      1.0  0.00913  0.62825  0.28529  1.0000
  H   H397      1.0  0.01377  0.73160  0.33744  1.0000
  C   C230      1.0  0.10208  0.68447  0.22891  1.0000
  C   C231      1.0  0.18324  0.75053  0.49212  1.0000
  C   C232      1.0  0.23664  0.95980  0.43560  1.0000
  C   C233      1.0  0.19928  0.80680  0.35365  1.0000
  C   C234      1.0  0.19487  0.78118  0.34789  1.0000
  C   C235      1.0  0.17025  0.77084  0.35023  1.0000
  C   C236      1.0  0.14960  0.78612  0.35784  1.0000
  C   C237      1.0  0.15405  0.81161  0.36432  1.0000
  C   C238      1.0  0.17877  0.82186  0.36260  1.0000
  H   H398      1.0  0.21056  0.76936  0.34091  1.0000
  H   H399      1.0  0.16714  0.75128  0.34489  1.0000
  H   H400      1.0  0.13823  0.82364  0.37014  1.0000
  H   H401      1.0  0.18182  0.84160  0.36700  1.0000
  C   C239      1.0  0.44186  0.83774  0.01695  1.0000
  H   H402      1.0  0.47476  0.80927  0.10557  1.0000
  C   C240      1.0  0.02671  0.77627  0.48727  1.0000
  C   C241      1.0  0.30564  0.93536  0.48508  1.0000
  H   H403      1.0  0.29285  0.86990  0.48483  1.0000
  C   C242      1.0  0.27991  0.91019  0.24230  1.0000
  H   H404      1.0  0.11276  0.56604  0.36620  1.0000
  H   H405      1.0  0.28874  0.96189  0.37257  1.0000
  H   H406      1.0  0.01667  0.74083  0.40322  1.0000
  H   H407      1.0  0.04536  0.76102  0.36009  1.0000
  H   H408      1.0  0.03632  0.58274  0.24338  1.0000
  S   S73       1.0  0.47232  0.87707  0.19050  1.0000
  H   H409      1.0  0.14119  0.51539  0.28054  1.0000
  C   C243      1.0  0.38800  0.87642  0.27254  1.0000
  C   C244      1.0  0.39939  0.88484  0.30011  1.0000
  C   C245      1.0  0.38559  0.88494  0.32924  1.0000
  C   C246      1.0  0.36010  0.87722  0.33105  1.0000
  C   C247      1.0  0.34846  0.86952  0.30325  1.0000
  C   C248      1.0  0.36242  0.86891  0.27426  1.0000
  H   H410      1.0  0.41906  0.89057  0.29922  1.0000
  H   H411      1.0  0.39477  0.89096  0.35056  1.0000
  H   H412      1.0  0.32893  0.86337  0.30431  1.0000
  H   H413      1.0  0.35346  0.86221  0.25314  1.0000
  C   C249      1.0  0.40181  0.98900  0.29690  1.0000
  H   H414      1.0  0.05240  0.51078  0.29519  1.0000
  H   H415      1.0  0.38227  0.92835  0.22991  1.0000
  H   H416      1.0  0.31990  0.99630  0.25094  1.0000
  H   H417      1.0  0.06409  0.53130  0.02190  1.0000
  C   C250      1.0  0.02355  0.54439  0.10903  1.0000
  N   N13       1.0  0.08854  0.62215  0.18472  1.0000
  C   C251      1.0  0.08775  0.64165  0.21027  1.0000
  C   C252      1.0  0.07149  0.60042  0.19497  1.0000
  C   C253      1.0  0.11534  0.61225  0.18270  1.0000
  C   C254      1.0  0.08146  0.63249  0.15219  1.0000
  C   C255      1.0  0.06132  0.65371  0.15116  1.0000
  C   C256      1.0  0.11968  0.58879  0.16205  1.0000
  C   C257      1.0  0.04308  0.60625  0.20064  1.0000
  H   H418      1.0  0.11278  0.51938  0.37390  1.0000
  C   C258      1.0  0.14794  0.58344  0.15765  1.0000
  H   H419      1.0  0.45482  0.84116  0.14641  1.0000
  C   C259      1.0  0.46561  0.99782  0.17935  1.0000
  H   H420      1.0  0.07183  0.58546  0.17698  1.0000
  H   H421      1.0  0.07879  0.59147  0.21710  1.0000
  H   H422      1.0  0.12230  0.60740  0.20690  1.0000
  H   H423      1.0  0.07485  0.61691  0.13713  1.0000
  C   C260      1.0  0.46811  0.90903  0.06995  1.0000
  C   C261      1.0  0.49143  0.89717  0.06492  1.0000
  H   H424      1.0  0.11134  0.59145  0.13813  1.0000
  H   H425      1.0  0.11114  0.57177  0.17395  1.0000
  H   H426      1.0  0.03997  0.62310  0.21505  1.0000
  H   H427      1.0  0.03373  0.60901  0.17735  1.0000
  H   H428      1.0  0.38161  0.99974  0.18103  1.0000
  H   H429      1.0  0.11769  0.69853  0.22745  1.0000
  H   H430      1.0  0.34540  0.97286  0.22336  1.0000
  H   H431      1.0  0.24800  0.89382  0.26954  1.0000
  H   H432      1.0  0.14555  0.51373  0.36917  1.0000
  H   H433      1.0  0.15753  0.59927  0.14439  1.0000
  H   H434      1.0  0.30300  0.95677  0.31268  1.0000
  C   C262      1.0  0.02242  0.78069  0.39542  1.0000
  C   C263      1.0  0.02968  0.58435  0.21847  1.0000
  H   H435      1.0  0.03291  0.56594  0.15001  1.0000
  H   H436      1.0  0.49970  0.82837  0.14848  1.0000
  H   H437      1.0  0.27887  0.92464  0.29019  1.0000
  H   H438      1.0  0.02245  0.56300  0.06255  1.0000
  C   C264      1.0  0.07420  0.50338  0.33816  1.0000
  H   H439      1.0  0.29385  0.90331  0.22446  1.0000
  C   C265      1.0  0.08839  0.71205  0.49436  1.0000
  H   H440      1.0  0.06341  0.77823  0.38844  1.0000
  C   C266      1.0  0.10821  0.66262  0.20712  1.0000
  H   H441      1.0  0.03300  0.81657  0.49246  1.0000
  C   C267      1.0  0.31936  0.95234  0.29680  1.0000
  C   C268      1.0  0.37414  0.94503  0.21721  1.0000
  H   H442      1.0  0.06909  0.65102  0.21171  1.0000
  H   H443      1.0  0.39687  0.99574  0.32105  1.0000
  C   C269      1.0  0.50132  0.83572  0.12346  1.0000
  H   H444      1.0  0.36048  0.96196  0.25957  1.0000
  C   C270      1.0  0.29983  0.99204  0.25675  1.0000
  H   H445      1.0  0.02476  0.75973  0.50390  1.0000
  H   H446      1.0  0.02586  0.70870  0.44182  1.0000
  H   H447      1.0  0.02162  0.61175  0.28948  1.0000
  H   H448      1.0  0.08429  0.69393  0.22166  1.0000
  H   H449      1.0  0.31339  0.91616  0.48181  1.0000
  C   C271      1.0  0.05271  0.65908  0.11710  1.0000
  H   H450      1.0  0.38945  0.95924  0.21349  1.0000
  H   H451      1.0  0.38754  0.90022  0.16838  1.0000
  H   H452      1.0  0.04731  0.55990  0.01371  1.0000
  C   C272      1.0  0.33094  0.93670  0.24255  1.0000
  H   H453      1.0  0.44923  0.79240  0.14233  1.0000
  H   H454      1.0  0.37332  0.89236  0.13121  1.0000
  C   C273      1.0  0.11685  0.52636  0.06332  1.0000
  H   H455      1.0  0.45783  0.86412  0.11544  1.0000
  C   C274      1.0  0.45266  0.91387  0.04351  1.0000
  H   H456      1.0  0.12844  0.62716  0.17299  1.0000
  H   H457      1.0  0.26941  0.98002  0.44943  1.0000
  C   C275      1.0  0.01063  0.50730  0.19438  1.0000
  H   H458      1.0  0.31802  0.94898  0.47154  1.0000
  C   C276      1.0  0.12779  0.51572  0.35561  1.0000
  H   H459      1.0  0.27401  0.87230  0.26267  1.0000
  H   H460      1.0  0.24269  0.95835  0.41022  1.0000
  H   H461      1.0  0.11606  0.54195  0.31692  1.0000
  H   H462      1.0  0.24207  0.98319  0.47566  1.0000
  H   H463      1.0  0.39694  0.76711  0.14008  1.0000
  H   H464      1.0  0.04434  0.64898  0.16594  1.0000
  C   C277      1.0  0.04603  0.77848  0.37404  1.0000
  H   H465      1.0  0.15058  0.56609  0.14379  1.0000
  H   H466      1.0  0.06469  0.50641  0.07800  1.0000
  H   H467      1.0  0.04726  0.79487  0.35704  1.0000
  C   C278      1.0  0.46033  0.90696  0.01254  1.0000
  H   H468      1.0  0.02669  0.50595  0.20991  1.0000
  S   S74       1.0  0.46767  0.98272  0.24208  1.0000
  H   H469      1.0  0.21566  0.96079  0.43708  1.0000
  H   H470      1.0  0.19744  0.84788  0.48647  1.0000
  H   H471      1.0  0.03041  0.52673  0.12062  1.0000
  Fe  Fe38      1.0  0.50114  0.89816  0.21914  1.0000
  C   C279      1.0  0.28142  0.97924  0.36258  1.0000
  H   H472      1.0  0.28630  0.93587  0.47516  1.0000
  H   H473      1.0  0.20372  0.74699  0.48839  1.0000
  H   H474      1.0  0.36749  0.93931  0.19354  1.0000
  H   H475      1.0  0.11386  0.56369  0.04218  1.0000
  C   C280      1.0  0.02234  0.52687  0.01903  1.0000
  H   H476      1.0  0.29196  0.96190  0.22428  1.0000
  H   H477      1.0  0.02410  0.79833  0.40873  1.0000
  C   C281      1.0  0.29359  0.92072  0.27159  1.0000
  S   S75       1.0  0.45668  0.91741  0.10853  1.0000
  H   H478      1.0  0.16691  0.85033  0.50608  1.0000
  H   H479      1.0  0.46472  0.97808  0.17380  1.0000
  H   H480      1.0  0.11003  0.67007  0.18221  1.0000
  H   H481      1.0  0.09001  0.63238  0.23424  1.0000
  H   H482      1.0  0.05794  0.56495  0.12019  1.0000
  C   C282      1.0  0.02877  0.54443  0.07254  1.0000
  H   H483      1.0  0.03351  0.56626  0.20668  1.0000
  H   H484      1.0  0.09839  0.64043  0.13915  1.0000
  H   H485      1.0  0.43446  0.92274  0.04707  1.0000
  C   C283      1.0  0.10904  0.69587  0.49743  1.0000
  H   H486      1.0  0.15694  0.58043  0.18115  1.0000
  H   H487      1.0  0.14644  0.56227  0.37246  1.0000
  H   H488      1.0  0.32342  0.93280  0.21863  1.0000
  C   C284      1.0  0.33615  0.93346  0.31538  1.0000
  H   H489      1.0  0.41281  0.77687  0.17558  1.0000
  C   C285      1.0  0.41567  0.77057  0.15073  1.0000
  C   C286      1.0  0.34746  0.94552  0.34457  1.0000
  C   C287      1.0  0.11543  0.54383  0.03752  1.0000
  H   H490      1.0  0.42627  0.75253  0.15152  1.0000
  H   H491      1.0  0.33970  0.91860  0.25072  1.0000
  C   C288      1.0  0.03712  0.56641  0.12403  1.0000
  H   H492      1.0  0.26789  0.92469  0.23064  1.0000
  H   H493      1.0  0.32462  0.91713  0.32413  1.0000
  H   H494      1.0  0.35207  0.92675  0.30030  1.0000
  H   H495      1.0  0.42276  0.98844  0.29388  1.0000
  H   H496      1.0  0.30514  0.90491  0.28134  1.0000
  C   C289      1.0  0.26000  0.97882  0.34367  1.0000
  C   C290      1.0  0.26276  0.88796  0.25204  1.0000
  C   C291      1.0  0.01582  0.69526  0.48903  1.0000
  N   N14       1.0  0.30977  0.94390  0.26518  1.0000
  H   H497      1.0  0.35896  0.96236  0.33750  1.0000
  C   C292      1.0  0.13136  0.53976  0.33432  1.0000
  H   H498      1.0  0.33037  0.97009  0.29413  1.0000
  N   N15       1.0  0.17093  0.75909  0.46148  1.0000
  H   H499      1.0  0.01601  0.64395  0.29984  1.0000
  C   C293      1.0  0.18222  0.78396  0.44928  1.0000
  C   C294      1.0  0.14317  0.76309  0.46899  1.0000
  C   C295      1.0  0.17301  0.73955  0.43614  1.0000
  C   C296      1.0  0.20014  0.73161  0.42634  1.0000
  H   H500      1.0  0.39474  0.99766  0.24792  1.0000
  C   C297      1.0  0.12710  0.77380  0.44127  1.0000
  C   C298      1.0  0.21020  0.78949  0.45764  1.0000
  C   C299      1.0  0.22083  0.81204  0.43829  1.0000
  C   C300      1.0  0.19965  0.71111  0.40152  1.0000
  H   H501      1.0  0.00311  0.54658  0.11474  1.0000
  C   C301      1.0  0.10064  0.78102  0.45308  1.0000
  H   H502      1.0  0.17118  0.71056  0.49247  1.0000
  C   C302      1.0  0.01994  0.71695  0.46480  1.0000
  H   H503      1.0  0.18047  0.78592  0.42287  1.0000
  H   H504      1.0  0.17140  0.80017  0.45889  1.0000
  N   N16       1.0  0.01668  0.52348  0.05449  1.0000
  H   H505      1.0  0.13378  0.74497  0.47625  1.0000
  H   H506      1.0  0.16198  0.72234  0.44319  1.0000
  H   H507      1.0  0.16413  0.74658  0.41379  1.0000
  H   H508      1.0  0.21066  0.72397  0.44701  1.0000
  H   H509      1.0  0.21057  0.74790  0.41530  1.0000
  H   H510      1.0  0.33227  0.95100  0.36161  1.0000
  H   H511      1.0  0.13534  0.58023  0.33852  1.0000
  H   H512      1.0  0.12478  0.75920  0.42317  1.0000
  H   H513      1.0  0.13583  0.79073  0.42948  1.0000
  H   H514      1.0  0.21139  0.79393  0.48327  1.0000
  H   H515      1.0  0.22281  0.77330  0.45310  1.0000
  H   H516      1.0  0.20742  0.82809  0.43788  1.0000
  H   H517      1.0  0.23888  0.81836  0.44861  1.0000
  H   H518      1.0  0.22482  0.80644  0.41348  1.0000
  H   H519      1.0  0.21930  0.70540  0.39533  1.0000
  H   H520      1.0  0.18912  0.69425  0.41095  1.0000
  H   H521      1.0  0.19060  0.71826  0.37940  1.0000
  H   H522      1.0  0.24271  0.94243  0.44859  1.0000
  C   C303      1.0  0.13148  0.56342  0.35425  1.0000
  H   H523      1.0  0.03040  0.58466  0.11381  1.0000
  H   H524      1.0  0.10172  0.79594  0.47103  1.0000
  H   H525      1.0  0.08956  0.78838  0.43267  1.0000
  H   H526      1.0  0.09067  0.76429  0.46376  1.0000
  N   N17       1.0  0.42808  0.83651  0.10875  1.0000
  C   C304      1.0  0.42821  0.82814  0.07465  1.0000
  C   C305      1.0  0.41664  0.81585  0.12998  1.0000
  C   C306      1.0  0.41092  0.85921  0.11086  1.0000
  C   C307      1.0  0.45407  0.84370  0.12005  1.0000
  C   C308      1.0  0.43486  0.84892  0.04910  1.0000
  C   C309      1.0  0.40545  0.86897  0.14487  1.0000
  C   C310      1.0  0.43065  0.79028  0.13084  1.0000
  C   C311      1.0  0.35243  0.95616  0.23684  1.0000
  S   S76       1.0  0.47212  0.91084  0.25522  1.0000
  C   C312      1.0  0.39154  0.89417  0.14367  1.0000
  H   H527      1.0  0.40926  0.82054  0.06864  1.0000
  H   H528      1.0  0.44143  0.81225  0.07111  1.0000
  H   H529      1.0  0.41592  0.82165  0.15525  1.0000
  H   H530      1.0  0.39665  0.81240  0.12322  1.0000
  H   H531      1.0  0.39230  0.85521  0.09999  1.0000
  H   H532      1.0  0.41920  0.87546  0.09682  1.0000
  H   H533      1.0  0.40337  0.90890  0.13130  1.0000
  Fe  Fe39      1.0  0.46906  0.94420  0.22173  1.0000
  H   H534      1.0  0.41838  0.86157  0.04544  1.0000
  H   H535      1.0  0.45092  0.86056  0.05663  1.0000
  H   H536      1.0  0.42324  0.87161  0.15792  1.0000
  H   H537      1.0  0.39310  0.85560  0.15883  1.0000
  H   H538      1.0  0.43347  0.78270  0.10672  1.0000
  H   H539      1.0  0.06907  0.66468  0.10140  1.0000
  H   H540      1.0  0.12687  0.65495  0.21435  1.0000
  C   C313      1.0  0.29305  0.96412  0.25052  1.0000
  H   H541      1.0  0.35994  0.93177  0.35695  1.0000
  H   H542      1.0  0.45942  0.82638  0.01883  1.0000
  H   H543      1.0  0.14986  0.53906  0.32137  1.0000
  H   H544      1.0  0.04410  0.77444  0.47240  1.0000
  C   C314      1.0  0.24861  0.98284  0.45041  1.0000
  C   C315      1.0  0.01945  0.75739  0.41839  1.0000
  H   H545      1.0  0.29626  0.99619  0.28229  1.0000
  H   H546      1.0  0.03807  0.75427  0.42938  1.0000
  H   H547      1.0  0.00603  0.78220  0.37932  1.0000
  C   C316      1.0  0.11923  0.50078  0.05682  1.0000
  H   H548      1.0  0.01045  0.63393  0.25965  1.0000
  H   H549      1.0  0.48057  0.83634  0.08023  1.0000
  H   H550      1.0  0.03324  0.68360  0.49016  1.0000
  C   C317      1.0  0.04797  0.53943  0.00885  1.0000
  H   H551      1.0  0.10023  0.50680  0.29881  1.0000
  C   C318      1.0  0.03016  0.79933  0.50775  1.0000
  C   C319      1.0  0.28430  0.87389  0.50779  1.0000
  H   H552      1.0  0.00286  0.79757  0.45461  1.0000
  Fe  Fe40      1.0  0.47971  0.89956  0.91953  1.0000
  H   H553      1.0  0.09549  0.55416  0.70520  1.0000
  Fe  Fe41      1.0  0.44420  0.89025  0.86345  1.0000
  S   S77       1.0  0.45924  0.92383  0.83629  1.0000
  S   S78       1.0  0.41360  0.86685  0.84048  1.0000
  Fe  Fe42      1.0  0.45716  0.94298  0.88266  1.0000
  H   H554      1.0  0.03862  0.57703  0.79016  1.0000
  S   S79       1.0  0.48325  0.87601  0.87520  1.0000
  S   S80       1.0  0.43937  0.91030  0.90970  1.0000
  Fe  Fe43      1.0  0.28930  0.88496  0.64707  1.0000
  S   S81       1.0  0.24867  0.89503  0.65572  1.0000
  S   S82       1.0  0.30461  0.86989  0.60067  1.0000
  Fe  Fe44      1.0  0.30571  0.90311  0.71229  1.0000
  S   S83       1.0  0.26572  0.91407  0.72557  1.0000
  S   S84       1.0  0.33863  0.91798  0.74085  1.0000
  Fe  Fe45      1.0  0.25408  0.87713  0.70420  1.0000
  S   S85       1.0  0.22264  0.85329  0.72858  1.0000
  Fe  Fe46      1.0  0.26385  0.93067  0.67606  1.0000
  S   S86       1.0  0.24792  0.96823  0.65912  1.0000
  S   S87       1.0  0.29441  0.86496  0.69469  1.0000
  S   S88       1.0  0.30408  0.92176  0.66365  1.0000
  C   C320      1.0  0.03718  0.50851  0.76235  1.0000
  Fe  Fe47      1.0  0.10983  0.51640  0.91146  1.0000
  S   S89       1.0  0.09875  0.55657  0.90123  1.0000
  H   H555      1.0  0.16100  0.70081  0.70371  1.0000
  C   C321      1.0  0.11933  0.53700  0.66920  1.0000
  Fe  Fe48      1.0  0.11503  0.55182  0.85166  1.0000
  S   S90       1.0  0.13532  0.58541  0.82707  1.0000
  C   C322      1.0  0.09914  0.53483  0.69637  1.0000
  Fe  Fe49      1.0  0.12867  0.73956  0.67977  1.0000
  S   S91       1.0  0.12155  0.70500  0.65072  1.0000
  S   S92       1.0  0.16927  0.75503  0.67504  1.0000
  Fe  Fe50      1.0  0.07286  0.74174  0.70097  1.0000
  S   S93       1.0  0.06212  0.70819  0.67337  1.0000
  S   S94       1.0  0.04480  0.76216  0.73225  1.0000
  Fe  Fe51      1.0  0.09765  0.69063  0.69268  1.0000
  S   S95       1.0  0.09284  0.64922  0.70852  1.0000
  Fe  Fe52      1.0  0.08680  0.72533  0.63442  1.0000
  S   S96       1.0  0.07107  0.73043  0.58495  1.0000
  S   S97       1.0  0.10720  0.72348  0.72296  1.0000
  S   S98       1.0  0.09513  0.76056  0.66073  1.0000
  C   C323      1.0  0.10390  0.63260  0.74281  1.0000
  C   C324      1.0  0.12089  0.64323  0.76380  1.0000
  C   C325      1.0  0.13016  0.62871  0.78974  1.0000
  C   C326      1.0  0.12199  0.60370  0.79550  1.0000
  C   C327      1.0  0.10427  0.59348  0.77518  1.0000
  C   C328      1.0  0.09547  0.60774  0.74885  1.0000
  H   H556      1.0  0.12709  0.66248  0.75974  1.0000
  H   H557      1.0  0.14373  0.63681  0.80547  1.0000
  H   H558      1.0  0.09776  0.57442  0.77951  1.0000
  H   H559      1.0  0.08217  0.59941  0.73293  1.0000
  H   H560      1.0  0.32840  0.97993  0.72713  1.0000
  C   C329      1.0  0.33898  0.97694  0.63009  1.0000
  H   H561      1.0  0.15597  0.88233  0.65151  1.0000
  C   C330      1.0  0.49615  0.90250  0.71573  1.0000
  H   H562      1.0  0.27163  0.72099  0.70597  1.0000
  C   C331      1.0  0.08647  0.71714  0.55185  1.0000
  C   C332      1.0  0.10712  0.70092  0.55513  1.0000
  H   H563      1.0  0.21295  0.92430  0.88721  1.0000
  H   H564      1.0  0.11429  0.69639  0.57853  1.0000
  C   C333      1.0  0.46501  0.94659  0.75379  1.0000
  C   C334      1.0  0.29657  0.96885  0.52573  1.0000
  C   C335      1.0  0.25790  0.99743  0.67399  1.0000
  S   S99       1.0  0.07914  0.53771  0.83115  1.0000
  H   H565      1.0  0.22960  0.89547  0.54080  1.0000
  C   C336      1.0  0.20795  0.82604  0.71321  1.0000
  C   C337      1.0  0.22080  0.81004  0.69253  1.0000
  C   C338      1.0  0.20872  0.78830  0.68144  1.0000
  C   C339      1.0  0.18352  0.78246  0.69043  1.0000
  C   C340      1.0  0.17067  0.79841  0.71115  1.0000
  C   C341      1.0  0.18296  0.81984  0.72282  1.0000
  H   H566      1.0  0.24016  0.81429  0.68534  1.0000
  H   H567      1.0  0.21893  0.77606  0.66556  1.0000
  H   H568      1.0  0.15126  0.79431  0.71816  1.0000
  H   H569      1.0  0.17287  0.83196  0.73899  1.0000
  H   H570      1.0  0.20769  0.90140  0.85716  1.0000
  C   C342      1.0  0.19067  0.86240  0.63892  1.0000
  C   C343      1.0  0.02250  0.61449  0.78043  1.0000
  C   C344      1.0  0.24871  0.88831  0.53937  1.0000
  H   H571      1.0  0.12185  0.77031  0.58507  1.0000
  H   H572      1.0  0.15811  0.84325  0.62051  1.0000
  S   S100      1.0  0.02650  0.55800  0.89047  1.0000
  Fe  Fe53      1.0  0.06395  0.53991  0.88099  1.0000
  H   H573      1.0  0.03760  0.52435  0.77905  1.0000
  C   C345      1.0  0.44560  0.99017  0.97097  1.0000
  C   C346      1.0  0.39233  0.88113  0.81333  1.0000
  C   C347      1.0  0.39194  0.90725  0.80806  1.0000
  C   C348      1.0  0.37536  0.91809  0.78576  1.0000
  C   C349      1.0  0.35877  0.90302  0.76872  1.0000
  C   C350      1.0  0.35887  0.87691  0.77419  1.0000
  C   C351      1.0  0.37561  0.86603  0.79642  1.0000
  H   H574      1.0  0.40437  0.91914  0.82126  1.0000
  H   H575      1.0  0.37533  0.93831  0.78182  1.0000
  H   H576      1.0  0.34634  0.86510  0.76101  1.0000
  H   H577      1.0  0.37580  0.84580  0.80034  1.0000
  C   C352      1.0  0.26239  0.88428  0.56734  1.0000
  C   C353      1.0  0.28713  0.87515  0.56574  1.0000
  H   H578      1.0  0.04089  0.60093  0.83960  1.0000
  H   H579      1.0  0.25375  0.88812  0.59010  1.0000
  C   C354      1.0  0.19579  0.68246  0.84603  1.0000
  H   H580      1.0  0.48552  0.97598  0.84742  1.0000
  C   C355      1.0  0.08310  0.51884  0.74774  1.0000
  H   H581      1.0  0.26436  0.96706  0.59773  1.0000
  H   H582      1.0  0.37641  0.87826  0.70712  1.0000
  H   H583      1.0  0.00643  0.74580  0.57852  1.0000
  C   C356      1.0  0.34722  0.90428  0.87964  1.0000
  H   H584      1.0  0.05842  0.51699  0.96799  1.0000
  H   H585      1.0  0.01781  0.50698  0.75277  1.0000
  H   H586      1.0  0.25635  0.87288  0.86271  1.0000
  C   C357      1.0  0.01122  0.69554  0.59969  1.0000
  H   H587      1.0  0.04954  0.52883  0.72010  1.0000
  H   H588      1.0  0.47105  0.85522  0.73901  1.0000
  H   H589      1.0  0.24427  0.73604  0.68901  1.0000
  H   H590      1.0  0.35453  0.98768  0.61775  1.0000
  S   S101      1.0  0.12997  0.51260  0.86338  1.0000
  S   S102      1.0  0.43870  0.98090  0.88316  1.0000
  H   H591      1.0  0.27065  0.95946  0.78477  1.0000
  H   H592      1.0  0.00979  0.67348  0.77191  1.0000
  H   H593      1.0  0.12682  0.55861  0.62530  1.0000
  H   H594      1.0  0.44548  0.89119  0.78604  1.0000
  H   H595      1.0  0.19283  0.86302  0.57211  1.0000
  H   H596      1.0  0.09216  0.60907  0.86327  1.0000
  C   C358      1.0  0.01960  0.58591  0.78893  1.0000
  C   C359      1.0  0.45876  0.88876  0.76544  1.0000
  C   C360      1.0  0.29092  0.95841  0.79120  1.0000
  H   H597      1.0  0.43265  0.95191  0.97999  1.0000
  C   C361      1.0  0.14274  0.76031  0.78529  1.0000
  C   C362      1.0  0.00754  0.64089  0.82525  1.0000
  N   N18       1.0  0.03034  0.63155  0.80682  1.0000
  H   H598      1.0  0.14412  0.81028  0.57089  1.0000
  H   H599      1.0  0.12901  0.74720  0.79746  1.0000
  C   C363      1.0  0.29796  0.86970  0.53590  1.0000
  S   S103      1.0  0.49419  0.88638  0.96859  1.0000
  H   H600      1.0  0.25763  0.74771  0.72515  1.0000
  H   H601      1.0  0.05235  0.67464  0.56605  1.0000
  H   H602      1.0  0.44337  0.85041  0.76403  1.0000
  C   C364      1.0  0.47829  0.84887  0.78895  1.0000
  H   H603      1.0  0.03681  0.61530  0.76050  1.0000
  H   H604      1.0  0.45478  0.95545  0.94694  1.0000
  H   H605      1.0  0.00990  0.74171  0.68508  1.0000
  H   H606      1.0  0.06536  0.61147  0.81348  1.0000
  C   C365      1.0  0.19705  0.83575  0.53627  1.0000
  H   H607      1.0  0.29880  0.97187  0.62761  1.0000
  H   H608      1.0  0.18186  0.76228  0.77116  1.0000
  H   H609      1.0  0.17710  0.67019  0.80447  1.0000
  C   C366      1.0  0.45563  0.97156  0.76689  1.0000
  H   H610      1.0  0.17900  0.70132  0.54936  1.0000
  H   H611      1.0  0.16635  0.69992  0.81909  1.0000
  H   H612      1.0  0.15621  0.65445  0.70374  1.0000
  C   C367      1.0  0.17335  0.87519  0.66311  1.0000
  N   N19       1.0  0.10495  0.51721  0.72410  1.0000
  C   C368      1.0  0.22073  0.90713  0.87614  1.0000
  C   C369      1.0  0.01073  0.52325  0.84839  1.0000
  N   N20       1.0  0.28524  0.89151  0.83339  1.0000
  C   C370      1.0  0.30246  0.89546  0.86114  1.0000
  C   C371      1.0  0.25826  0.88937  0.84575  1.0000
  C   C372      1.0  0.29218  0.86655  0.81907  1.0000
  C   C373      1.0  0.28765  0.91201  0.80771  1.0000
  C   C374      1.0  0.29475  0.93894  0.81822  1.0000
  C   C375      1.0  0.33121  0.89314  0.85355  1.0000
  C   C376      1.0  0.27472  0.85723  0.79245  1.0000
  H   H613      1.0  0.08152  0.52892  0.68458  1.0000
  H   H614      1.0  0.08482  0.62960  0.89560  1.0000
  H   H615      1.0  0.02263  0.70375  0.61891  1.0000
  C   C377      1.0  0.02926  0.66834  0.76446  1.0000
  C   C378      1.0  0.28639  0.83489  0.77535  1.0000
  H   H616      1.0  0.29800  0.88145  0.88076  1.0000
  H   H617      1.0  0.07013  0.54871  0.96606  1.0000
  H   H618      1.0  0.24518  0.88572  0.82594  1.0000
  H   H619      1.0  0.21845  0.95888  0.59352  1.0000
  H   H620      1.0  0.29272  0.85139  0.83798  1.0000
  H   H621      1.0  0.31161  0.86754  0.80836  1.0000
  H   H622      1.0  0.30226  0.90703  0.78954  1.0000
  H   H623      1.0  0.26974  0.91343  0.79428  1.0000
  C   C379      1.0  0.18795  0.71810  0.53733  1.0000
  C   C380      1.0  0.04282  0.69278  0.75428  1.0000
  H   H624      1.0  0.33652  0.87298  0.85169  1.0000
  H   H625      1.0  0.33629  0.90285  0.83065  1.0000
  H   H626      1.0  0.27123  0.87236  0.77435  1.0000
  H   H627      1.0  0.25621  0.85073  0.80270  1.0000
  C   C381      1.0  0.46740  0.90241  0.70828  1.0000
  C   C382      1.0  0.38913  0.88569  0.68765  1.0000
  H   H628      1.0  0.09366  0.55362  0.63430  1.0000
  H   H629      1.0  0.01802  0.70557  0.57748  1.0000
  H   H630      1.0  0.01299  0.65654  0.84084  1.0000
  H   H631      1.0  0.42869  0.87049  0.71897  1.0000
  C   C383      1.0  0.22437  0.94540  0.57502  1.0000
  H   H632      1.0  0.30230  0.95347  0.76975  1.0000
  H   H633      1.0  0.26823  0.98277  0.72023  1.0000
  H   H634      1.0  0.31498  0.93969  0.82474  1.0000
  N   N21       1.0  0.44901  0.90268  0.73636  1.0000
  H   H635      1.0  0.30457  0.84044  0.76338  1.0000
  H   H636      1.0  0.28974  0.81898  0.79247  1.0000
  H   H637      1.0  0.27325  0.82844  0.75688  1.0000
  C   C384      1.0  0.42470  0.88984  0.72725  1.0000
  H   H638      1.0  0.47693  0.89680  0.77316  1.0000
  C   C385      1.0  0.01907  0.66755  0.59659  1.0000
  H   H639      1.0  0.06242  0.64884  0.78155  1.0000
  H   H640      1.0  0.05861  0.67403  0.60832  1.0000
  H   H641      1.0  0.00804  0.79194  0.76325  1.0000
  H   H642      1.0  0.36762  0.90124  0.87407  1.0000
  H   H643      1.0  0.44101  0.99549  0.99578  1.0000
  H   H644      1.0  0.05276  0.64511  0.58819  1.0000
  H   H645      1.0  0.24509  0.92845  0.84435  1.0000
  H   H646      1.0  0.13826  0.54181  0.67814  1.0000
  H   H647      1.0  0.06228  0.68877  0.74539  1.0000
  H   H648      1.0  0.48030  0.82823  0.78621  1.0000
  H   H649      1.0  0.39884  0.91960  0.71081  1.0000
  H   H650      1.0  0.29923  0.91404  0.87185  1.0000
  H   H651      1.0  0.21254  0.67013  0.84265  1.0000
  H   H652      1.0  0.39823  0.86967  0.67545  1.0000
  C   C386      1.0  0.16164  0.51829  0.78222  1.0000
  C   C387      1.0  0.04908  0.61825  0.82811  1.0000
  H   H653      1.0  0.13425  0.67765  0.53052  1.0000
  H   H654      1.0  0.27741  0.94006  0.58075  1.0000
  H   H655      1.0  0.11566  0.54953  0.98612  1.0000
  H   H656      1.0  0.19198  0.81611  0.53080  1.0000
  H   H657      1.0  0.28341  0.94495  0.83906  1.0000
  C   C388      1.0  0.11232  0.55766  0.64484  1.0000
  H   H658      1.0  0.08212  0.53798  0.75782  1.0000
  H   H659      1.0  0.04756  0.66854  0.80987  1.0000
  H   H660      1.0  0.14911  0.75882  0.60588  1.0000
  C   C389      1.0  0.31394  0.98159  0.61332  1.0000
  H   H661      1.0  0.06132  0.73522  0.51891  1.0000
  H   H662      1.0  0.18922  0.65129  0.69189  1.0000
  H   H663      1.0  0.07234  0.64946  0.84506  1.0000
  H   H664      1.0  0.34839  0.98386  0.76091  1.0000
  C   C390      1.0  0.44261  0.92934  0.74530  1.0000
  H   H665      1.0  0.47209  0.98383  0.77173  1.0000
  C   C391      1.0  0.47825  0.99478  0.84346  1.0000
  H   H666      1.0  0.31930  0.95123  0.58103  1.0000
  H   H667      1.0  0.16728  0.66686  0.66562  1.0000
  C   C392      1.0  0.05358  0.53680  0.97325  1.0000
  H   H668      1.0  0.12040  0.51905  0.65634  1.0000
  H   H669      1.0  0.43324  0.93958  0.72539  1.0000
  N   N22       1.0  0.19096  0.82688  0.59722  1.0000
  C   C393      1.0  0.18023  0.80067  0.59396  1.0000
  C   C394      1.0  0.21916  0.82563  0.60293  1.0000
  C   C395      1.0  0.17809  0.83836  0.62589  1.0000
  C   C396      1.0  0.18551  0.84369  0.56857  1.0000
  H   H670      1.0  0.18346  0.89136  0.67336  1.0000
  C   C397      1.0  0.15104  0.79862  0.59122  1.0000
  C   C398      1.0  0.23429  0.80426  0.58670  1.0000
  C   C399      1.0  0.26278  0.80844  0.58920  1.0000
  C   C400      1.0  0.14283  0.77141  0.58597  1.0000
  H   H671      1.0  0.18558  0.78869  0.61505  1.0000
  H   H672      1.0  0.18857  0.79124  0.57303  1.0000
  H   H673      1.0  0.22834  0.84405  0.59639  1.0000
  H   H674      1.0  0.22277  0.82250  0.62871  1.0000
  H   H675      1.0  0.17700  0.82440  0.64620  1.0000
  H   H676      1.0  0.16793  0.86184  0.68294  1.0000
  H   H677      1.0  0.18207  0.67241  0.86231  1.0000
  H   H678      1.0  0.20833  0.85734  0.65137  1.0000
  H   H679      1.0  0.22967  0.78588  0.59883  1.0000
  H   H680      1.0  0.22996  0.80262  0.56118  1.0000
  H   H681      1.0  0.27315  0.79210  0.57947  1.0000
  H   H682      1.0  0.26867  0.82556  0.57514  1.0000
  H   H683      1.0  0.26820  0.81064  0.61443  1.0000
  H   H684      1.0  0.37738  0.89623  0.67015  1.0000
  H   H685      1.0  0.19550  0.87649  0.61979  1.0000
  C   C401      1.0  0.45008  0.96183  0.97130  1.0000
  H   H686      1.0  0.14142  0.80469  0.61348  1.0000
  H   H687      1.0  0.47734  0.93779  0.77193  1.0000
  C   C402      1.0  0.12838  0.52655  0.74017  1.0000
  C   C403      1.0  0.07648  0.61781  0.87704  1.0000
  H   H688      1.0  0.42146  0.91003  0.68066  1.0000
  H   H689      1.0  0.44343  0.98155  0.74942  1.0000
  S   S104      1.0  0.49740  0.93391  0.89467  1.0000
  C   C404      1.0  0.34485  0.99054  0.73608  1.0000
  C   C405      1.0  0.24714  0.91276  0.86213  1.0000
  H   H690      1.0  0.17517  0.74339  0.80669  1.0000
  H   H691      1.0  0.46360  0.91867  0.69173  1.0000
  C   C406      1.0  0.11890  0.51024  0.99916  1.0000
  Fe  Fe54      1.0  0.49831  0.91119  0.84985  1.0000
  C   C407      1.0  0.16877  0.74801  0.78224  1.0000
  H   H692      1.0  0.03720  0.54295  0.95886  1.0000
  H   H693      1.0  0.15273  0.73024  0.51851  1.0000
  H   H694      1.0  0.18913  0.73330  0.55489  1.0000
  H   H695      1.0  0.15078  0.76458  0.56312  1.0000
  H   H696      1.0  0.34394  0.92488  0.88107  1.0000
  H   H697      1.0  0.41190  0.88727  0.74848  1.0000
  H   H698      1.0  0.14416  0.77758  0.79948  1.0000
  H   H699      1.0  0.34372  0.95656  0.63061  1.0000
  C   C408      1.0  0.04360  0.65430  0.79164  1.0000
  H   H700      1.0  0.42872  0.92903  0.76564  1.0000
  H   H701      1.0  0.12179  0.52091  0.79153  1.0000
  C   C409      1.0  0.24621  0.95642  0.55460  1.0000
  H   H702      1.0  0.01341  0.80189  0.52376  1.0000
  H   H703      1.0  0.48631  0.99674  0.96861  1.0000
  C   C410      1.0  0.40911  0.90326  0.70083  1.0000
  H   H704      1.0  0.44542  0.85318  0.99899  1.0000
  H   H705      1.0  0.46910  0.85220  0.81249  1.0000
  H   H706      1.0  0.12677  0.54710  0.74464  1.0000
  H   H707      1.0  0.25904  0.91897  0.88189  1.0000
  H   H708      1.0  0.22153  0.89188  0.89478  1.0000
  H   H709      1.0  0.20173  0.70010  0.85742  1.0000
  C   C411      1.0  0.46215  0.85992  0.76223  1.0000
  H   H710      1.0  0.19356  0.69838  0.69096  1.0000
  H   H711      1.0  0.31703  0.86237  0.53449  1.0000
  H   H712      1.0  0.16478  0.84620  0.56583  1.0000
  H   H713      1.0  0.11158  0.57631  0.65621  1.0000
  C   C412      1.0  0.31489  0.97172  0.57881  1.0000
  C   C413      1.0  0.04743  0.66528  0.58937  1.0000
  H   H714      1.0  0.34269  0.89498  0.90310  1.0000
  H   H715      1.0  0.47651  0.95117  0.73198  1.0000
  H   H716      1.0  0.16526  0.50860  0.80547  1.0000
  H   H717      1.0  0.32388  0.93783  0.53012  1.0000
  N   N23       1.0  0.19170  0.70940  0.75838  1.0000
  C   C414      1.0  0.18606  0.68560  0.74093  1.0000
  C   C415      1.0  0.20208  0.70216  0.79056  1.0000
  C   C416      1.0  0.16754  0.72428  0.76156  1.0000
  C   C417      1.0  0.21102  0.72554  0.74041  1.0000
  C   C418      1.0  0.23633  0.71254  0.73154  1.0000
  C   C419      1.0  0.17829  0.68918  0.70563  1.0000
  H   H718      1.0  0.02817  0.65650  0.74313  1.0000
  C   C420      1.0  0.18334  0.68835  0.81413  1.0000
  C   C421      1.0  0.25346  0.73048  0.71173  1.0000
  C   C422      1.0  0.17245  0.66383  0.69096  1.0000
  H   H719      1.0  0.13549  0.76577  0.76141  1.0000
  H   H720      1.0  0.17028  0.67507  0.75312  1.0000
  H   H721      1.0  0.20243  0.67246  0.74181  1.0000
  H   H722      1.0  0.21858  0.68937  0.78773  1.0000
  H   H723      1.0  0.20973  0.71898  0.80241  1.0000
  H   H724      1.0  0.15173  0.71201  0.77074  1.0000
  H   H725      1.0  0.16143  0.73123  0.73774  1.0000
  H   H726      1.0  0.20292  0.73358  0.71817  1.0000
  H   H727      1.0  0.21608  0.74220  0.75450  1.0000
  H   H728      1.0  0.23324  0.69561  0.71723  1.0000
  H   H729      1.0  0.24669  0.70683  0.75331  1.0000
  H   H730      1.0  0.03221  0.70243  0.73492  1.0000
  H   H731      1.0  0.06488  0.60274  0.88911  1.0000
  H   H732      1.0  0.20794  0.94160  0.55977  1.0000
  C   C423      1.0  0.07721  0.72267  0.52144  1.0000
  C   C424      1.0  0.27043  0.95934  0.57458  1.0000
  H   H733      1.0  0.23005  0.92750  0.58710  1.0000
  H   H734      1.0  0.46586  0.95679  0.98733  1.0000
  H   H735      1.0  0.33161  0.98026  0.56603  1.0000
  H   H736      1.0  0.04485  0.64223  0.87004  1.0000
  H   H737      1.0  0.46435  0.88541  0.69382  1.0000
  H   H738      1.0  0.14536  0.52492  0.72449  1.0000
  H   H739      1.0  0.04709  0.79669  0.52277  1.0000
  H   H740      1.0  0.01193  0.70267  0.51308  1.0000
  H   H741      1.0  0.01007  0.58228  0.81220  1.0000
  H   H742      1.0  0.16494  0.53881  0.78480  1.0000
  H   H743      1.0  0.02885  0.51421  0.85150  1.0000
  N   N24       1.0  0.29120  0.97567  0.55982  1.0000
  H   H744      1.0  0.44793  0.91007  0.99268  1.0000
  H   H745      1.0  0.01435  0.57363  0.74031  1.0000
  C   C425      1.0  0.11634  0.53584  0.00565  1.0000
  H   H746      1.0  0.27989  0.97306  0.51076  1.0000
  C   C426      1.0  0.05643  0.51275  0.73502  1.0000
  C   C427      1.0  0.30470  0.94118  0.52056  1.0000
  H   H747      1.0  0.24989  0.94362  0.53456  1.0000
  C   C428      1.0  0.11832  0.69024  0.52794  1.0000
  H   H748      1.0  0.42883  0.99402  0.95608  1.0000
  C   C429      1.0  0.13436  0.51341  0.77260  1.0000
  H   H749      1.0  0.29706  0.97730  0.79881  1.0000
  H   H750      1.0  0.04383  0.70581  0.77447  1.0000
  C   C430      1.0  0.06011  0.63404  0.85511  1.0000
  H   H751      1.0  0.31219  0.98070  0.51533  1.0000
  H   H752      1.0  0.44478  0.96832  0.78961  1.0000
  H   H753      1.0  0.00783  0.53915  0.00754  1.0000
  H   H754      1.0  0.21797  0.83783  0.53644  1.0000
  H   H755      1.0  0.17517  0.51083  0.76426  1.0000
  H   H756      1.0  0.36159  0.98629  0.72075  1.0000
  H   H757      1.0  0.29153  0.92756  0.53256  1.0000
  H   H758      1.0  0.47057  0.99911  0.93169  1.0000
  H   H759      1.0  0.50190  0.88413  0.72653  1.0000
  C   C431      1.0  0.01211  0.76630  0.72472  1.0000
  C   C432      1.0  0.26657  0.99949  0.70509  1.0000
  H   H760      1.0  0.18204  0.76586  0.50968  1.0000
  H   H761      1.0  0.23969  0.97466  0.54439  1.0000
  C   C433      1.0  0.48381  0.89554  0.00735  1.0000
  C   C434      1.0  0.17203  0.72649  0.50895  1.0000
  H   H762      1.0  0.00497  0.61024  0.86202  1.0000
  C   C435      1.0  0.00470  0.54499  0.86496  1.0000
  H   H763      1.0  0.33733  0.98324  0.65508  1.0000
  H   H764      1.0  0.08613  0.50575  0.76835  1.0000
  H   H765      1.0  0.00452  0.62136  0.76985  1.0000
  H   H766      1.0  0.01497  0.65661  0.61901  1.0000
  H   H767      1.0  0.00672  0.68251  0.66267  1.0000
  H   H768      1.0  0.00898  0.65858  0.57696  1.0000
  C   C436      1.0  0.00442  0.57240  0.76388  1.0000
  H   H769      1.0  0.20733  0.71287  0.52922  1.0000
  H   H770      1.0  0.19182  0.87285  0.51352  1.0000
  C   C437      1.0  0.25971  0.88348  0.50951  1.0000
  H   H771      1.0  0.50134  0.91713  0.73264  1.0000
  H   H772      1.0  0.49749  0.85753  0.78828  1.0000
  H   H773      1.0  0.02105  0.50845  0.00711  1.0000
  C   C438      1.0  0.18760  0.85275  0.50905  1.0000
  H   H774      1.0  0.02075  0.50072  0.92187  1.0000
  H   H775      1.0  0.42624  0.82577  0.00849  1.0000
  C   C439      1.0  0.63402  0.06899  0.32627  1.0000
  S   S105      1.0  0.56687  0.11557  0.19435  1.0000
  C   C440      1.0  0.85411  0.46086  0.39549  1.0000
  Fe  Fe55      1.0  0.69740  0.11276  0.36263  1.0000
  S   S106      1.0  0.66138  0.13454  0.36970  1.0000
  S   S107      1.0  0.69465  0.07269  0.38338  1.0000
  Fe  Fe56      1.0  0.72747  0.16066  0.34234  1.0000
  S   S108      1.0  0.69335  0.18519  0.34771  1.0000
  S   S109      1.0  0.76689  0.17599  0.32846  1.0000
  Fe  Fe57      1.0  0.68574  0.16290  0.39309  1.0000
  S   S110      1.0  0.67297  0.18272  0.43752  1.0000
  Fe  Fe58      1.0  0.67162  0.15471  0.32345  1.0000
  S   S111      1.0  0.64089  0.16969  0.29016  1.0000
  S   S112      1.0  0.72113  0.14012  0.38940  1.0000
  S   S113      1.0  0.70653  0.13122  0.31444  1.0000
  H   H776      1.0  0.61117  0.12375  0.32580  1.0000
  H   H777      1.0  0.90047  0.41423  0.13040  1.0000
  S   S114      1.0  0.85570  0.46160  0.19049  1.0000
  Fe  Fe59      1.0  0.85178  0.30436  0.34356  1.0000
  S   S115      1.0  0.85482  0.33910  0.37327  1.0000
  S   S116      1.0  0.81200  0.28662  0.34637  1.0000
  Fe  Fe60      1.0  0.90737  0.30965  0.32180  1.0000
  S   S117      1.0  0.91377  0.34387  0.35022  1.0000
  S   S118      1.0  0.93870  0.29555  0.28915  1.0000
  Fe  Fe61      1.0  0.89177  0.32303  0.38891  1.0000
  S   S119      1.0  0.90782  0.32353  0.43849  1.0000
  Fe  Fe62      1.0  0.87632  0.35728  0.33177  1.0000
  S   S120      1.0  0.87470  0.39990  0.32118  1.0000
  S   S121      1.0  0.88795  0.28735  0.36181  1.0000
  S   S122      1.0  0.87077  0.32392  0.30068  1.0000
  C   C441      1.0  0.88784  0.33051  0.47114  1.0000
  H   H778      1.0  0.89168  0.44796  0.40574  1.0000
  H   H779      1.0  0.59826  0.03591  0.34709  1.0000
  H   H780      1.0  0.63036  0.02765  0.19236  1.0000
  H   H781      1.0  0.85291  0.32629  0.44633  1.0000
  C   C442      1.0  0.97038  0.28881  0.29964  1.0000
  C   C443      1.0  0.98402  0.27266  0.27996  1.0000
  H   H782      1.0  0.87761  0.43280  0.37334  1.0000
  H   H783      1.0  0.51767  0.20787  0.39913  1.0000
  C   C444      1.0  0.98284  0.30011  0.32492  1.0000
  H   H784      1.0  0.97464  0.26378  0.26051  1.0000
  H   H785      1.0  0.81443  0.28576  0.44920  1.0000
  H   H786      1.0  0.97249  0.31268  0.34025  1.0000
  H   H787      1.0  0.97989  0.31865  0.40691  1.0000
  H   H788      1.0  0.70647  0.01642  0.29217  1.0000
  C   C445      1.0  0.87374  0.43923  0.39801  1.0000
  H   H789      1.0  0.58107  0.16898  0.45286  1.0000
  C   C446      1.0  0.86010  0.44511  0.22755  1.0000
  C   C447      1.0  0.87044  0.45669  0.25387  1.0000
  C   C448      1.0  0.87453  0.44262  0.28235  1.0000
  C   C449      1.0  0.86853  0.41677  0.28487  1.0000
  C   C450      1.0  0.85810  0.40519  0.25860  1.0000
  C   C451      1.0  0.85389  0.41931  0.23018  1.0000
  H   H790      1.0  0.87506  0.47654  0.25232  1.0000
  H   H791      1.0  0.88248  0.45183  0.30253  1.0000
  H   H792      1.0  0.85328  0.38537  0.26016  1.0000
  H   H793      1.0  0.84580  0.41014  0.21005  1.0000
  C   C452      1.0  0.78000  0.20596  0.33738  1.0000
  C   C453      1.0  0.76532  0.22515  0.35046  1.0000
  C   C454      1.0  0.77567  0.24948  0.35374  1.0000
  C   C455      1.0  0.80096  0.25491  0.34465  1.0000
  C   C456      1.0  0.81590  0.23550  0.33256  1.0000
  C   C457      1.0  0.80541  0.21127  0.32875  1.0000
  H   H794      1.0  0.74581  0.22141  0.35734  1.0000
  H   H795      1.0  0.76390  0.26429  0.36312  1.0000
  H   H796      1.0  0.83533  0.23934  0.32534  1.0000
  H   H797      1.0  0.81699  0.19662  0.31862  1.0000
  C   C458      1.0  0.68043  0.16719  0.47379  1.0000
  C   C459      1.0  0.69075  0.14298  0.47408  1.0000
  H   H798      1.0  0.93065  0.47305  0.20052  1.0000
  H   H799      1.0  0.69460  0.13377  0.45189  1.0000
  C   C460      1.0  0.62238  0.03419  0.21537  1.0000
  H   H800      1.0  0.70396  0.11184  0.50317  1.0000
  C   C461      1.0  0.58627  0.13057  0.22243  1.0000
  C   C462      1.0  0.58270  0.15567  0.23068  1.0000
  C   C463      1.0  0.59949  0.16719  0.25162  1.0000
  C   C464      1.0  0.61986  0.15375  0.26487  1.0000
  C   C465      1.0  0.62304  0.12844  0.25729  1.0000
  C   C466      1.0  0.60639  0.11699  0.23609  1.0000
  H   H801      1.0  0.56738  0.16638  0.22033  1.0000
  H   H802      1.0  0.59686  0.18677  0.25727  1.0000
  H   H803      1.0  0.63864  0.11788  0.26719  1.0000
  H   H804      1.0  0.60936  0.09762  0.22983  1.0000
  C   C467      1.0  0.69558  0.02144  0.38317  1.0000
  C   C468      1.0  0.69805  0.04358  0.36433  1.0000
  C   C469      1.0  0.70208  0.04174  0.33141  1.0000
  H   H805      1.0  0.69249  0.02268  0.40851  1.0000
  H   H806      1.0  0.70403  0.05868  0.31662  1.0000
  C   C470      1.0  0.53825  0.05014  0.14350  1.0000
  N   N25       1.0  0.86659  0.41706  0.41984  1.0000
  C   C471      1.0  0.88661  0.39710  0.41542  1.0000
  C   C472      1.0  0.84149  0.40707  0.40897  1.0000
  C   C473      1.0  0.86458  0.42585  0.45381  1.0000
  C   C474      1.0  0.87078  0.40618  0.48075  1.0000
  C   C475      1.0  0.91427  0.40623  0.41995  1.0000
  C   C476      1.0  0.82998  0.38463  0.42855  1.0000
  C   C477      1.0  0.80558  0.37529  0.41378  1.0000
  C   C478      1.0  0.86559  0.48425  0.37868  1.0000
  C   C479      1.0  0.61024  0.02723  0.32827  1.0000
  H   H807      1.0  0.88577  0.38950  0.39096  1.0000
  H   H808      1.0  0.88305  0.38036  0.43131  1.0000
  H   H809      1.0  0.84311  0.40161  0.38350  1.0000
  H   H810      1.0  0.87752  0.44208  0.45743  1.0000
  H   H811      1.0  0.84526  0.43336  0.45869  1.0000
  H   H812      1.0  0.97070  0.30297  0.46195  1.0000
  H   H813      1.0  0.86141  0.38787  0.47749  1.0000
  H   H814      1.0  0.92127  0.41589  0.39762  1.0000
  H   H815      1.0  0.91548  0.41981  0.43947  1.0000
  H   H816      1.0  0.84329  0.36869  0.42965  1.0000
  H   H817      1.0  0.82496  0.39038  0.45308  1.0000
  H   H818      1.0  0.79088  0.39021  0.41415  1.0000
  H   H819      1.0  0.80903  0.36971  0.38875  1.0000
  H   H820      1.0  0.79831  0.35857  0.42764  1.0000
  H   H821      1.0  0.87262  0.47967  0.35439  1.0000
  H   H822      1.0  0.97195  0.33343  0.47753  1.0000
  S   S123      1.0  0.52006  0.11568  0.12349  1.0000
  C   C480      1.0  0.89877  0.33594  0.50030  1.0000
  H   H823      1.0  0.55699  0.05964  0.14316  1.0000
  H   H824      1.0  0.64742  0.03503  0.30541  1.0000
  N   N26       1.0  0.94525  0.42230  0.20999  1.0000
  C   C481      1.0  0.94750  0.39774  0.22872  1.0000
  C   C482      1.0  0.96882  0.42611  0.18941  1.0000
  C   C483      1.0  0.94428  0.44319  0.23378  1.0000
  C   C484      1.0  0.92177  0.42377  0.18993  1.0000
  C   C485      1.0  0.91149  0.39872  0.17678  1.0000
  C   C486      1.0  0.92694  0.39304  0.25505  1.0000
  H   H825      1.0  0.55255  0.00561  0.24094  1.0000
  C   C487      1.0  0.89183  0.40375  0.15118  1.0000
  C   C488      1.0  0.92518  0.36529  0.26534  1.0000
  H   H826      1.0  0.96611  0.39682  0.24071  1.0000
  H   H827      1.0  0.94731  0.38141  0.21289  1.0000
  H   H828      1.0  0.96034  0.44146  0.25054  1.0000
  H   H829      1.0  0.92668  0.44162  0.24878  1.0000
  H   H830      1.0  0.90570  0.43187  0.20366  1.0000
  C   C489      1.0  0.67538  0.17892  0.50279  1.0000
  H   H831      1.0  0.90208  0.38731  0.19618  1.0000
  H   H832      1.0  0.92651  0.38694  0.16628  1.0000
  H   H833      1.0  0.93131  0.40397  0.27649  1.0000
  H   H834      1.0  0.90820  0.39911  0.24665  1.0000
  C   C490      1.0  0.52954  0.07814  0.26197  1.0000
  C   C491      1.0  0.69592  0.13053  0.50317  1.0000
  H   H835      1.0  0.88419  0.38561  0.14293  1.0000
  H   H836      1.0  0.87583  0.41491  0.16089  1.0000
  H   H837      1.0  0.55772  0.16508  0.03414  1.0000
  H   H838      1.0  0.90992  0.36294  0.28367  1.0000
  H   H839      1.0  0.92036  0.35341  0.24494  1.0000
  H   H840      1.0  0.94321  0.35870  0.27579  1.0000
  N   N27       1.0  0.99314  0.30529  0.50432  1.0000
  H   H841      1.0  0.62444  0.07542  0.34838  1.0000
  H   H842      1.0  0.63454  0.02702  0.23490  1.0000
  H   H843      1.0  0.54760  0.01118  0.15236  1.0000
  H   H844      1.0  0.84701  0.46625  0.41940  1.0000
  H   H845      1.0  0.98117  0.35043  0.42133  1.0000
  H   H846      1.0  0.72504  0.01751  0.44802  1.0000
  H   H847      1.0  0.96381  0.47505  0.20981  1.0000
  H   H848      1.0  0.83783  0.45501  0.38104  1.0000
  H   H849      1.0  0.95340  0.48862  0.26415  1.0000
  H   H850      1.0  0.62480  0.00490  0.44391  1.0000
  H   H851      1.0  0.98521  0.33887  0.26457  1.0000
  H   H852      1.0  0.51304  0.12396  0.05028  1.0000
  H   H853      1.0  0.65974  0.24189  0.35511  1.0000
  C   C492      1.0  0.93897  0.48965  0.24530  1.0000
  H   H854      1.0  0.91991  0.48630  0.25620  1.0000
  C   C493      1.0  0.52047  0.19505  0.37888  1.0000
  H   H855      1.0  0.58343  0.10554  0.33704  1.0000
  C   C494      1.0  0.86148  0.33100  0.46858  1.0000
  H   H856      1.0  0.53129  0.09586  0.24737  1.0000
  H   H857      1.0  0.93177  0.37043  0.40834  1.0000
  C   C495      1.0  0.57242  0.16866  0.01521  1.0000
  H   H858      1.0  0.63401  0.25279  0.37972  1.0000
  C   C496      1.0  0.61499  0.14874  0.46376  1.0000
  H   H859      1.0  0.93195  0.49996  0.03137  1.0000
  H   H860      1.0  0.64780  0.03497  0.34816  1.0000
  H   H861      1.0  0.62929  0.24755  0.33768  1.0000
  H   H862      1.0  0.58021  0.13404  0.31313  1.0000
  C   C497      1.0  0.84621  0.33760  0.49491  1.0000
  C   C498      1.0  0.72573  0.00166  0.46572  1.0000
  H   H863      1.0  0.67216  0.03260  0.45646  1.0000
  H   H864      1.0  0.62349  0.16461  0.47660  1.0000
  C   C499      1.0  0.57782  0.03382  0.19339  1.0000
  H   H865      1.0  0.98779  0.32732  0.19316  1.0000
  H   H866      1.0  0.60120  0.03262  0.30539  1.0000
  H   H867      1.0  0.66735  0.19763  0.50271  1.0000
  H   H868      1.0  0.98580  0.42748  0.20467  1.0000
  H   H869      1.0  0.58510  0.02476  0.17141  1.0000
  N   N28       1.0  0.54970  0.02911  0.19803  1.0000
  Fe  Fe63      1.0  0.52951  0.12889  0.17264  1.0000
  C   C500      1.0  0.80085  0.26999  0.45385  1.0000
  H   H870      1.0  0.53062  0.06121  0.09446  1.0000
  C   C501      1.0  0.98372  0.31643  0.47328  1.0000
  H   H871      1.0  0.80373  0.25598  0.43493  1.0000
  H   H872      1.0  0.78121  0.27726  0.45224  1.0000
  H   H873      1.0  0.60536  0.13595  0.48156  1.0000
  N   N29       1.0  0.75563  0.22907  0.24726  1.0000
  C   C502      1.0  0.77418  0.24812  0.25929  1.0000
  C   C503      1.0  0.73345  0.22677  0.27048  1.0000
  C   C504      1.0  0.76882  0.20382  0.24704  1.0000
  C   C505      1.0  0.74674  0.23532  0.21392  1.0000
  C   C506      1.0  0.74499  0.26366  0.20400  1.0000
  C   C507      1.0  0.80056  0.24868  0.24235  1.0000
  C   C508      1.0  0.75184  0.18057  0.24118  1.0000
  C   C509      1.0  0.71838  0.25109  0.27707  1.0000
  C   C510      1.0  0.69864  0.24650  0.30373  1.0000
  C   C511      1.0  0.73139  0.26725  0.17240  1.0000
  C   C512      1.0  0.81542  0.27241  0.25008  1.0000
  C   C513      1.0  0.76777  0.15692  0.23656  1.0000
  H   H874      1.0  0.77753  0.24442  0.28506  1.0000
  H   H875      1.0  0.76641  0.26747  0.25824  1.0000
  H   H876      1.0  0.71919  0.21316  0.26204  1.0000
  H   H877      1.0  0.73995  0.21886  0.29376  1.0000
  H   H878      1.0  0.77855  0.20021  0.26996  1.0000
  H   H879      1.0  0.78415  0.20383  0.22845  1.0000
  H   H880      1.0  0.75951  0.22682  0.19573  1.0000
  H   H881      1.0  0.72793  0.22645  0.21018  1.0000
  H   H882      1.0  0.76424  0.27188  0.20074  1.0000
  H   H883      1.0  0.73485  0.27484  0.22200  1.0000
  H   H884      1.0  0.81188  0.23222  0.25064  1.0000
  H   H885      1.0  0.79885  0.24783  0.21611  1.0000
  H   H886      1.0  0.74017  0.18369  0.21975  1.0000
  H   H887      1.0  0.73911  0.17659  0.26213  1.0000
  H   H888      1.0  0.73076  0.26660  0.28464  1.0000
  H   H889      1.0  0.70793  0.25709  0.25553  1.0000
  H   H890      1.0  0.68530  0.23126  0.29746  1.0000
  H   H891      1.0  0.70802  0.24120  0.32641  1.0000
  H   H892      1.0  0.68763  0.26398  0.30749  1.0000
  H   H893      1.0  0.71154  0.26036  0.17475  1.0000
  H   H894      1.0  0.73104  0.28759  0.16545  1.0000
  H   H895      1.0  0.74136  0.25694  0.15322  1.0000
  H   H896      1.0  0.83451  0.27182  0.23858  1.0000
  H   H897      1.0  0.80552  0.28955  0.24117  1.0000
  H   H898      1.0  0.81782  0.27363  0.27623  1.0000
  H   H899      1.0  0.78043  0.15917  0.21522  1.0000
  H   H900      1.0  0.77937  0.15300  0.25796  1.0000
  H   H901      1.0  0.75513  0.14049  0.23328  1.0000
  H   H902      1.0  0.53600  0.08203  0.28636  1.0000
  H   H903      1.0  0.52369  0.06362  0.15182  1.0000
  C   C514      1.0  0.53709  0.05116  0.21376  1.0000
  H   H904      1.0  0.99303  0.36070  0.23208  1.0000
  H   H905      1.0  0.54453  0.04089  0.26401  1.0000
  C   C515      1.0  0.99242  0.33320  0.41686  1.0000
  H   H906      1.0  0.62282  0.05511  0.21526  1.0000
  H   H907      1.0  0.98387  0.47773  0.13243  1.0000
  H   H908      1.0  0.99923  0.42899  0.13343  1.0000
  C   C516      1.0  0.61640  0.00505  0.39353  1.0000
  H   H909      1.0  0.95933  0.40698  0.14560  1.0000
  C   C517      1.0  0.98630  0.49122  0.15097  1.0000
  H   H910      1.0  0.65317  0.07773  0.32481  1.0000
  C   C518      1.0  0.93222  0.38447  0.42741  1.0000
  H   H911      1.0  0.62326  0.07554  0.30515  1.0000
  H   H912      1.0  0.54017  0.06879  0.19933  1.0000
  H   H913      1.0  0.68068  0.08781  0.45425  1.0000
  C   C519      1.0  0.80522  0.25754  0.48660  1.0000
  H   H914      1.0  0.58147  0.05436  0.18902  1.0000
  H   H915      1.0  0.73929  0.00644  0.48446  1.0000
  H   H916      1.0  0.51333  0.03376  0.10873  1.0000
  C   C520      1.0  0.63655  0.04031  0.32711  1.0000
  H   H917      1.0  0.82478  0.25002  0.48608  1.0000
  H   H918      1.0  0.89144  0.40256  0.48133  1.0000
  H   H919      1.0  0.59620  0.00358  0.22150  1.0000
  C   C521      1.0  0.54588  0.05747  0.24756  1.0000
  C   C522      1.0  0.53188  0.04364  0.10931  1.0000
  H   H920      1.0  0.96003  0.32913  0.21877  1.0000
  H   H921      1.0  0.51630  0.04820  0.21489  1.0000
  H   H922      1.0  0.65028  0.05543  0.50358  1.0000
  H   H923      1.0  0.70116  0.04625  0.46832  1.0000
  H   H924      1.0  0.88144  0.49182  0.39258  1.0000
  H   H925      1.0  0.82587  0.33842  0.49270  1.0000
  C   C523      1.0  0.94471  0.47049  0.21964  1.0000
  H   H926      1.0  0.93991  0.29263  0.49645  1.0000
  H   H927      1.0  0.82671  0.42185  0.40999  1.0000
  H   H928      1.0  0.54677  0.03147  0.09889  1.0000
  C   C524      1.0  0.68282  0.03847  0.47769  1.0000
  H   H929      1.0  0.58867  0.03049  0.24431  1.0000
  H   H930      1.0  0.50935  0.07225  0.26344  1.0000
  C   C525      1.0  0.59533  0.02446  0.22061  1.0000
  N   N30       1.0  0.59368  0.18471  0.38545  1.0000
  C   C526      1.0  0.56598  0.18692  0.39447  1.0000
  C   C527      1.0  0.60889  0.17660  0.41422  1.0000
  C   C528      1.0  0.60283  0.21061  0.37449  1.0000
  C   C529      1.0  0.59799  0.16707  0.35833  1.0000
  C   C530      1.0  0.58785  0.13986  0.36337  1.0000
  C   C531      1.0  0.54810  0.19546  0.36735  1.0000
  C   C532      1.0  0.63170  0.21324  0.36727  1.0000
  C   C533      1.0  0.59595  0.15863  0.43951  1.0000
  H   H931      1.0  0.91913  0.33569  0.50243  1.0000
  C   C534      1.0  0.59085  0.12496  0.33291  1.0000
  H   H932      1.0  0.65337  0.09751  0.47716  1.0000
  C   C535      1.0  0.63898  0.24061  0.35945  1.0000
  H   H933      1.0  0.56366  0.20041  0.41422  1.0000
  H   H934      1.0  0.55830  0.16878  0.40420  1.0000
  H   H935      1.0  0.62694  0.16772  0.40640  1.0000
  H   H936      1.0  0.61474  0.19329  0.42793  1.0000
  H   H937      1.0  0.59768  0.22471  0.39271  1.0000
  H   H938      1.0  0.59347  0.21678  0.35211  1.0000
  H   H939      1.0  0.59031  0.17514  0.33575  1.0000
  H   H940      1.0  0.61855  0.16516  0.35320  1.0000
  H   H941      1.0  0.56750  0.13953  0.37021  1.0000
  H   H942      1.0  0.59894  0.12982  0.38189  1.0000
  H   H943      1.0  0.55245  0.21503  0.35898  1.0000
  H   H944      1.0  0.54966  0.18283  0.34680  1.0000
  H   H945      1.0  0.63730  0.20204  0.34641  1.0000
  H   H946      1.0  0.64312  0.20691  0.38779  1.0000
  H   H947      1.0  0.95186  0.39171  0.42903  1.0000
  H   H948      1.0  0.58694  0.14221  0.42873  1.0000
  C   C536      1.0  0.97406  0.40600  0.16405  1.0000
  H   H949      1.0  0.58396  0.15133  0.01287  1.0000
  H   H950      1.0  0.96793  0.44430  0.17574  1.0000
  C   C537      1.0  0.70341  0.01780  0.31762  1.0000
  H   H951      1.0  0.56560  0.06475  0.24637  1.0000
  H   H952      1.0  0.92479  0.43740  0.16950  1.0000
  C   C538      1.0  0.53794  0.02632  0.16575  1.0000
  H   H953      1.0  0.99236  0.26864  0.48262  1.0000
  C   C539      1.0  0.98048  0.32434  0.21797  1.0000
  H   H954      1.0  0.92685  0.37513  0.45060  1.0000
  H   H955      1.0  0.63037  0.13812  0.45172  1.0000
  H   H956      1.0  0.79167  0.24163  0.48970  1.0000
  C   C540      1.0  0.54369  0.00535  0.21737  1.0000
  H   H957      1.0  0.58465  0.18441  0.02259  1.0000
  C   C541      1.0  0.99477  0.34091  0.24079  1.0000
  H   H958      1.0  0.97488  0.48756  0.04715  1.0000
  H   H959      1.0  0.65026  0.07335  0.44808  1.0000
  N   N31       1.0  0.68689  0.01597  0.49987  1.0000
  C   C542      1.0  0.99941  0.41061  0.14674  1.0000
  H   H960      1.0  0.51781  0.02018  0.16861  1.0000
  H   H961      1.0  0.97474  0.38672  0.17475  1.0000
  H   H962      1.0  0.98240  0.30414  0.22502  1.0000
  H   H963      1.0  0.64624  0.01141  0.49513  1.0000
  C   C543      1.0  0.66288  0.08111  0.46628  1.0000
  S   S124      1.0  0.51071  0.16664  0.16447  1.0000
  H   H964      1.0  0.62136  0.02535  0.39138  1.0000
  C   C544      1.0  0.66857  0.06117  0.49213  1.0000
  H   H965      1.0  0.51462  0.17565  0.38650  1.0000
  H   H966      1.0  0.50811  0.20146  0.35916  1.0000
  H   H967      1.0  0.56332  0.01450  0.30302  1.0000
  H   H968      1.0  0.86862  0.49413  0.03902  1.0000
  H   H969      1.0  0.59580  0.00337  0.39863  1.0000
  H   H970      1.0  0.99985  0.35911  0.50124  1.0000
  C   C545      1.0  0.50655  0.13414  0.02933  1.0000
  H   H971      1.0  0.52295  0.00413  0.22283  1.0000
  H   H972      1.0  0.85092  0.49911  0.37635  1.0000
  H   H973      1.0  0.81533  0.29244  0.50871  1.0000
  H   H974      1.0  0.57311  0.07340  0.79051  1.0000
  S   S125      1.0  0.55660  0.17029  0.81309  1.0000
  Fe  Fe64      1.0  0.69398  0.14560  0.61466  1.0000
  S   S126      1.0  0.72914  0.14983  0.64318  1.0000
  S   S127      1.0  0.69681  0.12544  0.56803  1.0000
  Fe  Fe65      1.0  0.65867  0.16101  0.67062  1.0000
  S   S128      1.0  0.69144  0.16648  0.70315  1.0000
  S   S129      1.0  0.61622  0.15809  0.68090  1.0000
  Fe  Fe66      1.0  0.71113  0.18555  0.66023  1.0000
  S   S130      1.0  0.72982  0.22463  0.65867  1.0000
  Fe  Fe67      1.0  0.70663  0.13047  0.68291  1.0000
  S   S131      1.0  0.71850  0.09591  0.71190  1.0000
  S   S132      1.0  0.67691  0.18233  0.62883  1.0000
  S   S133      1.0  0.67298  0.12427  0.65330  1.0000
  C   C546      1.0  0.73191  0.01272  0.57273  1.0000
  H   H975      1.0  0.98783  0.46314  0.96132  1.0000
  C   C547      1.0  0.69933  0.04240  0.64950  1.0000
  S   S134      1.0  0.83282  0.48031  0.76599  1.0000
  S   S135      1.0  0.52442  0.11519  0.85133  1.0000
  H   H976      1.0  0.55795  0.06624  0.82865  1.0000
  H   H977      1.0  0.80283  0.02261  0.64053  1.0000
  H   H978      1.0  0.73014  0.07853  0.55548  1.0000
  Fe  Fe68      1.0  0.86048  0.29976  0.65246  1.0000
  S   S136      1.0  0.83836  0.33569  0.65082  1.0000
  S   S137      1.0  0.84431  0.26184  0.67013  1.0000
  Fe  Fe69      1.0  0.90941  0.32626  0.62642  1.0000
  S   S138      1.0  0.89046  0.36398  0.62288  1.0000
  S   S139      1.0  0.94948  0.32404  0.60623  1.0000
  Fe  Fe70      1.0  0.87300  0.35405  0.67103  1.0000
  S   S140      1.0  0.87757  0.37657  0.71626  1.0000
  Fe  Fe71      1.0  0.85805  0.34229  0.60308  1.0000
  S   S141      1.0  0.83815  0.35117  0.55710  1.0000
  S   S142      1.0  0.89413  0.31729  0.67559  1.0000
  S   S143      1.0  0.87798  0.30524  0.60357  1.0000
  C   C548      1.0  0.97476  0.32045  0.63271  1.0000
  C   C549      1.0  0.97041  0.31424  0.66493  1.0000
  C   C550      1.0  0.99091  0.31119  0.68546  1.0000
  C   C551      1.0  0.53509  0.20483  0.88957  1.0000
  H   H979      1.0  0.99732  0.49544  0.81628  1.0000
  H   H980      1.0  0.95128  0.31147  0.67396  1.0000
  H   H981      1.0  0.58902  0.08028  0.82685  1.0000
  H   H982      1.0  0.83365  0.23961  0.53515  1.0000
  C   C552      1.0  0.98004  0.37708  0.71533  1.0000
  C   C553      1.0  0.57924  0.18183  0.95665  1.0000
  H   H983      1.0  0.65040  0.18217  0.87261  1.0000
  H   H984      1.0  0.66888  0.10632  0.75083  1.0000
  C   C554      1.0  0.86571  0.40624  0.72803  1.0000
  C   C555      1.0  0.87578  0.41715  0.75518  1.0000
  C   C556      1.0  0.86636  0.44012  0.76647  1.0000
  C   C557      1.0  0.84631  0.45221  0.75114  1.0000
  C   C558      1.0  0.83621  0.44132  0.72393  1.0000
  C   C559      1.0  0.84607  0.41862  0.71216  1.0000
  H   H985      1.0  0.89097  0.40776  0.76763  1.0000
  H   H986      1.0  0.87430  0.44819  0.78742  1.0000
  H   H987      1.0  0.82074  0.45053  0.71185  1.0000
  H   H988      1.0  0.83832  0.41058  0.69108  1.0000
  C   C560      1.0  0.88354  0.34188  0.52678  1.0000
  C   C561      1.0  0.85723  0.34294  0.52412  1.0000
  H   H989      1.0  0.79032  0.32151  0.54292  1.0000
  H   H990      1.0  0.89224  0.34608  0.54915  1.0000
  H   H991      1.0  0.93352  0.42339  0.82656  1.0000
  C   C562      1.0  0.97486  0.47391  0.91344  1.0000
  H   H992      1.0  0.51976  0.07248  0.90008  1.0000
  C   C563      1.0  0.76209  0.23401  0.66015  1.0000
  C   C564      1.0  0.76826  0.25958  0.65460  1.0000
  C   C565      1.0  0.79338  0.26826  0.65696  1.0000
  C   C566      1.0  0.81268  0.25145  0.66503  1.0000
  C   C567      1.0  0.80659  0.22583  0.67036  1.0000
  C   C568      1.0  0.78147  0.21709  0.66773  1.0000
  H   H993      1.0  0.75339  0.27282  0.64885  1.0000
  H   H994      1.0  0.79772  0.28804  0.65319  1.0000
  H   H995      1.0  0.82136  0.21269  0.67681  1.0000
  H   H996      1.0  0.77701  0.19740  0.67224  1.0000
  C   C569      1.0  0.57342  0.16573  0.77674  1.0000
  C   C570      1.0  0.59954  0.17087  0.77462  1.0000
  C   C571      1.0  0.61313  0.16822  0.74562  1.0000
  C   C572      1.0  0.60051  0.16098  0.71833  1.0000
  C   C573      1.0  0.57442  0.15584  0.72053  1.0000
  C   C574      1.0  0.56100  0.15785  0.74964  1.0000
  H   H997      1.0  0.60929  0.17707  0.79542  1.0000
  H   H998      1.0  0.63319  0.17231  0.74419  1.0000
  H   H999      1.0  0.56447  0.15044  0.69949  1.0000
  H   H1000     1.0  0.54088  0.15410  0.75085  1.0000
  C   C575      1.0  0.71153  0.04435  0.71372  1.0000
  C   C576      1.0  0.71070  0.06678  0.69517  1.0000
  C   C577      1.0  0.70452  0.06564  0.66304  1.0000
  H   H1001     1.0  0.71652  0.04504  0.73856  1.0000
  H   H1002     1.0  0.70451  0.08256  0.64819  1.0000
  H   H1003     1.0  0.58704  0.20084  0.96154  1.0000
  H   H1004     1.0  0.72086  0.03376  0.51665  1.0000
  C   C578      1.0  0.80768  0.07540  0.62345  1.0000
  C   C579      1.0  0.93621  0.49699  0.93093  1.0000
  H   H1005     1.0  0.67661  0.17557  0.55420  1.0000
  C   C580      1.0  0.58850  0.19257  0.90008  1.0000
  N   N32       1.0  0.80567  0.32635  0.75161  1.0000
  C   C581      1.0  0.79036  0.30324  0.76151  1.0000
  C   C582      1.0  0.80580  0.34505  0.77823  1.0000
  C   C583      1.0  0.79284  0.33865  0.72328  1.0000
  C   C584      1.0  0.83233  0.31971  0.74141  1.0000
  C   C585      1.0  0.84842  0.30557  0.76653  1.0000
  C   C586      1.0  0.78771  0.28288  0.73596  1.0000
  C   C587      1.0  0.80251  0.36538  0.71274  1.0000
  C   C588      1.0  0.80529  0.33434  0.81309  1.0000
  C   C589      1.0  0.81080  0.35500  0.83666  1.0000
  C   C590      1.0  0.87398  0.29773  0.75247  1.0000
  C   C591      1.0  0.77300  0.25995  0.74921  1.0000
  C   C592      1.0  0.78752  0.37583  0.68453  1.0000
  H   H1006     1.0  0.77087  0.30895  0.76892  1.0000
  H   H1007     1.0  0.79831  0.29356  0.78278  1.0000
  H   H1008     1.0  0.82234  0.35809  0.77510  1.0000
  H   H1009     1.0  0.78871  0.35731  0.77709  1.0000
  H   H1010     1.0  0.77209  0.34022  0.72818  1.0000
  H   H1011     1.0  0.79492  0.32678  0.70193  1.0000
  H   H1012     1.0  0.83235  0.30855  0.71934  1.0000
  H   H1013     1.0  0.84318  0.33702  0.73458  1.0000
  H   H1014     1.0  0.83886  0.28821  0.77584  1.0000
  H   H1015     1.0  0.85257  0.31818  0.78639  1.0000
  H   H1016     1.0  0.77720  0.29034  0.71517  1.0000
  H   H1017     1.0  0.80653  0.27615  0.72776  1.0000
  H   H1018     1.0  0.82271  0.36490  0.70537  1.0000
  H   H1019     1.0  0.80054  0.37907  0.73210  1.0000
  H   H1020     1.0  0.78618  0.32656  0.81913  1.0000
  H   H1021     1.0  0.81912  0.31906  0.81702  1.0000
  H   H1022     1.0  0.83016  0.36277  0.83235  1.0000
  H   H1023     1.0  0.79682  0.37051  0.83435  1.0000
  H   H1024     1.0  0.80960  0.34706  0.86142  1.0000
  H   H1025     1.0  0.88516  0.31465  0.74474  1.0000
  H   H1026     1.0  0.88486  0.28716  0.77080  1.0000
  H   H1027     1.0  0.87135  0.28532  0.73189  1.0000
  H   H1028     1.0  0.77125  0.24587  0.73027  1.0000
  H   H1029     1.0  0.78306  0.25096  0.76951  1.0000
  H   H1030     1.0  0.75364  0.26543  0.75709  1.0000
  H   H1031     1.0  0.78908  0.36320  0.66394  1.0000
  H   H1032     1.0  0.76725  0.37798  0.69138  1.0000
  H   H1033     1.0  0.79512  0.39463  0.67696  1.0000
  S   S144      1.0  0.50322  0.05956  0.80150  1.0000
  H   H1034     1.0  0.81301  0.09551  0.61866  1.0000
  C   C593      1.0  0.93950  0.45145  0.94034  1.0000
  N   N33       1.0  0.56899  0.18152  0.92332  1.0000
  H   H1035     1.0  0.59557  0.16897  0.95937  1.0000
  H   H1036     1.0  0.78983  0.14231  0.67570  1.0000
  C   C594      1.0  0.57637  0.06665  0.81536  1.0000
  H   H1037     1.0  0.57330  0.02724  0.77248  1.0000
  C   C595      1.0  0.78627  0.10146  0.68270  1.0000
  H   H1038     1.0  0.98054  0.48793  0.89431  1.0000
  H   H1039     1.0  0.85387  0.05141  0.60913  1.0000
  H   H1040     1.0  0.75294  0.00407  0.67194  1.0000
  Fe  Fe72      1.0  0.51888  0.15031  0.82186  1.0000
  H   H1041     1.0  0.51457  0.10375  0.99779  1.0000
  H   H1042     1.0  0.58162  0.09275  0.92152  1.0000
  H   H1043     1.0  0.63700  0.21160  0.88499  1.0000
  H   H1044     1.0  0.99363  0.25730  0.54101  1.0000
  C   C596      1.0  0.69081  0.14217  0.53216  1.0000
  H   H1045     1.0  0.60740  0.04220  0.80435  1.0000
  H   H1046     1.0  0.76408  0.30171  0.55425  1.0000
  H   H1047     1.0  0.84178  0.41772  0.51499  1.0000
  C   C597      1.0  0.77695  0.32526  0.59124  1.0000
  H   H1048     1.0  0.86844  0.22170  0.56907  1.0000
  C   C598      1.0  0.77381  0.00395  0.66842  1.0000
  H   H1049     1.0  0.62303  0.17554  0.92037  1.0000
  C   C599      1.0  0.54089  0.08680  0.71772  1.0000
  H   H1050     1.0  0.59695  0.13589  0.92615  1.0000
  H   H1051     1.0  0.62451  0.19581  0.85092  1.0000
  H   H1052     1.0  0.77232  0.02087  0.62181  1.0000
  C   C600      1.0  0.71143  0.00328  0.55082  1.0000
  H   H1053     1.0  0.78859  0.23893  0.58079  1.0000
  H   H1054     1.0  0.72145  0.23198  0.55666  1.0000
  H   H1055     1.0  0.98219  0.45562  0.90492  1.0000
  C   C601      1.0  0.57059  0.10847  0.91074  1.0000
  C   C602      1.0  0.90570  0.42459  0.96885  1.0000
  C   C603      1.0  0.63253  0.19297  0.87505  1.0000
  C   C604      1.0  0.61391  0.17837  0.89702  1.0000
  C   C605      1.0  0.70616  0.02097  0.70015  1.0000
  C   C606      1.0  0.56108  0.15546  0.91352  1.0000
  H   H1056     1.0  0.53043  0.19022  0.93763  1.0000
  H   H1057     1.0  0.58107  0.19314  0.87542  1.0000
  C   C607      1.0  0.91090  0.44476  0.94284  1.0000
  H   H1058     1.0  0.80970  0.04144  0.59359  1.0000
  H   H1059     1.0  0.56160  0.15433  0.88702  1.0000
  H   H1060     1.0  0.54157  0.10710  0.72340  1.0000
  H   H1061     1.0  0.54771  0.21806  0.87573  1.0000
  C   C608      1.0  0.74188  0.22730  0.55825  1.0000
  H   H1062     1.0  0.95009  0.43406  0.93438  1.0000
  H   H1063     1.0  0.85212  0.08119  0.58709  1.0000
  H   H1064     1.0  0.76421  0.34100  0.58434  1.0000
  C   C609      1.0  0.54617  0.19866  0.92278  1.0000
  C   C610      1.0  0.78236  0.30904  0.56237  1.0000
  H   H1065     1.0  0.59262  0.21249  0.90605  1.0000
  H   H1066     1.0  0.57585  0.11034  0.88501  1.0000
  N   N34       1.0  0.78015  0.07317  0.63378  1.0000
  H   H1067     1.0  0.96282  0.44527  0.86069  1.0000
  H   H1068     1.0  0.54093  0.15167  0.92029  1.0000
  H   H1069     1.0  0.92957  0.45691  0.82151  1.0000
  C   C611      1.0  0.94260  0.44453  0.86840  1.0000
  H   H1070     1.0  0.52512  0.04810  0.87191  1.0000
  H   H1071     1.0  0.95642  0.26594  0.51303  1.0000
  H   H1072     1.0  0.69458  0.04183  0.62459  1.0000
  H   H1073     1.0  0.82736  0.23281  0.59419  1.0000
  C   C612      1.0  0.80161  0.28785  0.57048  1.0000
  H   H1074     1.0  0.61076  0.15988  0.88600  1.0000
  H   H1075     1.0  0.67437  0.07266  0.75142  1.0000
  C   C613      1.0  0.52206  0.05187  0.89759  1.0000
  H   H1076     1.0  0.95061  0.39182  0.74761  1.0000
  C   C614      1.0  0.92710  0.44068  0.83858  1.0000
  C   C615      1.0  0.80157  0.27675  0.51350  1.0000
  N   N35       1.0  0.61184  0.07522  0.69369  1.0000
  C   C616      1.0  0.63473  0.08618  0.70935  1.0000
  C   C617      1.0  0.61218  0.08347  0.65893  1.0000
  C   C618      1.0  0.58871  0.08669  0.70929  1.0000
  C   C619      1.0  0.61022  0.04683  0.69740  1.0000
  C   C620      1.0  0.63567  0.03216  0.69847  1.0000
  C   C621      1.0  0.63493  0.08340  0.74629  1.0000
  C   C622      1.0  0.56272  0.08010  0.69500  1.0000
  C   C623      1.0  0.63334  0.07229  0.63758  1.0000
  C   C624      1.0  0.63350  0.08440  0.60407  1.0000
  H   H1077     1.0  0.93960  0.42771  0.88423  1.0000
  C   C625      1.0  0.66131  0.08769  0.75927  1.0000
  H   H1078     1.0  0.57112  0.12961  0.95324  1.0000
  H   H1079     1.0  0.63614  0.10679  0.70365  1.0000
  H   H1080     1.0  0.65262  0.07836  0.69960  1.0000
  H   H1081     1.0  0.59433  0.07810  0.64737  1.0000
  H   H1082     1.0  0.61327  0.10447  0.65674  1.0000
  H   H1083     1.0  0.59039  0.10762  0.70875  1.0000
  H   H1084     1.0  0.58742  0.08087  0.73491  1.0000
  H   H1085     1.0  0.59972  0.04118  0.71976  1.0000
  H   H1086     1.0  0.59878  0.03912  0.67788  1.0000
  H   H1087     1.0  0.64446  0.03398  0.72209  1.0000
  H   H1088     1.0  0.64963  0.03920  0.68045  1.0000
  H   H1089     1.0  0.62225  0.09777  0.75686  1.0000
  H   H1090     1.0  0.62818  0.06453  0.75468  1.0000
  H   H1091     1.0  0.56124  0.05976  0.69003  1.0000
  H   H1092     1.0  0.55998  0.09114  0.67245  1.0000
  H   H1093     1.0  0.65226  0.07519  0.64756  1.0000
  H   H1094     1.0  0.63020  0.05177  0.63497  1.0000
  H   H1095     1.0  0.63646  0.10510  0.60502  1.0000
  H   H1096     1.0  0.64924  0.07646  0.58959  1.0000
  H   H1097     1.0  0.61537  0.08068  0.59210  1.0000
  H   H1098     1.0  0.83842  0.26425  0.60044  1.0000
  H   H1099     1.0  0.79223  0.13105  0.71645  1.0000
  C   C626      1.0  0.57190  0.02131  0.79813  1.0000
  C   C627      1.0  0.57628  0.13283  0.92768  1.0000
  H   H1100     1.0  0.66046  0.08728  0.78573  1.0000
  H   H1101     1.0  0.98526  0.46190  0.76648  1.0000
  C   C628      1.0  0.68064  0.16647  0.53195  1.0000
  C   C629      1.0  0.77603  0.05109  0.65683  1.0000
  H   H1102     1.0  0.92124  0.30125  0.55010  1.0000
  C   C630      1.0  0.92924  0.28253  0.54452  1.0000
  C   C631      1.0  0.70355  0.02414  0.52650  1.0000
  H   H1103     1.0  0.87981  0.25351  0.57418  1.0000
  C   C632      1.0  0.86665  0.23871  0.58376  1.0000
  H   H1104     1.0  0.54173  0.07536  0.74026  1.0000
  C   C633      1.0  0.77264  0.09678  0.65093  1.0000
  H   H1105     1.0  0.61882  0.01285  0.76751  1.0000
  C   C634      1.0  0.63175  0.00412  0.69276  1.0000
  C   C635      1.0  0.94198  0.35328  0.73868  1.0000
  H   H1106     1.0  0.95637  0.46693  0.74518  1.0000
  H   H1107     1.0  0.91115  0.43151  0.99250  1.0000
  H   H1108     1.0  0.55860  0.01349  0.86208  1.0000
  H   H1109     1.0  0.51098  0.23551  0.90556  1.0000
  H   H1110     1.0  0.68028  0.07031  0.51022  1.0000
  C   C636      1.0  0.83941  0.24829  0.58404  1.0000
  H   H1111     1.0  0.95851  0.44089  0.77329  1.0000
  H   H1112     1.0  0.72532  0.02972  0.58517  1.0000
  H   H1113     1.0  0.96836  0.38386  0.69499  1.0000
  H   H1114     1.0  0.74518  0.21893  0.58241  1.0000
  H   H1115     1.0  0.50931  0.03499  0.95933  1.0000
  H   H1116     1.0  0.84509  0.27082  0.54058  1.0000
  C   C637      1.0  0.75779  0.25119  0.55266  1.0000
  C   C638      1.0  0.66121  0.00736  0.51286  1.0000
  C   C639      1.0  0.96132  0.37412  0.74420  1.0000
  H   H1117     1.0  0.94549  0.45589  0.96484  1.0000
  H   H1118     1.0  0.94008  0.49809  0.95682  1.0000
  H   H1119     1.0  0.55020  0.10377  0.91343  1.0000
  H   H1120     1.0  0.90671  0.43840  0.84499  1.0000
  H   H1121     1.0  0.76760  0.31385  0.61072  1.0000
  H   H1122     1.0  0.79479  0.33339  0.60010  1.0000
  H   H1123     1.0  0.95148  0.33468  0.73747  1.0000
  H   H1124     1.0  0.92778  0.35251  0.75855  1.0000
  H   H1125     1.0  0.93184  0.35700  0.71609  1.0000
  H   H1126     1.0  0.97103  0.36949  0.76669  1.0000
  H   H1127     1.0  0.79080  0.22865  0.54118  1.0000
  H   H1128     1.0  0.53296  0.18747  0.87587  1.0000
  C   C640      1.0  0.97113  0.30295  0.52767  1.0000
  H   H1129     1.0  0.88516  0.42007  0.96983  1.0000
  H   H1130     1.0  0.75190  0.09671  0.65627  1.0000
  H   H1131     1.0  0.76181  0.13204  0.69806  1.0000
  C   C641      1.0  0.76256  0.07052  0.60616  1.0000
  C   C642      1.0  0.93513  0.46926  0.88516  1.0000
  H   H1132     1.0  0.52252  0.08293  0.70641  1.0000
  C   C643      1.0  0.84486  0.06153  0.58881  1.0000
  H   H1133     1.0  0.91413  0.47048  0.88680  1.0000
  C   C644      1.0  0.76073  0.09387  0.58326  1.0000
  H   H1134     1.0  0.54736  0.15937  0.97755  1.0000
  C   C645      1.0  0.81606  0.06129  0.59305  1.0000
  H   H1135     1.0  0.75609  0.05091  0.66591  1.0000
  H   H1136     1.0  0.74954  0.01722  0.55886  1.0000
  C   C646      1.0  0.74925  0.08697  0.55149  1.0000
  H   H1137     1.0  0.75183  0.26447  0.57130  1.0000
  H   H1138     1.0  0.74296  0.06641  0.61513  1.0000
  H   H1139     1.0  0.76769  0.05410  0.59174  1.0000
  H   H1140     1.0  0.94089  0.48487  0.86831  1.0000
  H   H1141     1.0  0.99114  0.40886  0.76460  1.0000
  H   H1142     1.0  0.55171  0.02467  0.80493  1.0000
  H   H1143     1.0  0.54717  0.19183  0.98801  1.0000
  C   C647      1.0  0.78210  0.02459  0.64427  1.0000
  C   C648      1.0  0.58840  0.04047  0.81594  1.0000
  H   H1144     1.0  0.80695  0.09830  0.68023  1.0000
  C   C649      1.0  0.78226  0.12838  0.69374  1.0000
  H   H1145     1.0  0.74829  0.10827  0.59418  1.0000
  H   H1146     1.0  0.77952  0.10268  0.57841  1.0000
  C   C650      1.0  0.97889  0.43562  0.72823  1.0000
  H   H1147     1.0  0.87222  0.23367  0.60853  1.0000
  N   N36       1.0  0.80452  0.26669  0.54725  1.0000
  H   H1148     1.0  0.89943  0.46148  0.94877  1.0000
  H   H1149     1.0  0.85028  0.05192  0.56652  1.0000
  H   H1150     1.0  0.81998  0.29797  0.57304  1.0000
  C   C651      1.0  0.70033  0.01997  0.66783  1.0000
  H   H1151     1.0  0.93740  0.27403  0.56651  1.0000
  C   C652      1.0  0.83111  0.25649  0.54996  1.0000
  H   H1152     1.0  0.86227  0.47751  0.98484  1.0000
  H   H1153     1.0  0.76159  0.07351  0.53872  1.0000
  H   H1154     1.0  0.77619  0.11375  0.63530  1.0000
  C   C653      1.0  0.78632  0.24541  0.55558  1.0000
  H   H1155     1.0  0.55069  0.21702  0.93366  1.0000
  H   H1156     1.0  0.79676  0.27998  0.59461  1.0000
  H   H1157     1.0  0.78794  0.05293  0.67817  1.0000
  H   H1158     1.0  0.90409  0.43733  0.92007  1.0000
  H   H1159     1.0  0.59124  0.03485  0.84117  1.0000
  C   C654      1.0  0.55963  0.17536  0.98379  1.0000
  S   S145      1.0  0.88211  0.48914  0.83583  1.0000
  H   H1160     1.0  0.91363  0.27030  0.53665  1.0000
  H   H1161     1.0  0.74724  0.10426  0.53623  1.0000
  N   N37       1.0  0.94647  0.47289  0.91745  1.0000
  H   H1162     1.0  0.98745  0.30620  0.71034  1.0000
  H   H1163     1.0  0.75324  0.25912  0.52875  1.0000
  H   H1164     1.0  0.96236  0.42670  0.71712  1.0000
  H   H1165     1.0  0.77855  0.08861  0.70190  1.0000
  C   C655      1.0  0.98970  0.47928  0.94403  1.0000
  H   H1166     1.0  0.82004  0.06903  0.64329  1.0000
  H   H1167     1.0  0.53889  0.04540  0.91093  1.0000
  H   H1168     1.0  0.87200  0.43366  0.51844  1.0000
  H   H1169     1.0  0.96216  0.32164  0.53113  1.0000
  H   H1170     1.0  0.80810  0.07057  0.57147  1.0000
  H   H1171     1.0  0.65576  0.01826  0.53424  1.0000
  H   H1172     1.0  0.91633  0.40710  0.96369  1.0000
  C   C656      1.0  0.86571  0.49742  0.98756  1.0000
  H   H1173     1.0  0.70707  0.00372  0.71445  1.0000
  H   H1174     1.0  0.97773  0.29701  0.55179  1.0000
  C   C657      1.0  0.99795  0.41561  0.74071  1.0000
  H   H1175     1.0  0.74647  0.21316  0.54001  1.0000
  C   C658      1.0  0.96926  0.45228  0.75501  1.0000
  H   H1176     1.0  0.98834  0.44813  0.70992  1.0000
  H   H1177     1.0  0.78292  0.00654  0.69173  1.0000
  H   H1178     1.0  0.98628  0.35790  0.70875  1.0000
  H   H1179     1.0  0.51016  0.00719  0.81452  1.0000
  H   H1180     1.0  0.65396  0.01240  0.80675  1.0000
  H   H1181     1.0  0.99503  0.41577  0.67609  1.0000
  H   H1182     1.0  0.69384  0.03868  0.54086  1.0000
  H   H1183     1.0  0.99032  0.35079  0.54165  1.0000
  C   C659      1.0  0.94942  0.28510  0.51804  1.0000
  H   H1184     1.0  0.62680  0.00122  0.66752  1.0000
  C   C660      1.0  0.99973  0.32372  0.62118  1.0000
  H   H1185     1.0  0.98291  0.49649  0.95579  1.0000
  C   C661      1.0  0.86267  0.41545  0.51352  1.0000
  C   C662      1.0  0.50931  0.21765  0.89260  1.0000
  H   H1186     1.0  0.86818  0.40136  0.53220  1.0000
  C   C663      1.0  0.50723  0.12263  0.99948  1.0000
  H   H1187     1.0  0.91526  0.49736  0.92948  1.0000
  H   H1188     1.0  0.78265  0.28523  0.51004  1.0000
  H   H1189     1.0  0.77672  0.49998  0.77045  1.0000
  C   C664      1.0  0.88487  0.74576  0.50341  1.0000
  H   H1190     1.0  0.52405  0.90608  0.29134  1.0000
  S   S146      1.0  0.54096  0.88448  0.23109  1.0000
  H   H1191     1.0  0.90097  0.57658  0.26524  1.0000
  H   H1192     1.0  0.67698  0.78032  0.28407  1.0000
  C   C665      1.0  0.96367  0.64367  0.28798  1.0000
  Fe  Fe73      1.0  0.69019  0.93205  0.35056  1.0000
  S   S147      1.0  0.65987  0.93941  0.38671  1.0000
  S   S148      1.0  0.70172  0.96578  0.31909  1.0000
  Fe  Fe74      1.0  0.69086  0.87540  0.36801  1.0000
  S   S149      1.0  0.65957  0.87979  0.40500  1.0000
  S   S150      1.0  0.70358  0.83425  0.36689  1.0000
  Fe  Fe75      1.0  0.64099  0.90506  0.36819  1.0000
  S   S151      1.0  0.59875  0.90903  0.35906  1.0000
  Fe  Fe76      1.0  0.68137  0.91374  0.41935  1.0000
  S   S152      1.0  0.69277  0.92748  0.46756  1.0000
  S   S153      1.0  0.67044  0.89853  0.33029  1.0000
  S   S154      1.0  0.71353  0.90840  0.38434  1.0000
  Fe  Fe77      1.0  0.85744  0.55889  0.17683  1.0000
  S   S155      1.0  0.87985  0.53245  0.20812  1.0000
  S   S156      1.0  0.83660  0.59489  0.19008  1.0000
  Fe  Fe78      1.0  0.87625  0.53429  0.11370  1.0000
  C   C666      1.0  0.55196  0.95823  0.22542  1.0000
  Fe  Fe79      1.0  0.91076  0.53877  0.17128  1.0000
  S   S157      1.0  0.94929  0.55101  0.18594  1.0000
  S   S158      1.0  0.84217  0.52795  0.14633  1.0000
  S   S159      1.0  0.88941  0.56678  0.14239  1.0000
  Fe  Fe80      1.0  0.84176  0.72087  0.40041  1.0000
  S   S160      1.0  0.85368  0.75837  0.37917  1.0000
  S   S161      1.0  0.82876  0.71517  0.45197  1.0000
  Fe  Fe81      1.0  0.84675  0.69402  0.33655  1.0000
  S   S162      1.0  0.85823  0.73003  0.31053  1.0000
  S   S163      1.0  0.84918  0.65319  0.32014  1.0000
  Fe  Fe82      1.0  0.88324  0.73662  0.35218  1.0000
  S   S164      1.0  0.92311  0.75161  0.34249  1.0000
  Fe  Fe83      1.0  0.82754  0.74913  0.33944  1.0000
  S   S165      1.0  0.80517  0.78185  0.31714  1.0000
  S   S166      1.0  0.87349  0.69991  0.37700  1.0000
  S   S167      1.0  0.81387  0.71243  0.36214  1.0000
  C   C667      1.0  0.84732  0.72553  0.48348  1.0000
  H   H1193     1.0  0.80882  0.76732  0.44924  1.0000
  H   H1194     1.0  0.75992  0.65617  0.07497  1.0000
  H   H1195     1.0  0.68997  0.84411  0.47642  1.0000
  H   H1196     1.0  0.87773  0.73984  0.45350  1.0000
  C   C668      1.0  0.94971  0.73283  0.35127  1.0000
  H   H1197     1.0  0.51782  0.82665  0.11173  1.0000
  C   C669      1.0  0.94754  0.71148  0.37135  1.0000
  C   C670      1.0  0.70080  0.99568  0.33667  1.0000
  H   H1198     1.0  0.92923  0.70605  0.38120  1.0000
  C   C671      1.0  0.87358  0.53252  0.02232  1.0000
  H   H1199     1.0  0.82625  0.77521  0.50073  1.0000
  H   H1200     1.0  0.93647  0.59966  0.30484  1.0000
  C   C672      1.0  0.97182  0.52788  0.17908  1.0000
  H   H1201     1.0  0.60341  0.95237  0.29942  1.0000
  H   H1202     1.0  0.75063  0.63368  0.04596  1.0000
  H   H1203     1.0  0.56991  0.98188  0.18898  1.0000
  H   H1204     1.0  0.95278  0.51215  0.13937  1.0000
  C   C673      1.0  0.84196  0.61149  0.22561  1.0000
  C   C674      1.0  0.85092  0.59925  0.25304  1.0000
  C   C675      1.0  0.85312  0.61243  0.28156  1.0000
  C   C676      1.0  0.84685  0.63813  0.28296  1.0000
  C   C677      1.0  0.83849  0.65059  0.25531  1.0000
  C   C678      1.0  0.83579  0.63724  0.22690  1.0000
  H   H1205     1.0  0.85524  0.57937  0.25259  1.0000
  H   H1206     1.0  0.85926  0.60251  0.30288  1.0000
  H   H1207     1.0  0.83347  0.67031  0.25604  1.0000
  H   H1208     1.0  0.82866  0.64688  0.20590  1.0000
  C   C679      1.0  0.73256  0.82063  0.35388  1.0000
  C   C680      1.0  0.73687  0.79498  0.36101  1.0000
  C   C681      1.0  0.75905  0.78293  0.35017  1.0000
  C   C682      1.0  0.77729  0.79644  0.33215  1.0000
  C   C683      1.0  0.77293  0.82210  0.32488  1.0000
  C   C684      1.0  0.75082  0.83423  0.33594  1.0000
  H   H1209     1.0  0.72292  0.78427  0.37493  1.0000
  H   H1210     1.0  0.76194  0.76309  0.35545  1.0000
  H   H1211     1.0  0.78679  0.83267  0.31062  1.0000
  H   H1212     1.0  0.74776  0.85394  0.33010  1.0000
  H   H1213     1.0  0.98165  0.61576  0.32047  1.0000
  C   C685      1.0  0.63841  0.95004  0.27331  1.0000
  H   H1214     1.0  0.82479  0.83250  0.43955  1.0000
  C   C686      1.0  0.61027  0.81652  0.21721  1.0000
  C   C687      1.0  0.68130  0.91527  0.50456  1.0000
  H   H1215     1.0  0.63066  0.95823  0.25092  1.0000
  H   H1216     1.0  0.53153  0.98635  0.33188  1.0000
  C   C688      1.0  0.79133  0.77768  0.45624  1.0000
  H   H1217     1.0  0.53697  0.97576  0.18320  1.0000
  H   H1218     1.0  0.66570  0.74738  0.34422  1.0000
  C   C689      1.0  0.87067  0.73737  0.47773  1.0000
  H   H1219     1.0  0.75270  0.88356  0.44594  1.0000
  C   C690      1.0  0.62318  0.95887  0.30222  1.0000
  H   H1220     1.0  0.93401  0.56946  0.25770  1.0000
  H   H1221     1.0  0.64888  0.76186  0.29136  1.0000
  C   C691      1.0  0.55703  0.89278  0.26618  1.0000
  C   C692      1.0  0.58324  0.88847  0.26817  1.0000
  C   C693      1.0  0.59639  0.89367  0.29621  1.0000
  C   C694      1.0  0.58338  0.90300  0.32272  1.0000
  C   C695      1.0  0.55728  0.90763  0.32057  1.0000
  C   C696      1.0  0.54420  0.90275  0.29241  1.0000
  H   H1222     1.0  0.59337  0.88104  0.24789  1.0000
  H   H1223     1.0  0.61649  0.89020  0.29744  1.0000
  H   H1224     1.0  0.54701  0.91476  0.34094  1.0000
  H   H1225     1.0  0.97249  0.66057  0.29836  1.0000
  H   H1226     1.0  0.59798  0.79957  0.22021  1.0000
  H   H1227     1.0  0.65863  0.95554  0.27508  1.0000
  H   H1228     1.0  0.97483  0.78309  0.41463  1.0000
  H   H1229     1.0  0.63103  0.94945  0.32375  1.0000
  C   C697      1.0  0.99539  0.72599  0.34700  1.0000
  H   H1230     1.0  0.55525  0.94044  0.21266  1.0000
  H   H1231     1.0  0.64513  0.99272  0.30544  1.0000
  H   H1232     1.0  0.78118  0.64925  0.04229  1.0000
  H   H1233     1.0  0.99987  0.68310  0.48190  1.0000
  C   C698      1.0  0.91814  0.58210  0.25102  1.0000
  H   H1234     1.0  0.69543  0.98085  0.38448  1.0000
  C   C699      1.0  0.68589  0.83579  0.50058  1.0000
  H   H1235     1.0  0.88010  0.60086  0.08877  1.0000
  C   C700      1.0  0.92519  0.60958  0.25617  1.0000
  C   C701      1.0  0.66364  0.77321  0.30291  1.0000
  H   H1236     1.0  0.68651  0.99051  0.46052  1.0000
  H   H1237     1.0  0.73938  0.96290  0.46542  1.0000
  C   C702      1.0  0.67832  0.75546  0.32504  1.0000
  H   H1238     1.0  0.63630  0.78529  0.33722  1.0000
  C   C703      1.0  0.76926  0.74101  0.43019  1.0000
  N   N38       1.0  0.79663  0.80574  0.45777  1.0000
  C   C704      1.0  0.97407  0.76403  0.42631  1.0000
  C   C705      1.0  0.73650  0.97899  0.44840  1.0000
  N   N39       1.0  0.93678  0.64045  0.30038  1.0000
  H   H1239     1.0  0.51725  0.88134  0.03022  1.0000
  C   C706      1.0  0.92065  0.66063  0.28511  1.0000
  C   C707      1.0  0.93680  0.64253  0.33617  1.0000
  C   C708      1.0  0.92616  0.61510  0.29223  1.0000
  C   C709      1.0  0.58376  0.98931  0.33566  1.0000
  H   H1240     1.0  0.87712  0.63053  0.06762  1.0000
  C   C710      1.0  0.91052  0.64196  0.35330  1.0000
  C   C711      1.0  0.92615  0.68808  0.29477  1.0000
  C   C712      1.0  0.91386  0.70691  0.27169  1.0000
  C   C713      1.0  0.54169  0.98055  0.30986  1.0000
  H   H1241     1.0  0.84629  0.80055  0.48611  1.0000
  C   C714      1.0  0.91307  0.64397  0.38936  1.0000
  H   H1242     1.0  0.78582  0.76961  0.48022  1.0000
  H   H1243     1.0  0.96736  0.68126  0.39535  1.0000
  H   H1244     1.0  0.92280  0.66019  0.25870  1.0000
  H   H1245     1.0  0.90017  0.65685  0.28998  1.0000
  H   H1246     1.0  0.94659  0.66012  0.34292  1.0000
  H   H1247     1.0  0.94788  0.62693  0.34714  1.0000
  C   C715      1.0  0.94354  0.51302  0.04533  1.0000
  H   H1248     1.0  0.90622  0.61329  0.30090  1.0000
  C   C716      1.0  0.98833  0.52529  0.05980  1.0000
  H   H1249     1.0  0.75502  0.98406  0.43697  1.0000
  H   H1250     1.0  0.93897  0.53262  0.03746  1.0000
  C   C717      1.0  0.96917  0.69756  0.37941  1.0000
  H   H1251     1.0  0.90019  0.62420  0.34923  1.0000
  H   H1252     1.0  0.89874  0.65787  0.34490  1.0000
  H   H1253     1.0  0.91834  0.69140  0.31902  1.0000
  H   H1254     1.0  0.94666  0.69239  0.29478  1.0000
  H   H1255     1.0  0.91595  0.72631  0.28053  1.0000
  H   H1256     1.0  0.92310  0.70619  0.24775  1.0000
  H   H1257     1.0  0.89339  0.70266  0.26950  1.0000
  H   H1258     1.0  0.76828  0.73091  0.45373  1.0000
  H   H1259     1.0  0.65258  0.89123  0.48596  1.0000
  H   H1260     1.0  0.68642  0.73977  0.31120  1.0000
  H   H1261     1.0  0.98601  0.73488  0.48394  1.0000
  H   H1262     1.0  0.57661  0.98737  0.28420  1.0000
  H   H1263     1.0  0.50356  0.89330  0.08489  1.0000
  H   H1264     1.0  0.92253  0.66187  0.39525  1.0000
  H   H1265     1.0  0.89393  0.64371  0.40085  1.0000
  H   H1266     1.0  0.92407  0.62787  0.39924  1.0000
  H   H1267     1.0  0.65797  0.96776  0.49967  1.0000
  H   H1268     1.0  0.60001  0.83091  0.20274  1.0000
  N   N40       1.0  0.63962  0.81644  0.30243  1.0000
  C   C718      1.0  0.62995  0.80737  0.27109  1.0000
  C   C719      1.0  0.65101  0.79482  0.32168  1.0000
  C   C720      1.0  0.61716  0.82624  0.32114  1.0000
  C   C721      1.0  0.65853  0.83761  0.29773  1.0000
  C   C722      1.0  0.68271  0.83167  0.27798  1.0000
  C   C723      1.0  0.61636  0.82721  0.24961  1.0000
  C   C724      1.0  0.62278  0.83586  0.35489  1.0000
  H   H1269     1.0  0.98272  0.72034  0.44664  1.0000
  C   C725      1.0  0.69951  0.85502  0.27335  1.0000
  H   H1270     1.0  0.98192  0.54501  0.05491  1.0000
  C   C726      1.0  0.59829  0.83998  0.37400  1.0000
  H   H1271     1.0  0.61638  0.79150  0.27566  1.0000
  H   H1272     1.0  0.64549  0.79950  0.25632  1.0000
  H   H1273     1.0  0.66519  0.80205  0.33852  1.0000
  H   H1274     1.0  0.91046  0.62143  0.24466  1.0000
  H   H1275     1.0  0.60218  0.81143  0.32347  1.0000
  H   H1276     1.0  0.60835  0.84251  0.30846  1.0000
  H   H1277     1.0  0.64943  0.85469  0.28725  1.0000
  H   H1278     1.0  0.66536  0.84360  0.32118  1.0000
  H   H1279     1.0  0.67812  0.82498  0.25401  1.0000
  H   H1280     1.0  0.69417  0.81732  0.29083  1.0000
  H   H1281     1.0  0.59805  0.83288  0.26063  1.0000
  H   H1282     1.0  0.62825  0.84422  0.24516  1.0000
  H   H1283     1.0  0.63272  0.85428  0.35273  1.0000
  H   H1284     1.0  0.63471  0.82263  0.36885  1.0000
  C   C727      1.0  0.80592  0.81095  0.49078  1.0000
  H   H1285     1.0  0.68922  0.87043  0.26075  1.0000
  H   H1286     1.0  0.70586  0.86168  0.29676  1.0000
  H   H1287     1.0  0.71661  0.85025  0.25895  1.0000
  H   H1288     1.0  0.97579  0.50983  0.01403  1.0000
  H   H1289     1.0  0.92855  0.78243  0.40863  1.0000
  C   C728      1.0  0.55119  0.98036  0.20132  1.0000
  H   H1290     1.0  0.58550  0.85295  0.36078  1.0000
  H   H1291     1.0  0.58838  0.82178  0.37895  1.0000
  C   C729      1.0  0.62459  0.98792  0.30472  1.0000
  H   H1292     1.0  0.61802  0.99650  0.28189  1.0000
  C   C730      1.0  0.99548  0.73278  0.46020  1.0000
  S   S168      1.0  0.87824  0.54577  0.06035  1.0000
  H   H1293     1.0  0.50481  0.85637  0.12359  1.0000
  N   N41       1.0  0.80374  0.57830  0.07531  1.0000
  C   C731      1.0  0.82725  0.58951  0.08941  1.0000
  C   C732      1.0  0.78830  0.56368  0.10049  1.0000
  C   C733      1.0  0.81247  0.55981  0.05066  1.0000
  C   C734      1.0  0.78777  0.59806  0.05895  1.0000
  C   C735      1.0  0.77865  0.61999  0.07979  1.0000
  C   C736      1.0  0.84366  0.60679  0.06666  1.0000
  C   C737      1.0  0.79134  0.54517  0.03372  1.0000
  C   C738      1.0  0.78818  0.57353  0.13495  1.0000
  C   C739      1.0  0.76889  0.55939  0.15641  1.0000
  H   H1294     1.0  0.92235  0.74904  0.41395  1.0000
  C   C740      1.0  0.86695  0.61660  0.08344  1.0000
  C   C741      1.0  0.76689  0.64099  0.05937  1.0000
  H   H1295     1.0  0.83956  0.57418  0.09899  1.0000
  H   H1296     1.0  0.82263  0.60111  0.11029  1.0000
  H   H1297     1.0  0.76826  0.56199  0.09307  1.0000
  H   H1298     1.0  0.79529  0.54392  0.10298  1.0000
  H   H1299     1.0  0.82517  0.54554  0.06190  1.0000
  H   H1300     1.0  0.94353  0.61339  0.24367  1.0000
  H   H1301     1.0  0.79793  0.60599  0.03741  1.0000
  H   H1302     1.0  0.77026  0.58948  0.04971  1.0000
  H   H1303     1.0  0.79430  0.62844  0.09309  1.0000
  H   H1304     1.0  0.76379  0.61309  0.09697  1.0000
  H   H1305     1.0  0.85063  0.59672  0.04549  1.0000
  H   H1306     1.0  0.83270  0.62346  0.05847  1.0000
  C   C742      1.0  0.86927  0.50679  0.01837  1.0000
  H   H1307     1.0  0.77830  0.53545  0.05110  1.0000
  H   H1308     1.0  0.80702  0.57033  0.14538  1.0000
  H   H1309     1.0  0.78402  0.59389  0.13597  1.0000
  H   H1310     1.0  0.77301  0.53887  0.15711  1.0000
  H   H1311     1.0  0.77004  0.56636  0.18107  1.0000
  H   H1312     1.0  0.74939  0.56259  0.14781  1.0000
  H   H1313     1.0  0.97644  0.60466  0.28103  1.0000
  H   H1314     1.0  0.99510  0.53963  0.21743  1.0000
  S   S169      1.0  0.90039  0.50643  0.14070  1.0000
  H   H1315     1.0  0.83382  0.80072  0.43622  1.0000
  N   N42       1.0  0.99842  0.75827  0.44331  1.0000
  H   H1316     1.0  0.53370  0.95642  0.23893  1.0000
  H   H1317     1.0  0.64496  0.99286  0.35952  1.0000
  H   H1318     1.0  0.96414  0.64757  0.26177  1.0000
  H   H1319     1.0  0.94937  0.77976  0.46366  1.0000
  H   H1320     1.0  0.90929  0.77100  0.44168  1.0000
  C   C743      1.0  0.77261  0.82072  0.45303  1.0000
  H   H1321     1.0  0.63743  0.92920  0.27229  1.0000
  H   H1322     1.0  0.69417  0.76571  0.33592  1.0000
  C   C744      1.0  0.81726  0.81354  0.43406  1.0000
  C   C745      1.0  0.81037  0.81367  0.39841  1.0000
  C   C746      1.0  0.77510  0.84980  0.45451  1.0000
  H   H1323     1.0  0.58340  0.96872  0.34184  1.0000
  C   C747      1.0  0.76983  0.76947  0.43414  1.0000
  H   H1324     1.0  0.75252  0.73573  0.41623  1.0000
  C   C748      1.0  0.83155  0.82576  0.37778  1.0000
  C   C749      1.0  0.75069  0.86282  0.44411  1.0000
  H   H1325     1.0  0.78645  0.73496  0.41694  1.0000
  H   H1326     1.0  0.75802  0.81458  0.47119  1.0000
  H   H1327     1.0  0.76403  0.81687  0.42974  1.0000
  H   H1328     1.0  0.82389  0.56928  0.03131  1.0000
  H   H1329     1.0  0.62792  0.81149  0.20408  1.0000
  H   H1330     1.0  0.77884  0.85554  0.47921  1.0000
  C   C750      1.0  0.94944  0.76377  0.44721  1.0000
  H   H1331     1.0  0.94718  0.74600  0.46154  1.0000
  H   H1332     1.0  0.97148  0.75050  0.40686  1.0000
  H   H1333     1.0  0.79294  0.82449  0.39347  1.0000
  H   H1334     1.0  0.80793  0.79406  0.39058  1.0000
  H   H1335     1.0  0.91402  0.57960  0.22546  1.0000
  H   H1336     1.0  0.79056  0.85706  0.43851  1.0000
  H   H1337     1.0  0.66693  0.84234  0.50855  1.0000
  H   H1338     1.0  0.62058  0.97067  0.36807  1.0000
  H   H1339     1.0  0.75115  0.77506  0.44426  1.0000
  H   H1340     1.0  0.77215  0.77835  0.41028  1.0000
  H   H1341     1.0  0.60272  0.84857  0.39707  1.0000
  C   C751      1.0  0.97171  0.50755  0.03996  1.0000
  C   C752      1.0  0.92608  0.76674  0.42653  1.0000
  H   H1342     1.0  0.82667  0.82491  0.35223  1.0000
  H   H1343     1.0  0.83406  0.84586  0.38367  1.0000
  H   H1344     1.0  0.84969  0.81562  0.38122  1.0000
  H   H1345     1.0  0.97553  0.75665  0.32367  1.0000
  H   H1346     1.0  0.74657  0.85863  0.41891  1.0000
  H   H1347     1.0  0.73443  0.85654  0.45949  1.0000
  H   H1348     1.0  0.56762  0.96054  0.24228  1.0000
  H   H1349     1.0  0.52962  0.98524  0.28916  1.0000
  H   H1350     1.0  0.70128  0.97787  0.49458  1.0000
  H   H1351     1.0  0.54445  0.95983  0.31091  1.0000
  H   H1352     1.0  0.93929  0.50897  0.23446  1.0000
  H   H1353     1.0  0.86151  0.62588  0.10598  1.0000
  C   C753      1.0  0.99315  0.70477  0.36737  1.0000
  C   C754      1.0  0.99288  0.52640  0.19856  1.0000
  C   C755      1.0  0.97371  0.74007  0.33915  1.0000
  H   H1354     1.0  0.90296  0.75485  0.49892  1.0000
  H   H1355     1.0  0.62478  0.97411  0.42698  1.0000
  C   C756      1.0  0.96863  0.51051  0.15503  1.0000
  H   H1356     1.0  0.72351  0.97299  0.42955  1.0000
  C   C757      1.0  0.98185  0.62131  0.29482  1.0000
  H   H1357     1.0  0.98677  0.77929  0.48442  1.0000
  H   H1358     1.0  0.98308  0.52083  0.08514  1.0000
  C   C758      1.0  0.62407  0.99104  0.36282  1.0000
  H   H1359     1.0  0.81107  0.83116  0.49275  1.0000
  C   C759      1.0  0.56720  0.99409  0.30611  1.0000
  C   C760      1.0  0.69911  0.99560  0.48037  1.0000
  Fe  Fe84      1.0  0.86739  0.50192  0.17556  1.0000
  H   H1360     1.0  0.57361  0.99818  0.35585  1.0000
  C   C761      1.0  0.63014  0.99418  0.42250  1.0000
  C   C762      1.0  0.66134  0.89793  0.50723  1.0000
  N   N43       1.0  0.61064  0.99895  0.33281  1.0000
  H   H1361     1.0  0.65097  0.99552  0.41873  1.0000
  C   C763      1.0  0.82956  0.79580  0.50154  1.0000
  H   H1362     1.0  0.93811  0.51043  0.07095  1.0000
  C   C764      1.0  0.69706  0.99767  0.36952  1.0000
  H   H1363     1.0  0.68553  0.81495  0.49896  1.0000
  H   H1364     1.0  0.78018  0.55813  0.01833  1.0000
  C   C765      1.0  0.00276  0.77872  0.46685  1.0000
  H   H1365     1.0  0.79049  0.80718  0.50882  1.0000
  H   H1366     1.0  0.81342  0.51104  0.02653  1.0000
  C   C766      1.0  0.80271  0.52517  0.01222  1.0000
  N   N44       1.0  0.57811  0.99361  0.80265  1.0000
  H   H1367     1.0  0.63222  0.98351  0.56242  1.0000
  S   S170      1.0  0.52354  0.91242  0.80435  1.0000
  Fe  Fe85      1.0  0.69103  0.95234  0.67179  1.0000
  S   S171      1.0  0.65203  0.93532  0.67292  1.0000
  C   C767      1.0  0.65151  0.99674  0.79008  1.0000
  Fe  Fe86      1.0  0.71655  0.90100  0.68978  1.0000
  S   S172      1.0  0.67890  0.88092  0.69245  1.0000
  S   S173      1.0  0.75685  0.88456  0.69176  1.0000
  Fe  Fe87      1.0  0.67026  0.90321  0.64730  1.0000
  S   S174      1.0  0.65355  0.88609  0.60330  1.0000
  Fe  Fe88      1.0  0.66392  0.91514  0.71803  1.0000
  S   S175      1.0  0.64149  0.91603  0.76566  1.0000
  S   S176      1.0  0.70837  0.92136  0.64364  1.0000
  S   S177      1.0  0.70252  0.93408  0.71825  1.0000
  S   S178      1.0  0.89449  0.54764  0.85438  1.0000
  H   H1368     1.0  0.93263  0.67542  0.53623  1.0000
  Fe  Fe89      1.0  0.86508  0.55884  0.81829  1.0000
  S   S179      1.0  0.85298  0.59957  0.80901  1.0000
  Fe  Fe90      1.0  0.84153  0.75768  0.67008  1.0000
  S   S180      1.0  0.84699  0.72489  0.63719  1.0000
  S   S181      1.0  0.80139  0.77278  0.67984  1.0000
  Fe  Fe91      1.0  0.89837  0.75982  0.68372  1.0000
  S   S182      1.0  0.90774  0.72821  0.65178  1.0000
  S   S183      1.0  0.92700  0.78129  0.71201  1.0000
  Fe  Fe92      1.0  0.88071  0.74661  0.61775  1.0000
  S   S184      1.0  0.89414  0.75314  0.56647  1.0000
  Fe  Fe93      1.0  0.87353  0.70884  0.67414  1.0000
  S   S185      1.0  0.87997  0.66685  0.68460  1.0000
  S   S186      1.0  0.87378  0.78018  0.64822  1.0000
  S   S187      1.0  0.86554  0.73968  0.70853  1.0000
  C   C768      1.0  0.95964  0.77436  0.71610  1.0000
  C   C769      1.0  0.97307  0.75795  0.69626  1.0000
  H   H1369     1.0  0.74785  0.86038  0.55665  1.0000
  H   H1370     1.0  0.82877  0.61507  0.72718  1.0000
  C   C770      1.0  0.97258  0.78654  0.74004  1.0000
  H   H1371     1.0  0.96319  0.74861  0.67766  1.0000
  H   H1372     1.0  0.96252  0.79932  0.75539  1.0000
  C   C771      1.0  0.96372  0.54631  0.84021  1.0000
  C   C772      1.0  0.98120  0.55647  0.86094  1.0000
  H   H1373     1.0  0.94576  0.55548  0.83674  1.0000
  C   C773      1.0  0.86321  0.61900  0.77602  1.0000
  C   C774      1.0  0.85439  0.64396  0.77344  1.0000
  C   C775      1.0  0.86007  0.65922  0.74613  1.0000
  C   C776      1.0  0.87445  0.64956  0.72095  1.0000
  C   C777      1.0  0.88385  0.62484  0.72394  1.0000
  C   C778      1.0  0.87854  0.60974  0.75146  1.0000
  H   H1374     1.0  0.84259  0.65133  0.79233  1.0000
  H   H1375     1.0  0.85268  0.67817  0.74414  1.0000
  H   H1376     1.0  0.89508  0.61722  0.70468  1.0000
  H   H1377     1.0  0.88578  0.59075  0.75330  1.0000
  C   C779      1.0  0.85242  0.73050  0.54063  1.0000
  C   C780      1.0  0.87580  0.74231  0.53492  1.0000
  H   H1378     1.0  0.77585  0.55692  0.78262  1.0000
  H   H1379     1.0  0.84526  0.72776  0.56479  1.0000
  H   H1380     1.0  0.77721  0.58851  0.73771  1.0000
  C   C781      1.0  0.86639  0.51357  0.96030  1.0000
  H   H1381     1.0  0.77862  0.89122  0.57831  1.0000
  H   H1382     1.0  0.87053  0.55209  0.94383  1.0000
  C   C782      1.0  0.76855  0.85333  0.68697  1.0000
  C   C783      1.0  0.75294  0.83207  0.69041  1.0000
  C   C784      1.0  0.76325  0.80766  0.68771  1.0000
  C   C785      1.0  0.78927  0.80410  0.68138  1.0000
  C   C786      1.0  0.80481  0.82538  0.67734  1.0000
  C   C787      1.0  0.79454  0.84977  0.68039  1.0000
  H   H1383     1.0  0.73304  0.83444  0.69599  1.0000
  H   H1384     1.0  0.75101  0.79138  0.69100  1.0000
  H   H1385     1.0  0.82477  0.82301  0.67212  1.0000
  H   H1386     1.0  0.80683  0.86605  0.67766  1.0000
  H   H1387     1.0  0.77297  0.90310  0.61766  1.0000
  S   S188      1.0  0.83658  0.53000  0.83722  1.0000
  C   C788      1.0  0.70623  0.84392  0.52362  1.0000
  C   C789      1.0  0.80842  0.61296  0.72223  1.0000
  C   C790      1.0  0.74867  0.87192  0.60600  1.0000
  C   C791      1.0  0.55655  0.91100  0.79469  1.0000
  C   C792      1.0  0.56415  0.90987  0.76240  1.0000
  C   C793      1.0  0.58997  0.91093  0.75303  1.0000
  C   C794      1.0  0.60867  0.91301  0.77596  1.0000
  C   C795      1.0  0.60110  0.91355  0.80834  1.0000
  C   C796      1.0  0.57526  0.91240  0.81770  1.0000
  H   H1388     1.0  0.54992  0.90840  0.74445  1.0000
  H   H1389     1.0  0.59542  0.91030  0.72807  1.0000
  H   H1390     1.0  0.61537  0.91491  0.82635  1.0000
  H   H1391     1.0  0.56983  0.91298  0.84266  1.0000
  C   C797      1.0  0.68341  0.91570  0.56242  1.0000
  C   C798      1.0  0.66375  0.89811  0.56539  1.0000
  C   C799      1.0  0.98197  0.77400  0.59774  1.0000
  H   H1392     1.0  0.69181  0.92308  0.58329  1.0000
  C   C800      1.0  0.55006  0.97968  0.88860  1.0000
  H   H1393     1.0  0.82109  0.79581  0.55267  1.0000
  C   C801      1.0  0.56293  0.98180  0.83009  1.0000
  H   H1394     1.0  0.96032  0.73114  0.62223  1.0000
  H   H1395     1.0  0.60885  0.96842  0.81484  1.0000
  H   H1396     1.0  0.77439  0.63520  0.73069  1.0000
  H   H1397     1.0  0.53446  0.99948  0.76632  1.0000
  H   H1398     1.0  0.87634  0.56176  0.67153  1.0000
  H   H1399     1.0  0.72054  0.87654  0.57096  1.0000
  H   H1400     1.0  0.54243  0.98229  0.82542  1.0000
  C   C802      1.0  0.79487  0.63566  0.73614  1.0000
  H   H1401     1.0  0.93781  0.70816  0.52415  1.0000
  H   H1402     1.0  0.50811  0.89216  0.66777  1.0000
  H   H1403     1.0  0.73613  0.99786  0.59103  1.0000
  H   H1404     1.0  0.99227  0.73238  0.63353  1.0000
  H   H1405     1.0  0.79722  0.63591  0.76238  1.0000
  Fe  Fe94      1.0  0.90705  0.52046  0.81705  1.0000
  H   H1406     1.0  0.88639  0.55352  0.71141  1.0000
  H   H1407     1.0  0.79095  0.51499  0.80378  1.0000
  H   H1408     1.0  0.85393  0.79163  0.54236  1.0000
  C   C803      1.0  0.73432  0.86140  0.57725  1.0000
  H   H1409     1.0  0.50829  0.92575  0.67451  1.0000
  H   H1410     1.0  0.56755  0.96142  0.83278  1.0000
  H   H1411     1.0  0.68323  0.84769  0.56624  1.0000
  H   H1412     1.0  0.99348  0.64931  0.80880  1.0000
  H   H1413     1.0  0.72665  0.79652  0.57785  1.0000
  C   C804      1.0  0.65268  0.88929  0.53763  1.0000
  H   H1414     1.0  0.75718  0.51613  0.79902  1.0000
  H   H1415     1.0  0.51848  0.97197  0.72459  1.0000
  Fe  Fe95      1.0  0.85414  0.50415  0.80108  1.0000
  C   C805      1.0  0.69931  0.83557  0.55859  1.0000
  H   H1416     1.0  0.83776  0.53564  0.67968  1.0000
  H   H1417     1.0  0.70784  0.86478  0.52160  1.0000
  H   H1418     1.0  0.74527  0.81531  0.55139  1.0000
  C   C806      1.0  0.56579  0.99389  0.86293  1.0000
  C   C807      1.0  0.96932  0.52404  0.82466  1.0000
  H   H1419     1.0  0.90871  0.69861  0.54402  1.0000
  C   C808      1.0  0.77833  0.54102  0.76620  1.0000
  C   C809      1.0  0.97272  0.68410  0.63246  1.0000
  H   H1420     1.0  0.98522  0.58072  0.76188  1.0000
  C   C810      1.0  0.96948  0.69410  0.57536  1.0000
  C   C811      1.0  0.94082  0.70042  0.57528  1.0000
  H   H1421     1.0  0.97643  0.57312  0.87398  1.0000
  H   H1422     1.0  0.80388  0.58863  0.76309  1.0000
  H   H1423     1.0  0.79597  0.53637  0.68913  1.0000
  H   H1424     1.0  0.95431  0.67134  0.69341  1.0000
  H   H1425     1.0  0.96660  0.52378  0.91592  1.0000
  H   H1426     1.0  0.97863  0.70355  0.55412  1.0000
  H   H1427     1.0  0.75098  0.91038  0.58648  1.0000
  C   C812      1.0  0.97490  0.66783  0.68981  1.0000
  C   C813      1.0  0.78299  0.55974  0.63631  1.0000
  H   H1428     1.0  0.95255  0.68895  0.63731  1.0000
  H   H1429     1.0  0.97241  0.66392  0.62596  1.0000
  C   C814      1.0  0.65791  0.97893  0.52169  1.0000
  C   C815      1.0  0.83644  0.80187  0.53570  1.0000
  H   H1430     1.0  0.93751  0.54482  0.95561  1.0000
  H   H1431     1.0  0.97080  0.67361  0.57087  1.0000
  H   H1432     1.0  0.93735  0.72048  0.58034  1.0000
  H   H1433     1.0  0.93028  0.68867  0.59339  1.0000
  H   H1434     1.0  0.98437  0.67030  0.71290  1.0000
  Fe  Fe96      1.0  0.86717  0.51719  0.87093  1.0000
  C   C816      1.0  0.79827  0.58786  0.73759  1.0000
  C   C817      1.0  0.94578  0.52174  0.91437  1.0000
  H   H1435     1.0  0.62307  0.97954  0.76242  1.0000
  C   C818      1.0  0.51216  0.90686  0.68533  1.0000
  H   H1436     1.0  0.00199  0.55227  0.77113  1.0000
  H   H1437     1.0  0.91330  0.54500  0.92562  1.0000
  C   C819      1.0  0.99254  0.62117  0.84584  1.0000
  N   N45       1.0  0.98334  0.70032  0.60524  1.0000
  C   C820      1.0  0.87533  0.54708  0.69092  1.0000
  H   H1438     1.0  0.79083  0.78470  0.60814  1.0000
  H   H1439     1.0  0.81564  0.53398  0.99387  1.0000
  H   H1440     1.0  0.84602  0.57049  0.73669  1.0000
  C   C821      1.0  0.77571  0.51654  0.78605  1.0000
  C   C822      1.0  0.70859  0.83513  0.61535  1.0000
  H   H1441     1.0  0.94050  0.52218  0.88903  1.0000
  H   H1442     1.0  0.77558  0.82571  0.59012  1.0000
  H   H1443     1.0  0.55597  0.95962  0.89054  1.0000
  C   C823      1.0  0.76101  0.81152  0.59758  1.0000
  C   C824      1.0  0.69242  0.81136  0.62372  1.0000
  H   H1444     1.0  0.63736  0.87574  0.53966  1.0000
  C   C825      1.0  0.69238  0.92391  0.53224  1.0000
  N   N46       1.0  0.72049  0.83656  0.58232  1.0000
  C   C826      1.0  0.77307  0.78554  0.59440  1.0000
  C   C827      1.0  0.68042  0.81295  0.65704  1.0000
  H   H1445     1.0  0.98677  0.78781  0.57819  1.0000
  H   H1446     1.0  0.69633  0.85196  0.61890  1.0000
  H   H1447     1.0  0.72303  0.83613  0.63405  1.0000
  H   H1448     1.0  0.65749  0.97873  0.80177  1.0000
  C   C828      1.0  0.93396  0.54479  0.92961  1.0000
  C   C829      1.0  0.80459  0.54287  0.74886  1.0000
  C   C830      1.0  0.73764  0.81443  0.57623  1.0000
  H   H1449     1.0  0.70782  0.93732  0.53039  1.0000
  C   C831      1.0  0.60583  0.98874  0.80846  1.0000
  H   H1450     1.0  0.75607  0.81371  0.62303  1.0000
  H   H1451     1.0  0.98231  0.60828  0.83020  1.0000
  H   H1452     1.0  0.67670  0.80926  0.60688  1.0000
  H   H1453     1.0  0.70431  0.79417  0.62344  1.0000
  H   H1454     1.0  0.80320  0.65330  0.72553  1.0000
  H   H1455     1.0  0.52964  0.98059  0.88288  1.0000
  H   H1456     1.0  0.73499  0.87720  0.62502  1.0000
  H   H1457     1.0  0.76191  0.85823  0.61669  1.0000
  H   H1458     1.0  0.57715  0.96005  0.77460  1.0000
  H   H1459     1.0  0.54687  0.95332  0.72616  1.0000
  H   H1460     1.0  0.69136  0.81617  0.55785  1.0000
  H   H1461     1.0  0.77770  0.78170  0.56908  1.0000
  S   S189      1.0  0.88005  0.53400  0.78004  1.0000
  H   H1462     1.0  0.76010  0.77064  0.60427  1.0000
  H   H1463     1.0  0.66770  0.82955  0.65832  1.0000
  H   H1464     1.0  0.66901  0.79573  0.66257  1.0000
  H   H1465     1.0  0.69522  0.81443  0.67531  1.0000
  H   H1466     1.0  0.81895  0.54505  0.76775  1.0000
  C   C832      1.0  0.62402  0.99493  0.77982  1.0000
  H   H1467     1.0  0.96179  0.77664  0.60491  1.0000
  N   N47       1.0  0.80753  0.56355  0.72348  1.0000
  C   C833      1.0  0.83537  0.56565  0.71504  1.0000
  C   C834      1.0  0.79189  0.55621  0.69544  1.0000
  C   C835      1.0  0.79438  0.57288  0.66467  1.0000
  C   C836      1.0  0.84782  0.54184  0.70103  1.0000
  H   H1468     1.0  0.84002  0.82235  0.53796  1.0000
  C   C837      1.0  0.57116  0.98009  0.77280  1.0000
  S   S190      1.0  0.69516  0.99139  0.64854  1.0000
  H   H1469     1.0  0.83931  0.58141  0.69776  1.0000
  H   H1470     1.0  0.80840  0.52415  0.73853  1.0000
  H   H1471     1.0  0.64956  0.99374  0.69761  1.0000
  H   H1472     1.0  0.77142  0.55620  0.70194  1.0000
  H   H1473     1.0  0.81429  0.57746  0.65814  1.0000
  H   H1474     1.0  0.78355  0.59054  0.66770  1.0000
  H   H1475     1.0  0.96156  0.61917  0.88056  1.0000
  H   H1476     1.0  0.76274  0.55505  0.64119  1.0000
  H   H1477     1.0  0.98360  0.70549  0.67412  1.0000
  H   H1478     1.0  0.80655  0.61404  0.69613  1.0000
  H   H1479     1.0  0.61650  0.99610  0.70853  1.0000
  H   H1480     1.0  0.69491  0.99771  0.56625  1.0000
  H   H1481     1.0  0.94222  0.56221  0.91837  1.0000
  H   H1482     1.0  0.53178  0.96698  0.77975  1.0000
  H   H1483     1.0  0.72446  0.83592  0.51538  1.0000
  C   C838      1.0  0.54272  0.98042  0.76403  1.0000
  N   N48       1.0  0.85194  0.80443  0.77093  1.0000
  C   C839      1.0  0.86981  0.81041  0.74317  1.0000
  C   C840      1.0  0.85688  0.77820  0.78463  1.0000
  C   C841      1.0  0.82536  0.80469  0.75818  1.0000
  C   C842      1.0  0.85334  0.82381  0.79644  1.0000
  C   C843      1.0  0.87976  0.82857  0.81038  1.0000
  C   C844      1.0  0.86747  0.83709  0.72739  1.0000
  C   C845      1.0  0.80393  0.79687  0.78244  1.0000
  C   C846      1.0  0.88468  0.76875  0.78451  1.0000
  C   C847      1.0  0.88713  0.74393  0.80352  1.0000
  C   C848      1.0  0.87939  0.85156  0.83150  1.0000
  C   C849      1.0  0.88753  0.84124  0.70100  1.0000
  C   C850      1.0  0.77829  0.79606  0.76635  1.0000
  H   H1484     1.0  0.86737  0.79633  0.72424  1.0000
  H   H1485     1.0  0.88984  0.80859  0.75019  1.0000
  H   H1486     1.0  0.84931  0.77639  0.80954  1.0000
  H   H1487     1.0  0.84642  0.76384  0.77106  1.0000
  H   H1488     1.0  0.82418  0.79200  0.73751  1.0000
  H   H1489     1.0  0.82022  0.82376  0.74886  1.0000
  H   H1490     1.0  0.84553  0.84211  0.78760  1.0000
  H   H1491     1.0  0.84096  0.81824  0.81720  1.0000
  H   H1492     1.0  0.89445  0.83202  0.79155  1.0000
  H   H1493     1.0  0.88531  0.81219  0.82564  1.0000
  H   H1494     1.0  0.84876  0.83979  0.71642  1.0000
  H   H1495     1.0  0.87024  0.85195  0.74503  1.0000
  H   H1496     1.0  0.80231  0.81065  0.80175  1.0000
  H   H1497     1.0  0.80726  0.77792  0.79330  1.0000
  H   H1498     1.0  0.89101  0.76512  0.75975  1.0000
  H   H1499     1.0  0.89796  0.78249  0.79431  1.0000
  H   H1500     1.0  0.88190  0.74650  0.82898  1.0000
  H   H1501     1.0  0.87482  0.72922  0.79352  1.0000
  H   H1502     1.0  0.90704  0.73732  0.80206  1.0000
  H   H1503     1.0  0.86530  0.84897  0.85135  1.0000
  H   H1504     1.0  0.89837  0.85419  0.84187  1.0000
  H   H1505     1.0  0.87470  0.86884  0.81729  1.0000
  H   H1506     1.0  0.90686  0.83947  0.71076  1.0000
  H   H1507     1.0  0.88528  0.82725  0.68211  1.0000
  H   H1508     1.0  0.88550  0.86039  0.69006  1.0000
  H   H1509     1.0  0.77835  0.78158  0.74774  1.0000
  H   H1510     1.0  0.76323  0.79109  0.78427  1.0000
  H   H1511     1.0  0.77375  0.81474  0.75533  1.0000
  H   H1512     1.0  0.53258  0.90588  0.69102  1.0000
  C   C851      1.0  0.87045  0.53931  0.96436  1.0000
  C   C852      1.0  0.97995  0.72760  0.61339  1.0000
  C   C853      1.0  0.92945  0.69528  0.54287  1.0000
  C   C854      1.0  0.97246  0.63380  0.86666  1.0000
  H   H1513     1.0  0.78422  0.57243  0.61482  1.0000
  H   H1514     1.0  0.98147  0.64654  0.88368  1.0000
  H   H1515     1.0  0.79355  0.54220  0.63115  1.0000
  S   S191      1.0  0.94646  0.50941  0.80212  1.0000
  H   H1516     1.0  0.87739  0.56860  0.99780  1.0000
  C   C855      1.0  0.98616  0.68635  0.66480  1.0000
  C   C856      1.0  0.63285  0.97364  0.53942  1.0000
  C   C857      1.0  0.83823  0.72214  0.51497  1.0000
  H   H1517     1.0  0.58166  0.98836  0.75179  1.0000
  C   C858      1.0  0.76372  0.89561  0.59632  1.0000
  H   H1518     1.0  0.61665  0.97973  0.52466  1.0000
  C   C859      1.0  0.99295  0.51268  0.82836  1.0000
  H   H1519     1.0  0.76256  0.54150  0.74925  1.0000
  H   H1520     1.0  0.58577  0.99374  0.87049  1.0000
  C   C860      1.0  0.98630  0.74723  0.58632  1.0000
  H   H1521     1.0  0.77927  0.98520  0.65945  1.0000
  C   C861      1.0  0.99939  0.75407  0.70042  1.0000
  H   H1522     1.0  0.97416  0.74468  0.56540  1.0000
  H   H1523     1.0  0.95903  0.64473  0.85167  1.0000
  C   C862      1.0  0.99846  0.78239  0.74448  1.0000
  H   H1524     1.0  0.55270  0.98842  0.91203  1.0000
  H   H1525     1.0  0.97773  0.64810  0.68237  1.0000
  C   C863      1.0  0.53899  0.97242  0.72973  1.0000
  H   H1526     1.0  0.67321  0.97188  0.53704  1.0000
  C   C864      1.0  0.87418  0.54865  0.99510  1.0000
  H   H1527     1.0  0.84785  0.52608  0.71897  1.0000
  H   H1528     1.0  0.78738  0.51525  0.99985  1.0000
  H   H1529     1.0  0.54840  0.98597  0.71265  1.0000
  H   H1530     1.0  0.82017  0.71294  0.51952  1.0000
  H   H1531     1.0  0.71906  0.98641  0.53909  1.0000
  H   H1532     1.0  0.61246  0.99888  0.82946  1.0000
  H   H1533     1.0  0.63105  0.95306  0.54465  1.0000
  H   H1534     1.0  0.88410  0.52955  0.68207  1.0000
  H   H1535     1.0  0.99411  0.77787  0.61838  1.0000
  S   S192      1.0  0.86193  0.50059  0.92200  1.0000
  H   H1536     1.0  0.66397  0.00036  0.76877  1.0000
