data_image0
_chemical_formula_structural       FeSHCHFeSH2SHFe2SHFeSFeCSH4C7H4C3HC2H2SH5SH4FeCHSHCH3SH2C3H3CH2CHC2H3CSHSCH2C4H5NHSH5CHCH2CHCHCHFeSHFeS2FeSFeS3FeSHFeSH3FeSHS2HSHFeS2FeSFeSFeS3FeS2FeSFeSFeS3C6H4C6H4C6H8CH5CH3C4H3C6H4C6H4C6H6NC5HC4HC2H4CH5CH10C3SH4CH2C3H3C2HNHC2HNC2H3C5HCHFeH14C2HCH3NHNHC4NCHC6H2CH6SH2CH8SH2CH3NC8HC3H28NC12H29CH3CHC2HCHSH4CH5C2HCHC2H3CHCH3C4HC2H4SH3CH8SH7C2H4CH3CH5C4HCHCH3CH2FeH6CH8CHCHCH3CHFeS2FeSFeSFeS3CFeSFeSHFeSFeS3C3HC2H2CHCSHFeHC8H4C2HNCH3C4SCHCHCHC2HCHC2H4C4H4CFeH2CHCSH10CH4CH3SHCSH3NH3CH2SNHC2H3CH2CNH2C2H2CH2CHCH17C2H3C3H3C6H14CHCHC3H2CH6CHCHCH2CHCH2C2H7CH5CHFeHFeS2FeSFeS3FeS2HSCH2CS2H2FeS2FeSFeS2H3FeS2FeSHNSCH2C2H2C2H2C6H4C4H7CHC7H3C6H2C7H5NHFeSCH2SH2C2HC2NH3S2CHCHCHCH5NCH2C2H5CSH4CHCHNH4CHCH2NH2CH6CH6CH9C2HCH2CH2C2FeSH3CHC3HC2SCH3CSH3CH2FeCH2CH3C2SHCH2C2HCH3C2H5CH5NC12H27CHCH3CHCH3CH3CH2CH2CHCFeC2H2C3H8CH3SHFeSNS2CSCFeS2FeS2FeHFeS3FeSCFeS2FeSFeS3H4C7H6C3H4C2HC2H4CHCH2C6H5CH2CH4C6H5C5H5NC10H22CH3S2H5CH4CH2CH6CH2CH5CH2C2HFeH2CH4CNC12H28CHCFeH12SCH5CHSCSHC3HCSH6C2H2C5HC2H2C2SH2CH4CH3CH2CH5CH3CH4NC2H3C2H2CH3CH3SH2CH3C2HC2H5C3NCH2NC2H2C2S2HCH7C2HCHCHC2HCHCFeSHNHC3HC2HFeC2HFeC4HCHNCH4CH3CH4C2HFeSHCSCHFeCH3CH2C2H5FeSFeSHFeSFeS3HSFeS2FeHFeSHSH3FeS2HCH2C2HSCFeS2FeS2FeSFeS3FeS2FeS2Fe2S3C6H4C6H4C6H9C6H4C6H4CH4C2HCHCHNC2SHCHSC6H4CHC2H2NC11H13CH5CH8CHC3H2C2H3CHCH4CHCH3NHCHCH3CH2CH8NC8H3SH12CHCHC3HSC3H3CH7SH9CH5CH3CH3CH3CH3CH3C3H6SHCH4CH2C3HCH3CHCH2CH5CH2C3H7CH2NC2H2CHNHSH6CHFeCNCHCHFeH8CHCHC2H5C2NC2H3CHCH3CHC2H4CH7CHC2HC2H6CH2SH3CH2CHCHC2H5CHC2H2CH3C2H5C2HCHCH4FeSHFeS2FeSFeS3FeS2FeS2FeHFeS3HCH4SFeSH2C2FeS2FeS2FeSFeS3CHNH2C6H5C2HCH5C3H2CH2CHC6H4C2H2C2H4C6H4C6H6CH2NCH3CHC3H3CHCH2NHCH3CHCNH2CH6CHCHC4HCH4NC7H16SHCHC3H9CH3CHCH3C4H4CH4CHNCH3CH3CHCHC2H5SHCH3C2HCH2CHCH3CH3CH4CH2C3H3C2HNH4CH3C3NH2CHCH2C2HSH3CH3C2H2C2H5CHCHCHCH4C2H3CH3C2HCH2C2H2CHCHCHCHNCH6CH2SH13CH5CHCH2CH3C2FeHSC2HCH3CSHFeS2FeHCH2FeSNSHCHFeS2FeS2FeHFeS3CH2C6H2C7H6CHC4H3SC7H4CHCH2CHCH2CHC2HSH3CH4FeH5SH3CH3CH2C2H2CH3NCH2CHCH2CHCH2CHC2HCH5C3H2FeHNC12H28NC11H4NH12CH8CH3SH2CH2NCH2CHSH2NC9HCH4C2HCH11CHCH3CH3CH3CHCH6CH3CH3CH3C2H7CH2SCHCH4CHC2H3CH3CH3C3H4C2FeHSH2C2H4FeNSFeSCSHCHSC2H3FeS2HCFeSHCSCHCH5S2HCH6CHSC6H4CH4FeH2CNC6H2CH6C6H3SH2C2HSH3NHCH2CH3CH4C2S2H2C2H5FeH2CHCH4C2FeHCH5CH5C2HCH5FeHCHCH4C2H6CH7NH5C4H3C2HC4HC3H3CH8CH3C2SCH5CH5CH2C6HCH3FeC2FeSCFeSNSCHCHC2HFeHCHC2H2CH2CH8C2H4CHCHCSHCH2SH7CHCHFeCHSH9CHC3H2S2H2C2H2C2HSHC4HCH3SH4C2H5CHNCHCH2FeHSCH5C2HFeS2FeS2FeSFeS3FeS2FeS2FeSFeS3H2SCH2FeSHSFeSCH2FeS2FeSCFeSFeS3C6H4CHCH6CH3C7H4C6H4CHCH2C6H4C6H4C6H4CNH2CH4C2H2CHCH2CH3CHSH4C5NC12H29C3H9NC7H2CH3SCH3NCHCNC6SC3HCH10FeH2CH10CNHCNC10H19CHC3H4CH5CH2FeH2CH2CH3CH2CHCH6CH4NCH2CHC2HCH9CH3CSC4HCH2CHC2HCH6C2HCSH2CH3CH5C3SH3SC2SHSCH3CH9CH6CH2CHCHNHCH3CHCHCH2CHCH2CH8CH8CH2NH3C3H5CH2CH4C3H2CSCSH2FeS2H2FeS2FeCFeS3FeHC2SC3HC2H3FeC3H4FeHC7HCH2CH3CH5C2HCH6C2H5CHCH2C2NC3HSH2CH2C5H3CH3CH4SHC4H2C4H3SH5CNH5CHC4H3CSH3NH7CNH2CH3CH4CHCH2FeH7CH3CH3
_chemical_formula_sum              "Fe144 S288 H2304 C1296 N72"
_cell_length_a       85.445
_cell_length_b       84.9157
_cell_length_c       32.3041
_cell_angle_alpha    85.3038
_cell_angle_beta     84.071
_cell_angle_gamma    109.125

_space_group_name_H-M_alt    "P 1"
_space_group_IT_number       1

loop_
  _space_group_symop_operation_xyz
  'x, y, z'

loop_
  _atom_site_type_symbol
  _atom_site_label
  _atom_site_symmetry_multiplicity
  _atom_site_fract_x
  _atom_site_fract_y
  _atom_site_fract_z
  _atom_site_occupancy
  Fe  Fe1       1.0  0.02312  0.46290  0.46834  1.0000
  S   S1        1.0  0.04298  0.45126  0.45334  1.0000
  H   H1        1.0  0.02530  0.46177  0.66851  1.0000
  C   C1        1.0  0.10976  0.46087  0.47079  1.0000
  H   H2        1.0  0.10900  0.43468  0.53816  1.0000
  Fe  Fe2       1.0  0.05264  0.47172  0.39806  1.0000
  S   S2        1.0  0.06272  0.47003  0.33102  1.0000
  H   H3        1.0  0.11095  0.45222  0.61815  1.0000
  H   H4        1.0  0.01880  0.48755  0.64721  1.0000
  S   S3        1.0  0.03183  0.48183  0.41074  1.0000
  H   H5        1.0  0.13159  0.43342  0.50301  1.0000
  Fe  Fe3       1.0  0.03079  0.47269  0.10504  1.0000
  Fe  Fe4       1.0  0.04828  0.49842  0.45033  1.0000
  S   S4        1.0  0.02154  0.46467  0.17527  1.0000
  H   H6        1.0  0.08390  0.47844  0.69673  1.0000
  Fe  Fe5       1.0  0.05497  0.48112  0.02223  1.0000
  S   S5        1.0  0.08101  0.48307  0.99243  1.0000
  Fe  Fe6       1.0  0.01721  0.46953  0.01978  1.0000
  C   C2        1.0  0.03008  0.46875  0.63661  1.0000
  S   S6        1.0  0.03366  0.45762  0.05149  1.0000
  H   H7        1.0  0.09726  0.44776  0.55280  1.0000
  H   H8        1.0  0.08699  0.46581  0.62083  1.0000
  H   H9        1.0  0.12124  0.47217  0.54954  1.0000
  H   H10       1.0  0.13933  0.41853  0.44679  1.0000
  C   C3        1.0  0.08973  0.48051  0.56119  1.0000
  C   C4        1.0  0.05140  0.46972  0.28758  1.0000
  C   C5        1.0  0.03428  0.46724  0.29314  1.0000
  C   C6        1.0  0.02548  0.46615  0.25831  1.0000
  C   C7        1.0  0.03368  0.46772  0.21736  1.0000
  C   C8        1.0  0.05093  0.47080  0.21156  1.0000
  C   C9        1.0  0.05971  0.47166  0.24655  1.0000
  H   H11       1.0  0.02783  0.46608  0.32431  1.0000
  H   H12       1.0  0.01222  0.46401  0.26298  1.0000
  H   H13       1.0  0.05741  0.47198  0.18025  1.0000
  H   H14       1.0  0.07296  0.47360  0.24176  1.0000
  C   C10       1.0  0.10847  0.48857  0.61438  1.0000
  C   C11       1.0  0.11014  0.46527  0.42305  1.0000
  C   C12       1.0  0.09429  0.47728  0.60081  1.0000
  H   H15       1.0  0.08351  0.46188  0.42906  1.0000
  C   C13       1.0  0.08774  0.48828  0.71787  1.0000
  C   C14       1.0  0.01894  0.47871  0.62389  1.0000
  H   H16       1.0  0.00474  0.43071  0.32434  1.0000
  H   H17       1.0  0.11422  0.47908  0.41453  1.0000
  S   S7        1.0  0.03867  0.49189  0.98780  1.0000
  H   H18       1.0  0.13576  0.46133  0.54513  1.0000
  H   H19       1.0  0.10154  0.49454  0.71196  1.0000
  H   H20       1.0  0.12518  0.49110  0.48489  1.0000
  H   H21       1.0  0.09604  0.49798  0.50497  1.0000
  H   H22       1.0  0.02805  0.49635  0.71474  1.0000
  S   S8        1.0  0.05339  0.49498  0.07811  1.0000
  H   H23       1.0  0.06496  0.49300  0.92444  1.0000
  H   H24       1.0  0.04304  0.47739  0.63656  1.0000
  H   H25       1.0  0.11212  0.48566  0.64436  1.0000
  H   H26       1.0  0.09960  0.43049  0.61453  1.0000
  Fe  Fe7       1.0  0.05893  0.47061  0.49027  1.0000
  C   C15       1.0  0.13818  0.45807  0.46637  1.0000
  H   H27       1.0  0.02493  0.48608  0.59312  1.0000
  S   S9        1.0  0.07003  0.48992  0.43404  1.0000
  H   H28       1.0  0.01503  0.49714  0.19463  1.0000
  C   C16       1.0  0.00668  0.50071  0.21792  1.0000
  H   H29       1.0  0.15013  0.46172  0.47985  1.0000
  H   H30       1.0  0.08433  0.48213  0.75080  1.0000
  H   H31       1.0  0.02703  0.44137  0.36957  1.0000
  S   S10       1.0  0.03828  0.48041  0.50902  1.0000
  H   H32       1.0  0.15664  0.43700  0.45188  1.0000
  H   H33       1.0  0.10293  0.44720  0.47844  1.0000
  C   C17       1.0  0.14387  0.43248  0.44277  1.0000
  C   C18       1.0  0.12398  0.46189  0.53424  1.0000
  C   C19       1.0  0.11065  0.44147  0.60043  1.0000
  H   H34       1.0  0.01566  0.42419  0.41002  1.0000
  H   H35       1.0  0.00690  0.49558  0.56449  1.0000
  H   H36       1.0  0.11943  0.43348  0.46024  1.0000
  C   C20       1.0  0.10444  0.49194  0.92167  1.0000
  H   H37       1.0  0.06533  0.49422  0.71888  1.0000
  H   H38       1.0  0.11865  0.46026  0.40436  1.0000
  C   C21       1.0  0.00092  0.46677  0.62187  1.0000
  H   H39       1.0  0.09300  0.46202  0.37654  1.0000
  C   C22       1.0  0.00167  0.42714  0.35883  1.0000
  C   C23       1.0  0.13443  0.48485  0.47629  1.0000
  H   H40       1.0  0.14184  0.46305  0.43254  1.0000
  H   H41       1.0  0.14718  0.49175  0.53196  1.0000
  H   H42       1.0  0.12212  0.43827  0.60353  1.0000
  C   C24       1.0  0.15017  0.49339  0.49726  1.0000
  S   S11       1.0  0.01260  0.48251  0.07487  1.0000
  H   H43       1.0  0.16024  0.48819  0.48894  1.0000
  S   S12       1.0  0.07269  0.46528  0.54384  1.0000
  C   C25       1.0  0.11044  0.49790  0.87898  1.0000
  H   H44       1.0  0.00021  0.48977  0.24206  1.0000
  H   H45       1.0  0.02387  0.42007  0.35994  1.0000
  C   C26       1.0  0.01804  0.42832  0.37572  1.0000
  C   C27       1.0  0.13195  0.43867  0.47019  1.0000
  C   C28       1.0  0.10941  0.44576  0.55426  1.0000
  C   C29       1.0  0.08802  0.49023  0.93848  1.0000
  H   H46       1.0  0.14445  0.43693  0.40913  1.0000
  H   H47       1.0  0.08857  0.44384  0.41462  1.0000
  H   H48       1.0  0.11254  0.48864  0.94181  1.0000
  H   H49       1.0  0.03061  0.45972  0.61388  1.0000
  H   H50       1.0  0.00193  0.45705  0.60145  1.0000
  N   N1        1.0  0.12646  0.46600  0.48698  1.0000
  H   H51       1.0  0.13822  0.48830  0.44184  1.0000
  S   S13       1.0  0.14360  0.50164  0.72200  1.0000
  H   H52       1.0  0.01300  0.49140  0.31852  1.0000
  H   H53       1.0  0.10154  0.46690  0.48718  1.0000
  H   H54       1.0  0.12308  0.49916  0.86633  1.0000
  H   H55       1.0  0.00253  0.47610  0.54460  1.0000
  H   H56       1.0  0.00242  0.45192  0.36628  1.0000
  C   C30       1.0  0.09274  0.45778  0.41016  1.0000
  H   H57       1.0  0.00214  0.49375  0.47643  1.0000
  C   C31       1.0  0.09936  0.49532  0.53555  1.0000
  H   H58       1.0  0.01116  0.49545  0.92556  1.0000
  H   H59       1.0  0.04285  0.49793  0.32515  1.0000
  C   C32       1.0  0.07763  0.49443  0.91216  1.0000
  H   H60       1.0  0.07828  0.49949  0.64658  1.0000
  C   C33       1.0  0.07895  0.50117  0.71147  1.0000
  H   H61       1.0  0.09442  0.50062  0.35214  1.0000
  C   C34       1.0  0.08353  0.50020  0.86954  1.0000
  H   H62       1.0  0.99889  0.49822  0.63243  1.0000
  Fe  Fe8       1.0  0.18541  0.67938  0.86066  1.0000
  S   S14       1.0  0.17494  0.65922  0.91662  1.0000
  H   H63       1.0  0.16047  0.71258  0.66052  1.0000
  Fe  Fe9       1.0  0.15528  0.66321  0.81378  1.0000
  S   S15       1.0  0.14265  0.64223  0.86569  1.0000
  S   S16       1.0  0.14662  0.66718  0.75047  1.0000
  Fe  Fe10      1.0  0.14991  0.66190  0.90938  1.0000
  S   S17       1.0  0.12935  0.66310  0.95868  1.0000
  Fe  Fe11      1.0  0.16823  0.64077  0.86934  1.0000
  S   S18       1.0  0.17066  0.61489  0.87696  1.0000
  S   S19       1.0  0.16075  0.68332  0.85675  1.0000
  S   S20       1.0  0.18045  0.66034  0.81439  1.0000
  Fe  Fe12      1.0  0.16880  0.51982  0.73294  1.0000
  S   S21       1.0  0.17091  0.53748  0.67512  1.0000
  H   H64       1.0  0.20437  0.60779  0.84450  1.0000
  Fe  Fe13      1.0  0.13224  0.51707  0.76108  1.0000
  S   S22       1.0  0.13245  0.53496  0.70563  1.0000
  H   H65       1.0  0.09891  0.54078  0.16341  1.0000
  H   H66       1.0  0.01589  0.51346  0.30855  1.0000
  H   H67       1.0  0.21039  0.72262  0.70705  1.0000
  Fe  Fe14      1.0  0.15787  0.55014  0.71823  1.0000
  S   S23       1.0  0.16534  0.57839  0.71266  1.0000
  H   H68       1.0  0.19025  0.56014  0.80080  1.0000
  S   S24       1.0  0.15689  0.53354  0.77653  1.0000
  S   S25       1.0  0.05197  0.52596  0.44373  1.0000
  H   H69       1.0  0.07840  0.54134  0.60078  1.0000
  S   S26       1.0  0.03358  0.52956  0.04282  1.0000
  H   H70       1.0  0.03142  0.50829  0.52010  1.0000
  Fe  Fe15      1.0  0.06889  0.60831  0.64465  1.0000
  S   S27       1.0  0.07422  0.59176  0.59816  1.0000
  S   S28       1.0  0.08229  0.61211  0.70262  1.0000
  Fe  Fe16      1.0  0.03673  0.60768  0.60948  1.0000
  S   S29       1.0  0.03945  0.59126  0.56055  1.0000
  Fe  Fe17      1.0  0.04694  0.57706  0.61178  1.0000
  S   S30       1.0  0.03769  0.54903  0.61995  1.0000
  Fe  Fe18      1.0  0.06647  0.60742  0.54981  1.0000
  S   S31       1.0  0.08118  0.61290  0.48430  1.0000
  S   S32       1.0  0.04183  0.59197  0.66185  1.0000
  S   S33       1.0  0.06345  0.62548  0.59525  1.0000
  Fe  Fe19      1.0  0.07993  0.61534  0.17649  1.0000
  S   S34       1.0  0.07419  0.59950  0.23961  1.0000
  S   S35       1.0  0.10718  0.62648  0.14643  1.0000
  Fe  Fe20      1.0  0.04264  0.60705  0.16793  1.0000
  S   S36       1.0  0.03423  0.59149  0.23068  1.0000
  Fe  Fe21      1.0  0.05468  0.61132  0.25452  1.0000
  S   S37       1.0  0.04809  0.61882  0.31850  1.0000
  Fe  Fe22      1.0  0.05421  0.58108  0.21099  1.0000
  S   S38       1.0  0.04740  0.55315  0.21914  1.0000
  S   S39       1.0  0.06146  0.62843  0.19286  1.0000
  S   S40       1.0  0.06181  0.59558  0.14699  1.0000
  C   C35       1.0  0.07087  0.61258  0.43926  1.0000
  C   C36       1.0  0.05559  0.61540  0.44073  1.0000
  C   C37       1.0  0.04851  0.61672  0.40363  1.0000
  C   C38       1.0  0.05640  0.61486  0.36485  1.0000
  C   C39       1.0  0.07131  0.61131  0.36364  1.0000
  C   C40       1.0  0.07863  0.61044  0.40058  1.0000
  H   H71       1.0  0.04952  0.61716  0.47021  1.0000
  H   H72       1.0  0.03701  0.61952  0.40491  1.0000
  H   H73       1.0  0.07754  0.60989  0.33405  1.0000
  H   H74       1.0  0.09046  0.60830  0.39914  1.0000
  C   C41       1.0  0.03521  0.53534  0.09353  1.0000
  C   C42       1.0  0.03765  0.52450  0.12518  1.0000
  C   C43       1.0  0.04096  0.52979  0.16420  1.0000
  C   C44       1.0  0.04100  0.54568  0.17247  1.0000
  C   C45       1.0  0.03661  0.55574  0.14249  1.0000
  C   C46       1.0  0.03415  0.55078  0.10265  1.0000
  H   H75       1.0  0.00010  0.52808  0.63224  1.0000
  H   H76       1.0  0.04364  0.52157  0.18760  1.0000
  H   H77       1.0  0.03503  0.56731  0.14995  1.0000
  H   H78       1.0  0.03126  0.55878  0.07921  1.0000
  C   C47       1.0  0.04725  0.53269  0.49182  1.0000
  C   C48       1.0  0.03716  0.52110  0.52509  1.0000
  C   C49       1.0  0.03430  0.52616  0.56449  1.0000
  C   C50       1.0  0.04133  0.54296  0.57048  1.0000
  C   C51       1.0  0.05115  0.55473  0.53700  1.0000
  C   C52       1.0  0.05409  0.54960  0.49762  1.0000
  H   H79       1.0  0.06657  0.64778  0.26486  1.0000
  H   H80       1.0  0.02672  0.51715  0.59041  1.0000
  H   H81       1.0  0.05674  0.56776  0.54132  1.0000
  H   H82       1.0  0.06192  0.55869  0.47196  1.0000
  H   H83       1.0  0.12555  0.55887  0.78299  1.0000
  H   H84       1.0  0.21121  0.71796  0.76085  1.0000
  H   H85       1.0  0.08996  0.56219  0.64032  1.0000
  H   H86       1.0  0.07076  0.68532  0.24552  1.0000
  C   C53       1.0  0.02049  0.50414  0.32480  1.0000
  H   H87       1.0  0.05505  0.51403  0.73446  1.0000
  H   H88       1.0  0.09886  0.51823  0.38270  1.0000
  H   H89       1.0  0.11457  0.51701  0.34257  1.0000
  H   H90       1.0  0.07121  0.53578  0.02843  1.0000
  H   H91       1.0  0.04278  0.67392  0.22433  1.0000
  C   C54       1.0  0.18514  0.72487  0.79418  1.0000
  H   H92       1.0  0.08131  0.53451  0.71403  1.0000
  H   H93       1.0  0.23019  0.58493  0.72396  1.0000
  H   H94       1.0  0.11504  0.66312  0.23670  1.0000
  C   C55       1.0  0.08123  0.55478  0.66844  1.0000
  C   C56       1.0  0.21653  0.72952  0.87782  1.0000
  C   C57       1.0  0.21269  0.52075  0.74581  1.0000
  C   C58       1.0  0.22120  0.53156  0.70946  1.0000
  H   H95       1.0  0.17877  0.52393  0.83356  1.0000
  H   H96       1.0  0.21413  0.53512  0.68675  1.0000
  H   H97       1.0  0.09446  0.52845  0.52654  1.0000
  C   C59       1.0  0.11343  0.63678  0.09436  1.0000
  C   C60       1.0  0.10500  0.64677  0.07724  1.0000
  C   C61       1.0  0.11018  0.65482  0.03583  1.0000
  C   C62       1.0  0.12381  0.65297  0.01096  1.0000
  C   C63       1.0  0.13245  0.64318  0.02824  1.0000
  C   C64       1.0  0.12740  0.63530  0.06998  1.0000
  H   H98       1.0  0.09460  0.64845  0.09618  1.0000
  H   H99       1.0  0.10361  0.66260  0.02294  1.0000
  H   H100      1.0  0.14307  0.64178  0.00959  1.0000
  H   H101      1.0  0.13420  0.62784  0.08323  1.0000
  C   C65       1.0  0.12796  0.65270  0.73794  1.0000
  C   C66       1.0  0.12371  0.65403  0.69715  1.0000
  C   C67       1.0  0.10930  0.64218  0.68605  1.0000
  C   C68       1.0  0.09920  0.62877  0.71555  1.0000
  C   C69       1.0  0.10317  0.62782  0.75659  1.0000
  C   C70       1.0  0.11741  0.63973  0.76778  1.0000
  H   H102      1.0  0.13165  0.66419  0.67401  1.0000
  H   H103      1.0  0.10615  0.64331  0.65464  1.0000
  H   H104      1.0  0.09533  0.61761  0.77974  1.0000
  H   H105      1.0  0.12042  0.63867  0.79930  1.0000
  C   C71       1.0  0.16955  0.60479  0.83131  1.0000
  C   C72       1.0  0.17239  0.61394  0.79169  1.0000
  C   C73       1.0  0.17167  0.60575  0.75560  1.0000
  C   C74       1.0  0.16739  0.58825  0.75881  1.0000
  C   C75       1.0  0.16463  0.57905  0.79845  1.0000
  C   C76       1.0  0.16600  0.58735  0.83455  1.0000
  H   H106      1.0  0.17534  0.62739  0.78876  1.0000
  H   H107      1.0  0.17414  0.61302  0.72512  1.0000
  H   H108      1.0  0.16140  0.56561  0.80142  1.0000
  H   H109      1.0  0.16413  0.58025  0.86507  1.0000
  H   H110      1.0  0.01174  0.53176  0.90713  1.0000
  H   H111      1.0  0.20474  0.55302  0.86589  1.0000
  N   N2        1.0  0.11541  0.54998  0.91573  1.0000
  C   C77       1.0  0.09691  0.54342  0.93181  1.0000
  C   C78       1.0  0.11781  0.54902  0.86913  1.0000
  C   C79       1.0  0.12306  0.53824  0.93665  1.0000
  C   C80       1.0  0.12416  0.56763  0.92534  1.0000
  C   C81       1.0  0.11385  0.57971  0.92645  1.0000
  H   H112      1.0  0.20487  0.58909  0.78854  1.0000
  C   C82       1.0  0.14165  0.54110  0.92065  1.0000
  C   C83       1.0  0.11060  0.55985  0.84122  1.0000
  C   C84       1.0  0.11223  0.55627  0.79571  1.0000
  C   C85       1.0  0.12526  0.59798  0.92401  1.0000
  H   H113      1.0  0.12162  0.63759  0.22467  1.0000
  C   C86       1.0  0.21366  0.58667  0.84712  1.0000
  C   C87       1.0  0.03329  0.51518  0.89555  1.0000
  H   H114      1.0  0.09046  0.55175  0.91923  1.0000
  H   H115      1.0  0.13133  0.55319  0.85654  1.0000
  H   H116      1.0  0.11242  0.53574  0.86290  1.0000
  H   H117      1.0  0.05737  0.66668  0.19377  1.0000
  C   C88       1.0  0.08321  0.50983  0.66569  1.0000
  H   H118      1.0  0.12871  0.56744  0.95643  1.0000
  H   H119      1.0  0.13573  0.57376  0.90251  1.0000
  H   H120      1.0  0.02493  0.51506  0.69101  1.0000
  H   H121      1.0  0.10632  0.57893  0.90039  1.0000
  H   H122      1.0  0.20209  0.58673  0.72280  1.0000
  C   C89       1.0  0.20061  0.54519  0.84072  1.0000
  H   H123      1.0  0.14945  0.55451  0.91916  1.0000
  H   H124      1.0  0.14287  0.53704  0.88899  1.0000
  H   H125      1.0  0.09716  0.55737  0.85162  1.0000
  H   H126      1.0  0.11775  0.57336  0.84140  1.0000
  H   H127      1.0  0.10489  0.54300  0.79320  1.0000
  H   H128      1.0  0.10720  0.56441  0.77649  1.0000
  H   H129      1.0  0.03904  0.51880  0.92420  1.0000
  H   H130      1.0  0.13358  0.60190  0.89349  1.0000
  H   H131      1.0  0.11769  0.60636  0.92635  1.0000
  H   H132      1.0  0.13307  0.59967  0.94987  1.0000
  C   C90       1.0  0.02406  0.57786  0.00428  1.0000
  C   C91       1.0  0.14866  0.53069  0.94956  1.0000
  C   C92       1.0  0.05077  0.66593  0.22577  1.0000
  S   S41       1.0  0.01461  0.61657  0.61632  1.0000
  H   H133      1.0  0.18756  0.74961  0.81495  1.0000
  H   H134      1.0  0.10044  0.55087  0.99526  1.0000
  H   H135      1.0  0.09796  0.54021  0.23991  1.0000
  H   H136      1.0  0.00116  0.53938  0.48661  1.0000
  C   C93       1.0  0.20130  0.55587  0.79863  1.0000
  H   H137      1.0  0.06836  0.55234  0.66084  1.0000
  H   H138      1.0  0.06442  0.65414  0.33533  1.0000
  C   C94       1.0  0.17876  0.72771  0.72248  1.0000
  C   C95       1.0  0.10095  0.51435  0.35116  1.0000
  C   C96       1.0  0.09938  0.68234  0.27682  1.0000
  H   H139      1.0  0.10508  0.57663  0.95615  1.0000
  H   H140      1.0  0.10453  0.68372  0.24310  1.0000
  H   H141      1.0  0.02532  0.51192  0.74673  1.0000
  C   C97       1.0  0.08361  0.56568  0.70415  1.0000
  C   C98       1.0  0.07483  0.66115  0.25858  1.0000
  H   H142      1.0  0.14796  0.53425  0.98185  1.0000
  N   N3        1.0  0.19275  0.72952  0.74868  1.0000
  H   H143      1.0  0.99911  0.54421  0.09991  1.0000
  C   C99       1.0  0.16845  0.72596  0.65156  1.0000
  C   C100      1.0  0.06331  0.67197  0.25649  1.0000
  H   H144      1.0  0.16871  0.71525  0.73150  1.0000
  N   N4        1.0  0.08698  0.66490  0.29028  1.0000
  C   C101      1.0  0.07711  0.66384  0.33283  1.0000
  C   C102      1.0  0.07055  0.52701  0.25610  1.0000
  H   H145      1.0  0.20122  0.57769  0.86127  1.0000
  H   H146      1.0  0.19477  0.67577  0.72444  1.0000
  H   H147      1.0  0.08155  0.66274  0.22630  1.0000
  C   C103      1.0  0.20442  0.57507  0.71566  1.0000
  C   C104      1.0  0.08773  0.53209  0.18420  1.0000
  C   C105      1.0  0.21588  0.58649  0.79910  1.0000
  C   C106      1.0  0.23967  0.72809  0.83053  1.0000
  C   C107      1.0  0.16913  0.73061  0.85860  1.0000
  H   H148      1.0  0.06040  0.51393  0.58284  1.0000
  C   C108      1.0  0.20233  0.71796  0.73789  1.0000
  H   H149      1.0  0.21195  0.60370  0.89271  1.0000
  Fe  Fe23      1.0  0.14494  0.52056  0.66730  1.0000
  H   H150      1.0  0.99899  0.57967  0.62649  1.0000
  H   H151      1.0  0.07439  0.55921  0.73226  1.0000
  H   H152      1.0  0.09643  0.56855  0.71245  1.0000
  H   H153      1.0  0.08162  0.57763  0.69423  1.0000
  H   H154      1.0  0.08289  0.51028  0.73425  1.0000
  H   H155      1.0  0.19437  0.72291  0.81413  1.0000
  H   H156      1.0  0.00995  0.57757  0.17858  1.0000
  H   H157      1.0  0.09756  0.66653  0.37216  1.0000
  H   H158      1.0  0.08548  0.63902  0.29999  1.0000
  H   H159      1.0  0.19691  0.57749  0.65402  1.0000
  H   H160      1.0  0.10960  0.69058  0.33378  1.0000
  H   H161      1.0  0.09715  0.64661  0.22471  1.0000
  H   H162      1.0  0.03699  0.52647  0.87193  1.0000
  H   H163      1.0  0.18290  0.52581  0.88662  1.0000
  C   C109      1.0  0.08431  0.65894  0.37225  1.0000
  C   C110      1.0  0.22594  0.74631  0.88201  1.0000
  H   H164      1.0  0.99967  0.60016  0.06554  1.0000
  C   C111      1.0  0.23992  0.52217  0.76733  1.0000
  H   H165      1.0  0.12144  0.71468  0.27749  1.0000
  H   H166      1.0  0.09866  0.54141  0.67457  1.0000
  H   H167      1.0  0.16442  0.74004  0.87239  1.0000
  N   N5        1.0  0.07655  0.52395  0.65575  1.0000
  H   H168      1.0  0.07491  0.67590  0.33662  1.0000
  N   N6        1.0  0.21719  0.57062  0.78361  1.0000
  H   H169      1.0  0.10372  0.65304  0.31486  1.0000
  C   C112      1.0  0.22331  0.72028  0.85184  1.0000
  C   C113      1.0  0.09521  0.65163  0.29070  1.0000
  C   C114      1.0  0.07422  0.51762  0.57857  1.0000
  C   C115      1.0  0.15722  0.51229  0.48311  1.0000
  N   N7        1.0  0.06836  0.53057  0.30117  1.0000
  C   C116      1.0  0.07588  0.54915  0.30409  1.0000
  H   H170      1.0  0.21456  0.74871  0.80117  1.0000
  C   C117      1.0  0.04984  0.52541  0.31640  1.0000
  C   C118      1.0  0.07564  0.52035  0.32876  1.0000
  C   C119      1.0  0.09469  0.52409  0.31871  1.0000
  C   C120      1.0  0.07406  0.55463  0.34853  1.0000
  C   C121      1.0  0.07414  0.53857  0.99373  1.0000
  C   C122      1.0  0.08625  0.53875  0.22647  1.0000
  H   H171      1.0  0.23913  0.69785  0.93144  1.0000
  H   H172      1.0  0.21905  0.58706  0.65506  1.0000
  C   C123      1.0  0.08215  0.57361  0.34729  1.0000
  H   H173      1.0  0.07014  0.55621  0.28335  1.0000
  H   H174      1.0  0.08942  0.55405  0.29210  1.0000
  H   H175      1.0  0.05258  0.52514  0.64267  1.0000
  H   H176      1.0  0.01985  0.58286  0.97628  1.0000
  H   H177      1.0  0.04454  0.53449  0.30148  1.0000
  H   H178      1.0  0.04760  0.52577  0.35081  1.0000
  S   S42       1.0  0.02472  0.60853  0.12151  1.0000
  H   H179      1.0  0.01784  0.56297  0.52057  1.0000
  H   H180      1.0  0.10184  0.53760  0.31833  1.0000
  C   C124      1.0  0.17766  0.73740  0.81371  1.0000
  H   H181      1.0  0.06074  0.55144  0.36166  1.0000
  H   H182      1.0  0.08022  0.54860  0.37035  1.0000
  H   H183      1.0  0.08903  0.51947  0.18841  1.0000
  H   H184      1.0  0.07174  0.55033  0.98405  1.0000
  H   H185      1.0  0.08522  0.55142  0.22019  1.0000
  H   H186      1.0  0.19101  0.72198  0.66443  1.0000
  H   H187      1.0  0.00437  0.53910  0.04869  1.0000
  H   H188      1.0  0.01873  0.50480  0.35909  1.0000
  S   S43       1.0  0.10644  0.50941  0.79893  1.0000
  H   H189      1.0  0.09756  0.52002  0.28791  1.0000
  H   H190      1.0  0.07738  0.50606  0.58275  1.0000
  C   C125      1.0  0.08481  0.53825  0.67973  1.0000
  H   H191      1.0  0.07599  0.58024  0.32685  1.0000
  H   H192      1.0  0.08061  0.57714  0.37945  1.0000
  H   H193      1.0  0.09571  0.57772  0.33547  1.0000
  N   N8        1.0  0.07103  0.60691  0.98992  1.0000
  C   C126      1.0  0.07650  0.59610  0.02086  1.0000
  C   C127      1.0  0.05410  0.59671  0.97954  1.0000
  C   C128      1.0  0.08336  0.61119  0.95009  1.0000
  C   C129      1.0  0.07065  0.62314  0.00541  1.0000
  C   C130      1.0  0.06577  0.62272  0.05317  1.0000
  C   C131      1.0  0.09505  0.60322  0.02808  1.0000
  C   C132      1.0  0.07896  0.62049  0.91197  1.0000
  C   C133      1.0  0.03942  0.59107  0.01606  1.0000
  H   H194      1.0  0.03053  0.55694  0.45120  1.0000
  C   C134      1.0  0.06196  0.63850  0.06301  1.0000
  C   C135      1.0  0.09849  0.59353  0.06603  1.0000
  C   C136      1.0  0.09403  0.62782  0.87769  1.0000
  H   H195      1.0  0.07455  0.58349  0.01036  1.0000
  H   H196      1.0  0.06871  0.59343  0.05193  1.0000
  H   H197      1.0  0.04999  0.60394  0.95525  1.0000
  H   H198      1.0  0.05493  0.58533  0.96582  1.0000
  H   H199      1.0  0.08515  0.59960  0.93985  1.0000
  H   H200      1.0  0.09588  0.61946  0.95594  1.0000
  H   H201      1.0  0.08312  0.63321  0.99731  1.0000
  H   H202      1.0  0.06199  0.62794  0.98890  1.0000
  H   H203      1.0  0.07614  0.62192  0.07019  1.0000
  H   H204      1.0  0.05470  0.61182  0.06630  1.0000
  H   H205      1.0  0.10336  0.60215  0.00052  1.0000
  H   H206      1.0  0.09853  0.61664  0.03270  1.0000
  H   H207      1.0  0.07487  0.63098  0.92120  1.0000
  H   H208      1.0  0.06880  0.61163  0.89792  1.0000
  H   H209      1.0  0.04266  0.58555  0.04470  1.0000
  H   H210      1.0  0.03569  0.60200  0.02362  1.0000
  H   H211      1.0  0.00522  0.55059  0.94179  1.0000
  H   H212      1.0  0.17808  0.72799  0.87841  1.0000
  H   H213      1.0  0.22744  0.69711  0.98180  1.0000
  H   H214      1.0  0.07255  0.65002  0.04966  1.0000
  H   H215      1.0  0.05048  0.63877  0.05012  1.0000
  H   H216      1.0  0.05975  0.63842  0.09752  1.0000
  H   H217      1.0  0.09454  0.57989  0.06313  1.0000
  H   H218      1.0  0.11208  0.59818  0.06840  1.0000
  H   H219      1.0  0.09179  0.59553  0.09532  1.0000
  H   H220      1.0  0.09871  0.61782  0.86729  1.0000
  H   H221      1.0  0.09037  0.63383  0.85020  1.0000
  H   H222      1.0  0.10428  0.63757  0.88930  1.0000
  N   N9        1.0  0.13488  0.60199  0.63451  1.0000
  C   C137      1.0  0.12587  0.60319  0.67629  1.0000
  C   C138      1.0  0.12655  0.60702  0.59893  1.0000
  C   C139      1.0  0.13337  0.58378  0.63326  1.0000
  C   C140      1.0  0.15330  0.61229  0.62907  1.0000
  C   C141      1.0  0.15803  0.63062  0.63950  1.0000
  C   C142      1.0  0.13210  0.59651  0.71519  1.0000
  C   C143      1.0  0.13999  0.57928  0.59084  1.0000
  C   C144      1.0  0.11893  0.62107  0.60479  1.0000
  C   C145      1.0  0.11451  0.62748  0.56351  1.0000
  C   C146      1.0  0.17701  0.63894  0.63580  1.0000
  C   C147      1.0  0.12570  0.60180  0.75563  1.0000
  C   C148      1.0  0.13859  0.56078  0.59444  1.0000
  H   H223      1.0  0.11226  0.59616  0.67830  1.0000
  H   H224      1.0  0.12653  0.61628  0.67962  1.0000
  H   H225      1.0  0.13535  0.61065  0.56905  1.0000
  H   H226      1.0  0.11580  0.59609  0.59310  1.0000
  H   H227      1.0  0.12006  0.57553  0.64188  1.0000
  H   H228      1.0  0.14032  0.57976  0.65697  1.0000
  H   H229      1.0  0.16014  0.60593  0.64824  1.0000
  H   H230      1.0  0.15910  0.61302  0.59621  1.0000
  H   H231      1.0  0.15287  0.63128  0.67201  1.0000
  H   H232      1.0  0.15365  0.63825  0.61706  1.0000
  H   H233      1.0  0.12794  0.58259  0.71888  1.0000
  H   H234      1.0  0.14584  0.60144  0.71183  1.0000
  H   H235      1.0  0.15336  0.58685  0.58100  1.0000
  H   H236      1.0  0.13274  0.58147  0.56571  1.0000
  H   H237      1.0  0.10722  0.61599  0.62732  1.0000
  H   H238      1.0  0.12739  0.63194  0.61711  1.0000
  H   H239      1.0  0.12600  0.63397  0.54090  1.0000
  H   H240      1.0  0.10616  0.61697  0.54933  1.0000
  H   H241      1.0  0.10789  0.63654  0.56937  1.0000
  H   H242      1.0  0.18004  0.65204  0.64345  1.0000
  H   H243      1.0  0.18226  0.63205  0.65814  1.0000
  H   H244      1.0  0.18300  0.63927  0.60339  1.0000
  H   H245      1.0  0.12991  0.59612  0.78261  1.0000
  H   H246      1.0  0.13107  0.61563  0.75468  1.0000
  H   H247      1.0  0.11182  0.59765  0.76028  1.0000
  H   H248      1.0  0.14651  0.55815  0.61744  1.0000
  H   H249      1.0  0.12543  0.55249  0.60446  1.0000
  H   H250      1.0  0.14294  0.55766  0.56358  1.0000
  H   H251      1.0  0.20966  0.56440  0.65884  1.0000
  C   C149      1.0  0.18297  0.53303  0.85631  1.0000
  H   H252      1.0  0.06091  0.65320  0.41420  1.0000
  H   H253      1.0  0.12066  0.67892  0.30565  1.0000
  H   H254      1.0  0.19905  0.54668  0.77531  1.0000
  C   C150      1.0  0.00214  0.57730  0.15433  1.0000
  H   H255      1.0  0.07565  0.67416  0.41424  1.0000
  C   C151      1.0  0.08193  0.53013  0.60950  1.0000
  C   C152      1.0  0.08073  0.52552  0.53317  1.0000
  H   H256      1.0  0.00339  0.51203  0.50277  1.0000
  C   C153      1.0  0.20463  0.74739  0.74046  1.0000
  H   H257      1.0  0.12232  0.53907  0.97096  1.0000
  S   S44       1.0  0.21199  0.69912  0.84433  1.0000
  H   H258      1.0  0.20889  0.53755  0.83621  1.0000
  H   H259      1.0  0.24697  0.51838  0.78976  1.0000
  H   H260      1.0  0.01089  0.57772  0.49130  1.0000
  H   H261      1.0  0.17407  0.53997  0.86098  1.0000
  C   C154      1.0  0.11827  0.50323  0.58838  1.0000
  H   H262      1.0  0.21042  0.69405  0.69492  1.0000
  H   H263      1.0  0.19169  0.74341  0.66318  1.0000
  H   H264      1.0  0.20408  0.72370  0.89484  1.0000
  H   H265      1.0  0.07912  0.65617  0.44015  1.0000
  H   H266      1.0  0.13263  0.70306  0.24965  1.0000
  C   C155      1.0  0.10544  0.65078  0.24889  1.0000
  C   C156      1.0  0.01422  0.50764  0.90571  1.0000
  H   H267      1.0  0.05599  0.67124  0.28745  1.0000
  C   C157      1.0  0.20781  0.57607  0.66795  1.0000
  H   H268      1.0  0.22268  0.56280  0.72346  1.0000
  C   C158      1.0  0.23890  0.53758  0.70210  1.0000
  C   C159      1.0  0.21949  0.57330  0.73623  1.0000
  H   H269      1.0  0.01322  0.52218  0.95718  1.0000
  H   H270      1.0  0.04254  0.65273  0.23621  1.0000
  H   H271      1.0  0.07530  0.50324  0.84943  1.0000
  C   C160      1.0  0.07436  0.66079  0.41257  1.0000
  H   H272      1.0  0.08348  0.64560  0.37382  1.0000
  C   C161      1.0  0.02801  0.56877  0.45543  1.0000
  H   H273      1.0  0.10543  0.62539  0.26627  1.0000
  H   H274      1.0  0.18435  0.69381  0.76867  1.0000
  H   H275      1.0  0.21109  0.68891  0.75018  1.0000
  C   C162      1.0  0.11453  0.63814  0.25502  1.0000
  C   C163      1.0  0.04971  0.51923  0.70917  1.0000
  C   C164      1.0  0.19163  0.69929  0.73740  1.0000
  C   C165      1.0  0.20273  0.68894  0.72599  1.0000
  H   H276      1.0  0.18275  0.69783  0.71411  1.0000
  C   C166      1.0  0.11416  0.68820  0.30231  1.0000
  C   C167      1.0  0.12717  0.70472  0.28104  1.0000
  H   H277      1.0  0.13743  0.70890  0.30045  1.0000
  H   H278      1.0  0.12351  0.64191  0.27793  1.0000
  H   H279      1.0  0.19283  0.56424  0.72655  1.0000
  H   H280      1.0  0.09299  0.69181  0.27871  1.0000
  S   S45       1.0  0.13717  0.51707  0.60182  1.0000
  H   H281      1.0  0.07799  0.53732  0.52693  1.0000
  H   H282      1.0  0.16817  0.73973  0.79552  1.0000
  H   H283      1.0  0.05999  0.52809  0.24026  1.0000
  C   C168      1.0  0.09238  0.54044  0.98029  1.0000
  H   H284      1.0  0.07460  0.51666  0.51149  1.0000
  H   H285      1.0  0.00268  0.55004  0.62366  1.0000
  H   H286      1.0  0.07652  0.53122  0.16861  1.0000
  H   H287      1.0  0.06568  0.52803  0.97983  1.0000
  H   H288      1.0  0.07256  0.52156  0.36241  1.0000
  H   H289      1.0  0.01451  0.51114  0.23332  1.0000
  H   H290      1.0  0.17251  0.73703  0.72897  1.0000
  H   H291      1.0  0.24526  0.54585  0.67374  1.0000
  S   S46       1.0  0.19032  0.51232  0.75637  1.0000
  H   H292      1.0  0.21584  0.50764  0.80266  1.0000
  H   H293      1.0  0.16833  0.51808  0.49883  1.0000
  H   H294      1.0  0.06998  0.51374  0.25492  1.0000
  H   H295      1.0  0.02514  0.57380  0.42538  1.0000
  H   H296      1.0  0.14153  0.51707  0.95055  1.0000
  H   H297      1.0  0.03710  0.51205  0.11980  1.0000
  H   H298      1.0  0.09084  0.53115  0.92018  1.0000
  C   C169      1.0  0.23213  0.56666  0.79655  1.0000
  C   C170      1.0  0.05768  0.51793  0.66465  1.0000
  H   H299      1.0  0.09582  0.53423  0.60206  1.0000
  H   H300      1.0  0.03952  0.57810  0.46340  1.0000
  H   H301      1.0  0.01373  0.57439  0.03085  1.0000
  H   H302      1.0  0.17490  0.71255  0.79824  1.0000
  C   C171      1.0  0.18388  0.73016  0.67424  1.0000
  H   H303      1.0  0.22664  0.61358  0.84619  1.0000
  H   H304      1.0  0.12095  0.51791  0.52880  1.0000
  H   H305      1.0  0.05169  0.53255  0.71337  1.0000
  C   C172      1.0  0.23604  0.70562  0.95493  1.0000
  H   H306      1.0  0.16196  0.53294  0.93779  1.0000
  H   H307      1.0  0.22685  0.59756  0.78481  1.0000
  H   H308      1.0  0.11577  0.52496  0.93355  1.0000
  H   H309      1.0  0.09411  0.52860  0.99277  1.0000
  H   H310      1.0  0.23214  0.55452  0.78570  1.0000
  C   C173      1.0  0.00662  0.59064  0.12215  1.0000
  C   C174      1.0  0.00709  0.51971  0.92828  1.0000
  C   C175      1.0  0.22222  0.51609  0.77456  1.0000
  C   C176      1.0  0.21422  0.60401  0.85812  1.0000
  H   H311      1.0  0.03966  0.50597  0.27486  1.0000
  C   C177      1.0  0.03889  0.50760  0.30864  1.0000
  H   H312      1.0  0.02688  0.56632  0.99799  1.0000
  C   C178      1.0  0.01352  0.56579  0.49051  1.0000
  H   H313      1.0  0.22942  0.71348  0.94053  1.0000
  H   H314      1.0  0.09709  0.51438  0.65723  1.0000
  H   H315      1.0  0.00937  0.50553  0.87545  1.0000
  C   C179      1.0  0.11352  0.50658  0.54910  1.0000
  H   H316      1.0  0.23138  0.56469  0.83113  1.0000
  H   H317      1.0  0.03828  0.50577  0.88263  1.0000
  Fe  Fe24      1.0  0.03525  0.50374  0.04544  1.0000
  H   H318      1.0  0.24507  0.72113  0.81026  1.0000
  H   H319      1.0  0.06974  0.50675  0.32640  1.0000
  H   H320      1.0  0.22362  0.58352  0.86165  1.0000
  H   H321      1.0  0.22777  0.74470  0.75935  1.0000
  H   H322      1.0  0.16108  0.51486  0.44864  1.0000
  H   H323      1.0  0.15834  0.71889  0.85904  1.0000
  C   C180      1.0  0.03082  0.51003  0.71564  1.0000
  H   H324      1.0  0.00109  0.51820  0.17521  1.0000
  H   H325      1.0  0.00049  0.51548  0.10434  1.0000
  H   H326      1.0  0.00405  0.53677  0.55681  1.0000
  H   H327      1.0  0.16098  0.73411  0.65939  1.0000
  H   H328      1.0  0.14779  0.51826  0.49195  1.0000
  H   H329      1.0  0.05244  0.50470  0.65806  1.0000
  H   H330      1.0  0.17238  0.72801  0.61712  1.0000
  H   H331      1.0  0.21062  0.75035  0.70721  1.0000
  C   C181      1.0  0.21921  0.75176  0.76722  1.0000
  H   H332      1.0  0.24803  0.72425  0.99305  1.0000
  C   C182      1.0  0.09991  0.50192  0.85273  1.0000
  H   H333      1.0  0.23484  0.77421  0.72554  1.0000
  C   C183      1.0  0.22955  0.77046  0.75917  1.0000
  H   H334      1.0  0.22175  0.77812  0.76862  1.0000
  H   H335      1.0  0.19773  0.75636  0.74457  1.0000
  H   H336      1.0  0.24008  0.77313  0.77804  1.0000
  C   C184      1.0  0.24224  0.75417  0.86039  1.0000
  H   H337      1.0  0.22049  0.75331  0.90204  1.0000
  Fe  Fe25      1.0  0.43164  0.06788  0.98698  1.0000
  S   S47       1.0  0.42505  0.06615  0.05704  1.0000
  S   S48       1.0  0.41548  0.07417  0.94164  1.0000
  Fe  Fe26      1.0  0.46241  0.05887  0.99513  1.0000
  S   S49       1.0  0.45848  0.05559  0.06544  1.0000
  Fe  Fe27      1.0  0.43155  0.04240  0.05806  1.0000
  S   S50       1.0  0.41450  0.01881  0.09886  1.0000
  Fe  Fe28      1.0  0.45249  0.07958  0.05932  1.0000
  S   S51       1.0  0.46781  0.10233  0.08891  1.0000
  S   S52       1.0  0.43626  0.04345  0.98821  1.0000
  S   S53       1.0  0.45823  0.08349  0.98872  1.0000
  C   C185      1.0  0.47988  0.12365  0.14664  1.0000
  Fe  Fe29      1.0  0.46535  0.05476  0.68407  1.0000
  S   S54       1.0  0.45445  0.07552  0.67923  1.0000
  Fe  Fe30      1.0  0.43765  0.03017  0.64721  1.0000
  S   S55       1.0  0.42398  0.04843  0.64055  1.0000
  H   H338      1.0  0.44469  0.20587  0.22822  1.0000
  Fe  Fe31      1.0  0.44927  0.06770  0.61548  1.0000
  S   S56       1.0  0.44888  0.08335  0.55496  1.0000
  Fe  Fe32      1.0  0.43038  0.05475  0.70464  1.0000
  S   S57       1.0  0.41087  0.05750  0.75381  1.0000
  S   S58       1.0  0.46251  0.04874  0.61841  1.0000
  S   S59       1.0  0.44168  0.03464  0.71349  1.0000
  C   C186      1.0  0.46472  0.09967  0.52134  1.0000
  C   C187      1.0  0.46076  0.10573  0.48336  1.0000
  C   C188      1.0  0.47288  0.11851  0.45518  1.0000
  H   H339      1.0  0.40625  0.05998  0.50126  1.0000
  C   C189      1.0  0.48097  0.10663  0.53103  1.0000
  C   C190      1.0  0.48706  0.02579  0.07509  1.0000
  H   H340      1.0  0.48418  0.10217  0.56023  1.0000
  H   H341      1.0  0.46965  0.12299  0.42605  1.0000
  C   C191      1.0  0.40680  0.01160  0.93273  1.0000
  H   H342      1.0  0.46881  0.02582  0.48300  1.0000
  C   C192      1.0  0.44213  0.17836  0.28776  1.0000
  S   S60       1.0  0.48427  0.05676  0.95458  1.0000
  H   H343      1.0  0.41284  0.05067  0.54529  1.0000
  Fe  Fe33      1.0  0.48505  0.15211  0.28746  1.0000
  H   H344      1.0  0.46483  0.00717  0.72558  1.0000
  C   C193      1.0  0.46994  0.21770  0.24181  1.0000
  C   C194      1.0  0.43450  0.03805  0.49778  1.0000
  C   C195      1.0  0.41565  0.06976  0.88897  1.0000
  C   C196      1.0  0.40391  0.07340  0.86640  1.0000
  C   C197      1.0  0.40286  0.06967  0.82515  1.0000
  C   C198      1.0  0.41381  0.06260  0.80519  1.0000
  C   C199      1.0  0.42585  0.05910  0.82735  1.0000
  C   C200      1.0  0.42667  0.06256  0.86943  1.0000
  H   H345      1.0  0.39537  0.07896  0.88107  1.0000
  H   H346      1.0  0.39347  0.07233  0.80847  1.0000
  H   H347      1.0  0.43416  0.05336  0.81243  1.0000
  H   H348      1.0  0.43559  0.05948  0.88692  1.0000
  C   C201      1.0  0.46611  0.11046  0.13768  1.0000
  C   C202      1.0  0.45155  0.10465  0.16690  1.0000
  H   H349      1.0  0.44082  0.09459  0.16041  1.0000
  N   N10       1.0  0.45229  0.04045  0.47994  1.0000
  C   C203      1.0  0.48916  0.12536  0.46466  1.0000
  H   H350      1.0  0.45662  0.23544  0.25023  1.0000
  H   H351      1.0  0.43779  0.10663  0.86390  1.0000
  H   H352      1.0  0.48534  0.19645  0.20387  1.0000
  C   C204      1.0  0.45079  0.11210  0.20432  1.0000
  C   C205      1.0  0.48752  0.00852  0.62783  1.0000
  C   C206      1.0  0.47922  0.13083  0.18436  1.0000
  C   C207      1.0  0.40913  0.00252  0.57424  1.0000
  S   S61       1.0  0.48818  0.05581  0.71366  1.0000
  C   C208      1.0  0.44354  0.17895  0.19341  1.0000
  H   H353      1.0  0.46761  0.10863  0.91146  1.0000
  C   C209      1.0  0.46932  0.23554  0.23828  1.0000
  H   H354      1.0  0.49292  0.01182  0.46699  1.0000
  C   C210      1.0  0.47463  0.19071  0.18675  1.0000
  H   H355      1.0  0.47688  0.19959  0.15770  1.0000
  C   C211      1.0  0.45773  0.18028  0.25582  1.0000
  C   C212      1.0  0.47651  0.17412  0.17377  1.0000
  H   H356      1.0  0.46259  0.04517  0.81779  1.0000
  C   C213      1.0  0.48518  0.09776  0.76089  1.0000
  H   H357      1.0  0.49398  0.21770  0.42598  1.0000
  C   C214      1.0  0.48267  0.06525  0.83779  1.0000
  C   C215      1.0  0.47529  0.16636  0.46383  1.0000
  H   H358      1.0  0.48471  0.19665  0.59847  1.0000
  H   H359      1.0  0.44256  0.16547  0.19591  1.0000
  H   H360      1.0  0.39623  0.01451  0.01551  1.0000
  H   H361      1.0  0.40889  0.01453  0.58256  1.0000
  C   C216      1.0  0.38955  0.02333  0.00841  1.0000
  C   C217      1.0  0.37638  0.02118  0.04754  1.0000
  C   C218      1.0  0.46641  0.00585  0.69165  1.0000
  C   C219      1.0  0.47000  0.10500  0.84451  1.0000
  H   H362      1.0  0.49140  0.10296  0.69322  1.0000
  H   H363      1.0  0.41630  0.17212  0.14879  1.0000
  H   H364      1.0  0.44049  0.19062  0.29133  1.0000
  H   H365      1.0  0.42945  0.16045  0.13047  1.0000
  C   C220      1.0  0.47109  0.04698  0.84219  1.0000
  Fe  Fe34      1.0  0.49646  0.18606  0.32461  1.0000
  H   H366      1.0  0.47540  0.01507  0.02197  1.0000
  H   H367      1.0  0.49818  0.01115  0.99435  1.0000
  C   C221      1.0  0.48936  0.18084  0.55198  1.0000
  H   H368      1.0  0.46078  0.10079  0.82225  1.0000
  C   C222      1.0  0.49709  0.01448  0.53164  1.0000
  S   S62       1.0  0.48771  0.20815  0.34041  1.0000
  H   H369      1.0  0.44330  0.00904  0.44866  1.0000
  H   H370      1.0  0.48361  0.01132  0.54325  1.0000
  H   H371      1.0  0.49462  0.12493  0.88216  1.0000
  H   H372      1.0  0.47650  0.11865  0.83427  1.0000
  H   H373      1.0  0.47284  0.24153  0.20523  1.0000
  H   H374      1.0  0.49101  0.02414  0.68000  1.0000
  H   H375      1.0  0.47447  0.16071  0.49638  1.0000
  H   H376      1.0  0.45757  0.16825  0.42118  1.0000
  H   H377      1.0  0.45254  0.08977  0.89940  1.0000
  H   H378      1.0  0.45995  0.21349  0.18348  1.0000
  C   C223      1.0  0.44354  0.17074  0.33108  1.0000
  H   H379      1.0  0.46355  0.04326  0.87381  1.0000
  H   H380      1.0  0.43303  0.03590  0.53274  1.0000
  H   H381      1.0  0.45493  0.02328  0.53021  1.0000
  H   H382      1.0  0.45030  0.16792  0.47600  1.0000
  C   C224      1.0  0.49364  0.10161  0.80096  1.0000
  H   H383      1.0  0.47448  0.10237  0.76029  1.0000
  H   H384      1.0  0.45794  0.16736  0.25350  1.0000
  H   H385      1.0  0.45105  0.14889  0.45612  1.0000
  S   S63       1.0  0.46306  0.13474  0.25993  1.0000
  H   H386      1.0  0.47623  0.16553  0.20172  1.0000
  C   C225      1.0  0.45953  0.10314  0.88791  1.0000
  S   S64       1.0  0.47891  0.15992  0.35055  1.0000
  H   H387      1.0  0.45536  0.00353  0.11036  1.0000
  H   H388      1.0  0.43213  0.16925  0.35308  1.0000
  H   H389      1.0  0.37715  0.04733  0.04072  1.0000
  N   N11       1.0  0.45834  0.18909  0.21287  1.0000
  H   H390      1.0  0.46438  0.03761  0.41988  1.0000
  H   H391      1.0  0.48146  0.15971  0.44305  1.0000
  H   H392      1.0  0.49667  0.00706  0.78198  1.0000
  C   C226      1.0  0.47239  0.07704  0.84533  1.0000
  H   H393      1.0  0.49046  0.01529  0.82863  1.0000
  H   H394      1.0  0.49395  0.18605  0.11684  1.0000
  S   S65       1.0  0.43154  0.00357  0.63142  1.0000
  N   N12       1.0  0.48221  0.09554  0.84206  1.0000
  H   H395      1.0  0.48300  0.21859  0.23137  1.0000
  C   C227      1.0  0.39728  0.02428  0.93267  1.0000
  C   C228      1.0  0.46465  0.12519  0.21331  1.0000
  H   H396      1.0  0.46332  0.07423  0.34765  1.0000
  H   H397      1.0  0.46675  0.21260  0.27549  1.0000
  H   H398      1.0  0.48299  0.02422  0.10950  1.0000
  C   C229      1.0  0.45752  0.20648  0.21547  1.0000
  H   H399      1.0  0.36780  0.03561  0.09147  1.0000
  H   H400      1.0  0.43941  0.10766  0.22643  1.0000
  C   C230      1.0  0.49311  0.17758  0.14570  1.0000
  N   N13       1.0  0.38280  0.02093  0.96715  1.0000
  H   H401      1.0  0.48482  0.09255  0.90807  1.0000
  H   H402      1.0  0.43169  0.17896  0.21123  1.0000
  C   C231      1.0  0.37492  0.03425  0.95912  1.0000
  C   C232      1.0  0.49000  0.18637  0.59582  1.0000
  H   H403      1.0  0.49399  0.16559  0.13619  1.0000
  H   H404      1.0  0.47834  0.24326  0.25731  1.0000
  C   C233      1.0  0.36813  0.03510  0.91652  1.0000
  H   H405      1.0  0.45320  0.12580  0.87482  1.0000
  H   H406      1.0  0.47986  0.01478  0.61151  1.0000
  C   C234      1.0  0.45462  0.04269  0.43249  1.0000
  H   H407      1.0  0.46915  0.18669  0.26995  1.0000
  C   C235      1.0  0.35779  0.04676  0.91552  1.0000
  H   H408      1.0  0.39947  0.03590  0.00619  1.0000
  H   H409      1.0  0.37831  0.01258  0.07289  1.0000
  H   H410      1.0  0.47864  0.03867  0.83827  1.0000
  H   H411      1.0  0.40652  0.03701  0.93326  1.0000
  H   H412      1.0  0.38404  0.04694  0.96106  1.0000
  H   H413      1.0  0.36427  0.03250  0.98394  1.0000
  H   H414      1.0  0.42557  0.02669  0.48790  1.0000
  H   H415      1.0  0.48993  0.06826  0.80595  1.0000
  H   H416      1.0  0.45451  0.17909  0.34356  1.0000
  H   H417      1.0  0.46292  0.07467  0.82323  1.0000
  H   H418      1.0  0.36335  0.01523  0.04133  1.0000
  H   H419      1.0  0.44821  0.10048  0.47565  1.0000
  H   H420      1.0  0.39306  0.02435  0.90134  1.0000
  H   H421      1.0  0.37857  0.04030  0.89032  1.0000
  H   H422      1.0  0.42816  0.00776  0.89815  1.0000
  H   H423      1.0  0.49148  0.07811  0.63824  1.0000
  H   H424      1.0  0.43065  0.16984  0.27771  1.0000
  C   C236      1.0  0.49374  0.07436  0.49918  1.0000
  C   C237      1.0  0.44681  0.11221  0.88557  1.0000
  H   H425      1.0  0.44476  0.15815  0.32948  1.0000
  H   H426      1.0  0.48458  0.02087  0.77891  1.0000
  H   H427      1.0  0.46515  0.07256  0.87720  1.0000
  C   C238      1.0  0.37796  0.03774  0.06508  1.0000
  C   C239      1.0  0.48496  0.01088  0.67492  1.0000
  C   C240      1.0  0.44308  0.18515  0.14714  1.0000
  H   H428      1.0  0.36544  0.05959  0.92113  1.0000
  H   H429      1.0  0.35361  0.04763  0.88423  1.0000
  H   H430      1.0  0.34656  0.04187  0.93970  1.0000
  C   C241      1.0  0.46389  0.05504  0.49781  1.0000
  C   C242      1.0  0.45991  0.06094  0.41002  1.0000
  C   C243      1.0  0.48274  0.05711  0.49030  1.0000
  C   C244      1.0  0.42774  0.05231  0.48508  1.0000
  C   C245      1.0  0.45916  0.06105  0.36294  1.0000
  C   C246      1.0  0.49464  0.01818  0.79430  1.0000
  H   H431      1.0  0.46030  0.05389  0.53226  1.0000
  H   H432      1.0  0.46253  0.06711  0.48613  1.0000
  H   H433      1.0  0.47297  0.06816  0.41403  1.0000
  H   H434      1.0  0.45189  0.06787  0.42237  1.0000
  H   H435      1.0  0.48523  0.04760  0.51188  1.0000
  H   H436      1.0  0.48662  0.05541  0.45760  1.0000
  H   H437      1.0  0.43642  0.06483  0.48895  1.0000
  H   H438      1.0  0.42551  0.05221  0.45182  1.0000
  H   H439      1.0  0.40169  0.03753  0.50883  1.0000
  H   H440      1.0  0.46750  0.05474  0.34856  1.0000
  H   H441      1.0  0.44615  0.05462  0.35696  1.0000
  H   H442      1.0  0.45272  0.01840  0.07057  1.0000
  H   H443      1.0  0.48884  0.08009  0.01618  1.0000
  H   H444      1.0  0.45459  0.18603  0.12644  1.0000
  C   C247      1.0  0.48536  0.18549  0.45631  1.0000
  H   H445      1.0  0.47599  0.23452  0.36627  1.0000
  C   C248      1.0  0.41109  0.04989  0.51179  1.0000
  H   H446      1.0  0.42811  0.17788  0.09700  1.0000
  C   C249      1.0  0.45746  0.16270  0.45361  1.0000
  C   C250      1.0  0.49313  0.11939  0.50275  1.0000
  C   C251      1.0  0.49754  0.10635  0.72146  1.0000
  H   H447      1.0  0.46644  0.16740  0.15606  1.0000
  H   H448      1.0  0.43966  0.11084  0.91719  1.0000
  C   C252      1.0  0.45581  0.02477  0.49526  1.0000
  H   H449      1.0  0.39010  0.04256  0.07733  1.0000
  H   H450      1.0  0.44293  0.03510  0.42108  1.0000
  H   H451      1.0  0.44167  0.19772  0.14474  1.0000
  H   H452      1.0  0.48985  0.14093  0.19090  1.0000
  H   H453      1.0  0.36013  0.02252  0.91046  1.0000
  H   H454      1.0  0.47701  0.19235  0.46790  1.0000
  C   C253      1.0  0.42831  0.17314  0.12996  1.0000
  H   H455      1.0  0.35709  0.00379  0.97794  1.0000
  C   C254      1.0  0.49580  0.23052  0.32621  1.0000
  H   H456      1.0  0.41797  0.01904  0.86702  1.0000
  C   C255      1.0  0.42190  0.01734  0.89834  1.0000
  H   H457      1.0  0.39507  0.01088  0.71616  1.0000
  H   H458      1.0  0.43171  0.00421  0.50043  1.0000
  C   C256      1.0  0.44439  0.00799  0.48260  1.0000
  H   H459      1.0  0.48474  0.03735  0.06291  1.0000
  C   C257      1.0  0.48728  0.24051  0.34433  1.0000
  H   H460      1.0  0.48053  0.08406  0.75878  1.0000
  H   H461      1.0  0.48749  0.18860  0.42148  1.0000
  C   C258      1.0  0.47486  0.01130  0.05597  1.0000
  C   C259      1.0  0.36989  0.00376  0.96710  1.0000
  H   H462      1.0  0.42654  0.00651  0.02440  1.0000
  H   H463      1.0  0.49444  0.17040  0.55156  1.0000
  H   H464      1.0  0.48251  0.17559  0.61952  1.0000
  H   H465      1.0  0.49111  0.12833  0.12409  1.0000
  H   H466      1.0  0.47599  0.17616  0.54746  1.0000
  H   H467      1.0  0.49043  0.07627  0.53214  1.0000
  H   H468      1.0  0.46084  0.01420  0.67503  1.0000
  C   C260      1.0  0.49268  0.09844  0.87743  1.0000
  H   H469      1.0  0.43109  0.02937  0.90417  1.0000
  H   H470      1.0  0.49151  0.06610  0.86102  1.0000
  H   H471      1.0  0.49210  0.20461  0.51908  1.0000
  H   H472      1.0  0.49217  0.08445  0.47758  1.0000
  H   H473      1.0  0.41151  0.01014  0.96289  1.0000
  C   C261      1.0  0.45678  0.00735  0.07607  1.0000
  H   H474      1.0  0.49023  0.00294  0.69410  1.0000
  Fe  Fe35      1.0  0.46541  0.42240  0.03518  1.0000
  H   H475      1.0  0.46095  0.46625  0.69289  1.0000
  Fe  Fe36      1.0  0.43351  0.39833  0.01722  1.0000
  S   S66       1.0  0.44604  0.38217  0.98492  1.0000
  S   S67       1.0  0.40558  0.39152  0.02471  1.0000
  Fe  Fe37      1.0  0.46171  0.38548  0.03768  1.0000
  S   S68       1.0  0.47304  0.36638  0.06172  1.0000
  Fe  Fe38      1.0  0.46440  0.40676  0.95338  1.0000
  S   S69       1.0  0.47765  0.41129  0.88661  1.0000
  S   S70       1.0  0.44728  0.39917  0.07309  1.0000
  S   S71       1.0  0.45070  0.42267  0.98181  1.0000
  Fe  Fe39      1.0  0.37690  0.47035  0.05609  1.0000
  S   S72       1.0  0.35726  0.48192  0.07409  1.0000
  S   S73       1.0  0.36664  0.44295  0.04792  1.0000
  H   H476      1.0  0.46409  0.36750  0.73310  1.0000
  S   S74       1.0  0.48480  0.31357  0.33537  1.0000
  C   C262      1.0  0.41522  0.49099  0.59929  1.0000
  H   H477      1.0  0.48498  0.36696  0.72110  1.0000
  H   H478      1.0  0.44456  0.47159  0.66992  1.0000
  C   C263      1.0  0.30675  0.46724  0.03992  1.0000
  S   S75       1.0  0.39236  0.48074  0.10609  1.0000
  S   S76       1.0  0.39129  0.49104  0.00432  1.0000
  H   H479      1.0  0.47720  0.35439  0.40502  1.0000
  H   H480      1.0  0.35615  0.41732  0.12451  1.0000
  Fe  Fe40      1.0  0.46626  0.43084  0.58993  1.0000
  S   S77       1.0  0.44517  0.40631  0.60325  1.0000
  S   S78       1.0  0.46493  0.45501  0.55851  1.0000
  Fe  Fe41      1.0  0.45536  0.40283  0.66365  1.0000
  S   S79       1.0  0.43978  0.39485  0.72786  1.0000
  Fe  Fe42      1.0  0.46368  0.39536  0.57368  1.0000
  S   S80       1.0  0.45713  0.38189  0.51663  1.0000
  S   S81       1.0  0.47471  0.42847  0.65250  1.0000
  H   H481      1.0  0.42815  0.48748  0.13090  1.0000
  H   H482      1.0  0.35999  0.45255  0.64433  1.0000
  H   H483      1.0  0.37593  0.49933  0.86239  1.0000
  Fe  Fe43      1.0  0.38717  0.47211  0.49983  1.0000
  S   S82       1.0  0.36254  0.46649  0.47555  1.0000
  S   S83       1.0  0.39093  0.45240  0.54512  1.0000
  Fe  Fe44      1.0  0.37763  0.47909  0.41325  1.0000
  S   S84       1.0  0.37585  0.46611  0.35440  1.0000
  H   H484      1.0  0.44153  0.46479  0.02765  1.0000
  N   N14       1.0  0.48965  0.49978  0.03608  1.0000
  S   S85       1.0  0.40220  0.48280  0.43699  1.0000
  C   C264      1.0  0.35869  0.46509  0.63831  1.0000
  H   H485      1.0  0.36695  0.49588  0.33409  1.0000
  H   H486      1.0  0.43919  0.45083  0.12212  1.0000
  C   C265      1.0  0.45749  0.48602  0.05469  1.0000
  C   C266      1.0  0.46821  0.36913  0.49685  1.0000
  H   H487      1.0  0.44582  0.48041  0.31574  1.0000
  H   H488      1.0  0.28932  0.47619  0.98608  1.0000
  C   C267      1.0  0.48315  0.34949  0.50704  1.0000
  C   C268      1.0  0.44748  0.36093  0.89042  1.0000
  H   H489      1.0  0.43878  0.50146  0.55786  1.0000
  H   H490      1.0  0.49431  0.45986  0.85519  1.0000
  C   C269      1.0  0.44447  0.45500  0.55666  1.0000
  C   C270      1.0  0.43097  0.44309  0.58259  1.0000
  C   C271      1.0  0.41460  0.44253  0.57903  1.0000
  C   C272      1.0  0.41164  0.45393  0.54968  1.0000
  C   C273      1.0  0.42514  0.46618  0.52450  1.0000
  C   C274      1.0  0.44156  0.46675  0.52813  1.0000
  H   H491      1.0  0.43313  0.43427  0.60540  1.0000
  H   H492      1.0  0.40418  0.43313  0.59886  1.0000
  H   H493      1.0  0.42295  0.47515  0.50214  1.0000
  H   H494      1.0  0.45199  0.47609  0.50824  1.0000
  C   C275      1.0  0.49757  0.45223  0.05051  1.0000
  C   C276      1.0  0.37405  0.47716  0.23073  1.0000
  C   C277      1.0  0.37597  0.46948  0.26928  1.0000
  C   C278      1.0  0.37339  0.47617  0.30674  1.0000
  H   H495      1.0  0.47159  0.49179  0.99248  1.0000
  H   H496      1.0  0.25749  0.48569  0.70455  1.0000
  H   H497      1.0  0.37587  0.47183  0.20211  1.0000
  H   H498      1.0  0.37933  0.45825  0.27014  1.0000
  H   H499      1.0  0.27969  0.48959  0.69461  1.0000
  H   H500      1.0  0.47840  0.41565  0.19884  1.0000
  H   H501      1.0  0.36277  0.49855  0.66513  1.0000
  C   C279      1.0  0.47483  0.36032  0.78719  1.0000
  H   H502      1.0  0.40030  0.47173  0.72856  1.0000
  C   C280      1.0  0.46666  0.40871  0.84270  1.0000
  C   C281      1.0  0.47580  0.41197  0.80242  1.0000
  C   C282      1.0  0.46762  0.40832  0.76697  1.0000
  C   C283      1.0  0.45019  0.40119  0.77147  1.0000
  C   C284      1.0  0.44098  0.39843  0.81163  1.0000
  C   C285      1.0  0.44917  0.40238  0.84709  1.0000
  C   C286      1.0  0.43205  0.47448  0.32323  1.0000
  H   H503      1.0  0.47484  0.41049  0.73629  1.0000
  H   H504      1.0  0.42748  0.39306  0.81537  1.0000
  H   H505      1.0  0.44197  0.40007  0.87790  1.0000
  C   C287      1.0  0.47284  0.36080  0.11588  1.0000
  C   C288      1.0  0.48259  0.35124  0.12841  1.0000
  C   C289      1.0  0.48266  0.34652  0.17125  1.0000
  C   C290      1.0  0.49057  0.49435  0.08129  1.0000
  C   C291      1.0  0.39158  0.46679  0.66771  1.0000
  C   C292      1.0  0.46311  0.36559  0.14652  1.0000
  H   H506      1.0  0.48650  0.26564  0.34890  1.0000
  H   H507      1.0  0.33907  0.39961  0.15154  1.0000
  C   C293      1.0  0.46936  0.48288  0.63373  1.0000
  C   C294      1.0  0.39592  0.40694  0.02811  1.0000
  C   C295      1.0  0.37848  0.40151  0.03196  1.0000
  C   C296      1.0  0.36992  0.41285  0.03725  1.0000
  C   C297      1.0  0.37863  0.42982  0.03919  1.0000
  C   C298      1.0  0.39618  0.43547  0.03523  1.0000
  C   C299      1.0  0.40485  0.42402  0.02941  1.0000
  H   H508      1.0  0.37149  0.38839  0.03098  1.0000
  H   H509      1.0  0.35640  0.40839  0.04021  1.0000
  H   H510      1.0  0.40300  0.44859  0.03659  1.0000
  H   H511      1.0  0.41835  0.42833  0.02632  1.0000
  H   H512      1.0  0.41214  0.37695  0.59551  1.0000
  N   N15       1.0  0.46051  0.35610  0.86433  1.0000
  H   H513      1.0  0.30981  0.49427  0.12093  1.0000
  Fe  Fe45      1.0  0.37412  0.49417  0.11964  1.0000
  S   S86       1.0  0.49326  0.33293  0.44585  1.0000
  C   C300      1.0  0.41141  0.40940  0.13508  1.0000
  H   H514      1.0  0.37123  0.47819  0.71134  1.0000
  H   H515      1.0  0.45703  0.47809  0.08420  1.0000
  S   S87       1.0  0.47176  0.38925  0.63559  1.0000
  H   H516      1.0  0.31694  0.44173  0.00867  1.0000
  H   H517      1.0  0.43491  0.30437  0.89516  1.0000
  C   C301      1.0  0.40495  0.46878  0.69779  1.0000
  C   C302      1.0  0.38016  0.38580  0.23403  1.0000
  H   H518      1.0  0.43273  0.47624  0.39009  1.0000
  C   C303      1.0  0.39486  0.35550  0.12498  1.0000
  C   C304      1.0  0.40881  0.45251  0.70553  1.0000
  N   N16       1.0  0.38822  0.48260  0.65346  1.0000
  H   H519      1.0  0.40380  0.34856  0.12709  1.0000
  H   H520      1.0  0.35295  0.49139  0.94233  1.0000
  H   H521      1.0  0.47437  0.47521  0.02357  1.0000
  S   S88       1.0  0.47181  0.34499  0.25609  1.0000
  S   S89       1.0  0.34185  0.49642  0.52660  1.0000
  C   C305      1.0  0.33581  0.49607  0.90201  1.0000
  H   H522      1.0  0.42511  0.49541  0.34122  1.0000
  C   C306      1.0  0.32031  0.49532  0.09639  1.0000
  H   H523      1.0  0.38957  0.39511  0.29092  1.0000
  C   C307      1.0  0.44173  0.47734  0.03555  1.0000
  H   H524      1.0  0.46468  0.33055  0.92446  1.0000
  C   C308      1.0  0.44698  0.30845  0.90802  1.0000
  H   H525      1.0  0.35224  0.46135  0.57531  1.0000
  H   H526      1.0  0.26947  0.47720  0.15230  1.0000
  H   H527      1.0  0.47315  0.37680  0.93185  1.0000
  H   H528      1.0  0.37079  0.39228  0.23609  1.0000
  H   H529      1.0  0.44315  0.32987  0.93157  1.0000
  N   N17       1.0  0.42851  0.49828  0.27311  1.0000
  C   C309      1.0  0.38423  0.38294  0.27846  1.0000
  H   H530      1.0  0.35883  0.38720  0.17946  1.0000
  H   H531      1.0  0.33048  0.45114  0.04611  1.0000
  C   C310      1.0  0.39600  0.39681  0.20415  1.0000
  C   C311      1.0  0.37600  0.47862  0.62212  1.0000
  H   H532      1.0  0.44109  0.48512  0.00682  1.0000
  H   H533      1.0  0.40290  0.36893  0.17670  1.0000
  H   H534      1.0  0.37458  0.37328  0.22374  1.0000
  H   H535      1.0  0.41388  0.37909  0.12564  1.0000
  H   H536      1.0  0.47482  0.36193  0.55622  1.0000
  C   C312      1.0  0.35222  0.40762  0.15232  1.0000
  S   S90       1.0  0.38762  0.49706  0.51828  1.0000
  H   H537      1.0  0.27954  0.45269  0.09906  1.0000
  H   H538      1.0  0.29619  0.45650  0.03254  1.0000
  H   H539      1.0  0.49598  0.37434  0.96852  1.0000
  H   H540      1.0  0.35275  0.41391  0.18122  1.0000
  C   C313      1.0  0.47691  0.35616  0.43783  1.0000
  H   H541      1.0  0.48838  0.34252  0.52782  1.0000
  C   C314      1.0  0.34672  0.46379  0.60578  1.0000
  H   H542      1.0  0.35870  0.49834  0.74300  1.0000
  N   N18       1.0  0.39437  0.39879  0.15810  1.0000
  H   H543      1.0  0.31951  0.46998  0.97557  1.0000
  H   H544      1.0  0.41423  0.46047  0.37767  1.0000
  H   H545      1.0  0.37999  0.45718  0.68489  1.0000
  H   H546      1.0  0.39732  0.44195  0.71936  1.0000
  C   C315      1.0  0.38118  0.48874  0.69118  1.0000
  H   H547      1.0  0.46353  0.37676  0.81707  1.0000
  C   C316      1.0  0.47553  0.36053  0.52316  1.0000
  H   H548      1.0  0.48047  0.49641  0.10240  1.0000
  H   H549      1.0  0.39325  0.37604  0.27874  1.0000
  N   N19       1.0  0.30158  0.48265  0.04073  1.0000
  H   H550      1.0  0.33844  0.45453  0.99122  1.0000
  H   H551      1.0  0.38253  0.34748  0.14232  1.0000
  C   C317      1.0  0.34645  0.49983  0.93309  1.0000
  H   H552      1.0  0.41953  0.48098  0.61281  1.0000
  H   H553      1.0  0.44486  0.33192  0.85032  1.0000
  H   H554      1.0  0.46620  0.33416  0.84831  1.0000
  H   H555      1.0  0.37403  0.49020  0.60859  1.0000
  H   H556      1.0  0.29139  0.49645  0.58470  1.0000
  H   H557      1.0  0.27439  0.47387  0.05365  1.0000
  C   C318      1.0  0.40405  0.49629  0.63260  1.0000
  H   H558      1.0  0.44928  0.35740  0.80719  1.0000
  H   H559      1.0  0.46319  0.37340  0.43362  1.0000
  H   H560      1.0  0.28452  0.49044  0.08204  1.0000
  H   H561      1.0  0.39101  0.49351  0.71158  1.0000
  H   H562      1.0  0.40945  0.48040  0.31922  1.0000
  H   H563      1.0  0.45645  0.30503  0.88795  1.0000
  C   C319      1.0  0.36343  0.39681  0.15173  1.0000
  H   H564      1.0  0.41816  0.45405  0.72771  1.0000
  H   H565      1.0  0.49010  0.33904  0.18057  1.0000
  H   H566      1.0  0.48004  0.43060  0.15378  1.0000
  H   H567      1.0  0.43472  0.47407  0.16611  1.0000
  H   H568      1.0  0.35274  0.46795  0.66752  1.0000
  H   H569      1.0  0.44635  0.35633  0.92405  1.0000
  H   H570      1.0  0.33393  0.48458  0.88789  1.0000
  H   H571      1.0  0.39362  0.35798  0.09135  1.0000
  H   H572      1.0  0.41294  0.47253  0.17062  1.0000
  C   C320      1.0  0.47359  0.48804  0.02459  1.0000
  C   C321      1.0  0.26716  0.46495  0.13978  1.0000
  H   H573      1.0  0.44402  0.43191  0.13273  1.0000
  C   C322      1.0  0.45618  0.46857  0.66310  1.0000
  H   H574      1.0  0.29312  0.46779  0.12668  1.0000
  H   H575      1.0  0.39499  0.46087  0.64017  1.0000
  C   C323      1.0  0.28604  0.49451  0.52174  1.0000
  H   H576      1.0  0.29264  0.48534  0.51709  1.0000
  H   H577      1.0  0.27250  0.48744  0.53110  1.0000
  C   C324      1.0  0.32725  0.45305  0.01407  1.0000
  C   C325      1.0  0.36673  0.49811  0.26702  1.0000
  Fe  Fe46      1.0  0.49078  0.41518  0.62202  1.0000
  S   S91       1.0  0.36555  0.50077  0.18240  1.0000
  H   H578      1.0  0.32043  0.49659  0.60098  1.0000
  H   H579      1.0  0.48630  0.39699  0.15249  1.0000
  H   H580      1.0  0.36174  0.39013  0.12342  1.0000
  C   C326      1.0  0.47757  0.36403  0.87781  1.0000
  H   H581      1.0  0.34386  0.47558  0.60116  1.0000
  C   C327      1.0  0.49606  0.37213  0.93508  1.0000
  C   C328      1.0  0.47736  0.41713  0.16486  1.0000
  C   C329      1.0  0.42929  0.49467  0.19366  1.0000
  H   H582      1.0  0.45547  0.37284  0.13729  1.0000
  C   C330      1.0  0.43526  0.43726  0.11858  1.0000
  C   C331      1.0  0.29830  0.48732  0.99709  1.0000
  S   S92       1.0  0.48430  0.42017  0.55793  1.0000
  C   C332      1.0  0.46896  0.36693  0.45413  1.0000
  H   H583      1.0  0.42124  0.40455  0.14504  1.0000
  H   H584      1.0  0.37260  0.37531  0.29949  1.0000
  H   H585      1.0  0.38298  0.41754  0.17140  1.0000
  C   C333      1.0  0.47386  0.49951  0.65380  1.0000
  S   S93       1.0  0.47626  0.44463  0.06888  1.0000
  H   H586      1.0  0.33481  0.45333  0.61681  1.0000
  H   H587      1.0  0.43398  0.45689  0.37356  1.0000
  H   H588      1.0  0.49434  0.44435  0.98933  1.0000
  C   C334      1.0  0.46137  0.36306  0.81922  1.0000
  H   H589      1.0  0.43615  0.43594  0.08455  1.0000
  H   H590      1.0  0.30993  0.49099  0.97426  1.0000
  Fe  Fe47      1.0  0.49097  0.33638  0.28704  1.0000
  C   C335      1.0  0.45290  0.32737  0.91043  1.0000
  H   H591      1.0  0.41183  0.40849  0.10086  1.0000
  H   H592      1.0  0.46433  0.41000  0.16034  1.0000
  C   C336      1.0  0.36920  0.49138  0.22959  1.0000
  H   H593      1.0  0.45527  0.36423  0.21282  1.0000
  H   H594      1.0  0.41714  0.43047  0.17371  1.0000
  H   H595      1.0  0.25575  0.46205  0.12402  1.0000
  C   C337      1.0  0.45602  0.33731  0.86628  1.0000
  C   C338      1.0  0.38211  0.40776  0.14991  1.0000
  S   S94       1.0  0.48098  0.40892  0.00382  1.0000
  H   H596      1.0  0.41317  0.47728  0.24545  1.0000
  C   C339      1.0  0.42954  0.35494  0.87825  1.0000
  H   H597      1.0  0.38125  0.47390  0.59494  1.0000
  H   H598      1.0  0.26491  0.45504  0.16656  1.0000
  C   C340      1.0  0.41725  0.35886  0.91019  1.0000
  C   C341      1.0  0.38930  0.38212  0.14078  1.0000
  H   H599      1.0  0.45157  0.37482  0.88919  1.0000
  C   C342      1.0  0.42605  0.48130  0.16364  1.0000
  H   H600      1.0  0.38777  0.38414  0.10716  1.0000
  H   H601      1.0  0.43047  0.47565  0.05836  1.0000
  H   H602      1.0  0.47562  0.49653  0.68688  1.0000
  C   C343      1.0  0.40142  0.37201  0.14362  1.0000
  C   C344      1.0  0.41737  0.42843  0.14027  1.0000
  H   H603      1.0  0.42919  0.36150  0.84738  1.0000
  H   H604      1.0  0.42492  0.34120  0.87696  1.0000
  H   H605      1.0  0.37685  0.37365  0.15615  1.0000
  H   H606      1.0  0.40940  0.43477  0.12591  1.0000
  H   H607      1.0  0.48832  0.48061  0.08624  1.0000
  C   C345      1.0  0.32225  0.46873  0.00827  1.0000
  H   H608      1.0  0.42112  0.37258  0.91215  1.0000
  H   H609      1.0  0.40458  0.35472  0.90045  1.0000
  H   H610      1.0  0.41653  0.35218  0.94176  1.0000
  H   H611      1.0  0.38544  0.41464  0.11760  1.0000
  H   H612      1.0  0.39982  0.40926  0.21592  1.0000
  N   N20       1.0  0.41707  0.40941  0.48459  1.0000
  C   C346      1.0  0.43294  0.42437  0.47321  1.0000
  C   C347      1.0  0.40191  0.41490  0.48341  1.0000
  C   C348      1.0  0.41686  0.40219  0.52908  1.0000
  C   C349      1.0  0.41639  0.39574  0.45702  1.0000
  C   C350      1.0  0.41876  0.40085  0.40913  1.0000
  C   C351      1.0  0.44955  0.42089  0.47621  1.0000
  C   C352      1.0  0.40052  0.38796  0.54943  1.0000
  C   C353      1.0  0.40327  0.42966  0.44983  1.0000
  C   C354      1.0  0.38611  0.43111  0.44564  1.0000
  C   C355      1.0  0.41988  0.38633  0.38528  1.0000
  C   C356      1.0  0.46464  0.43608  0.45662  1.0000
  C   C357      1.0  0.40179  0.38213  0.59462  1.0000
  H   H613      1.0  0.43273  0.43416  0.49396  1.0000
  H   H614      1.0  0.43383  0.43054  0.44110  1.0000
  H   H615      1.0  0.39069  0.40403  0.48004  1.0000
  H   H616      1.0  0.39876  0.41930  0.51382  1.0000
  H   H617      1.0  0.41930  0.41233  0.54982  1.0000
  H   H618      1.0  0.42709  0.39684  0.53084  1.0000
  H   H619      1.0  0.42574  0.38965  0.46392  1.0000
  H   H620      1.0  0.40412  0.38542  0.46448  1.0000
  H   H621      1.0  0.43040  0.41162  0.39836  1.0000
  H   H622      1.0  0.40784  0.40397  0.40025  1.0000
  H   H623      1.0  0.45103  0.41827  0.50953  1.0000
  H   H624      1.0  0.45003  0.41006  0.45979  1.0000
  H   H625      1.0  0.39811  0.37686  0.53206  1.0000
  H   H626      1.0  0.38954  0.39223  0.55025  1.0000
  H   H627      1.0  0.41125  0.44169  0.45923  1.0000
  H   H628      1.0  0.40886  0.42835  0.41848  1.0000
  H   H629      1.0  0.38752  0.44236  0.42346  1.0000
  H   H630      1.0  0.37799  0.41985  0.43346  1.0000
  H   H631      1.0  0.37987  0.43245  0.47641  1.0000
  H   H632      1.0  0.43090  0.38286  0.39215  1.0000
  H   H633      1.0  0.40838  0.37515  0.39414  1.0000
  H   H634      1.0  0.42129  0.39014  0.35101  1.0000
  H   H635      1.0  0.47633  0.43364  0.46189  1.0000
  H   H636      1.0  0.46457  0.43842  0.42233  1.0000
  H   H637      1.0  0.46457  0.44746  0.47117  1.0000
  H   H638      1.0  0.40401  0.39273  0.61386  1.0000
  H   H639      1.0  0.38994  0.37211  0.60870  1.0000
  C   C358      1.0  0.47816  0.36666  0.92478  1.0000
  H   H640      1.0  0.30940  0.46319  0.07116  1.0000
  C   C359      1.0  0.47278  0.35115  0.20189  1.0000
  H   H641      1.0  0.44509  0.30161  0.93997  1.0000
  H   H642      1.0  0.47126  0.34685  0.78251  1.0000
  H   H643      1.0  0.47071  0.35523  0.94631  1.0000
  C   C360      1.0  0.46302  0.36070  0.18929  1.0000
  H   H644      1.0  0.40629  0.39184  0.20915  1.0000
  C   C361      1.0  0.48383  0.34720  0.46439  1.0000
  H   H645      1.0  0.45311  0.45683  0.64808  1.0000
  H   H646      1.0  0.33317  0.47962  0.01234  1.0000
  H   H647      1.0  0.49404  0.49526  0.94913  1.0000
  C   C362      1.0  0.36898  0.49065  0.30543  1.0000
  H   H648      1.0  0.48696  0.41080  0.10691  1.0000
  H   H649      1.0  0.48180  0.38397  0.74629  1.0000
  H   H650      1.0  0.41405  0.44931  0.67569  1.0000
  C   C363      1.0  0.28546  0.47873  0.07044  1.0000
  H   H651      1.0  0.48589  0.35674  0.86930  1.0000
  H   H652      1.0  0.40421  0.50001  0.26599  1.0000
  C   C364      1.0  0.42616  0.48655  0.23973  1.0000
  H   H653      1.0  0.48034  0.47895  0.62609  1.0000
  H   H654      1.0  0.43471  0.47915  0.24129  1.0000
  C   C365      1.0  0.49323  0.25823  0.33456  1.0000
  H   H655      1.0  0.48392  0.37689  0.86051  1.0000
  C   C366      1.0  0.42797  0.46657  0.36899  1.0000
  Fe  Fe48      1.0  0.36405  0.49247  0.48960  1.0000
  C   C367      1.0  0.31514  0.49745  0.05235  1.0000
  C   C368      1.0  0.26993  0.49562  0.69563  1.0000
  H   H656      1.0  0.48735  0.36426  0.79765  1.0000
  H   H657      1.0  0.27306  0.49144  0.95125  1.0000
  C   C369      1.0  0.28225  0.46540  0.10923  1.0000
  C   C370      1.0  0.48942  0.41031  0.14008  1.0000
  C   C371      1.0  0.47646  0.37029  0.74441  1.0000
  H   H658      1.0  0.42775  0.46407  0.30383  1.0000
  H   H659      1.0  0.41685  0.47894  0.68516  1.0000
  H   H660      1.0  0.26717  0.49580  0.63051  1.0000
  H   H661      1.0  0.45719  0.49835  0.06288  1.0000
  H   H662      1.0  0.32412  0.48412  0.10120  1.0000
  H   H663      1.0  0.46405  0.48446  0.60427  1.0000
  H   H664      1.0  0.48927  0.41699  0.79864  1.0000
  H   H665      1.0  0.49005  0.34735  0.10492  1.0000
  C   C372      1.0  0.42312  0.48747  0.31515  1.0000
  H   H666      1.0  0.40831  0.48630  0.57317  1.0000
  H   H667      1.0  0.32651  0.50123  0.02862  1.0000
  H   H668      1.0  0.28189  0.50177  0.01762  1.0000
  S   S95       1.0  0.47047  0.60951  0.19256  1.0000
  H   H669      1.0  0.47338  0.65566  0.96225  1.0000
  Fe  Fe49      1.0  0.47021  0.58331  0.18647  1.0000
  S   S96       1.0  0.44555  0.56233  0.19539  1.0000
  N   N21       1.0  0.27968  0.74176  0.94300  1.0000
  S   S97       1.0  0.44234  0.56295  0.60180  1.0000
  S   S98       1.0  0.47842  0.60105  0.54211  1.0000
  C   C373      1.0  0.31566  0.55238  0.61587  1.0000
  S   S99       1.0  0.42333  0.53018  0.43760  1.0000
  C   C374      1.0  0.41677  0.57819  0.05963  1.0000
  Fe  Fe50      1.0  0.44175  0.65065  0.91125  1.0000
  S   S100      1.0  0.46159  0.67458  0.88075  1.0000
  S   S101      1.0  0.43725  0.63857  0.97886  1.0000
  Fe  Fe51      1.0  0.42572  0.64379  0.83021  1.0000
  S   S102      1.0  0.44404  0.66769  0.79404  1.0000
  S   S103      1.0  0.41033  0.62270  0.79662  1.0000
  Fe  Fe52      1.0  0.46327  0.66024  0.82539  1.0000
  H   H670      1.0  0.33143  0.52207  0.10099  1.0000
  Fe  Fe53      1.0  0.44072  0.68034  0.85208  1.0000
  S   S104      1.0  0.43392  0.70449  0.85619  1.0000
  S   S105      1.0  0.44522  0.63603  0.85888  1.0000
  S   S106      1.0  0.42061  0.65666  0.88549  1.0000
  Fe  Fe54      1.0  0.31348  0.52447  0.80621  1.0000
  S   S107      1.0  0.33776  0.54523  0.78489  1.0000
  C   C375      1.0  0.24842  0.53292  0.73088  1.0000
  Fe  Fe55      1.0  0.29379  0.53979  0.74988  1.0000
  S   S108      1.0  0.31730  0.56168  0.72416  1.0000
  S   S109      1.0  0.27076  0.54080  0.71916  1.0000
  Fe  Fe56      1.0  0.33049  0.54273  0.72035  1.0000
  S   S110      1.0  0.35171  0.54468  0.66927  1.0000
  Fe  Fe57      1.0  0.32273  0.56232  0.79049  1.0000
  S   S111      1.0  0.33181  0.58619  0.82105  1.0000
  S   S112      1.0  0.30692  0.52078  0.74090  1.0000
  S   S113      1.0  0.29854  0.54169  0.81716  1.0000
  H   H671      1.0  0.33855  0.57260  0.62068  1.0000
  H   H672      1.0  0.27150  0.57370  0.54940  1.0000
  H   H673      1.0  0.36250  0.51861  0.71452  1.0000
  H   H674      1.0  0.44810  0.52571  0.21249  1.0000
  C   C376      1.0  0.38508  0.51129  0.86884  1.0000
  C   C377      1.0  0.38832  0.61435  0.80128  1.0000
  C   C378      1.0  0.38112  0.60258  0.77455  1.0000
  C   C379      1.0  0.36373  0.59447  0.77913  1.0000
  C   C380      1.0  0.35336  0.59801  0.81072  1.0000
  C   C381      1.0  0.36050  0.61021  0.83660  1.0000
  C   C382      1.0  0.37796  0.61835  0.83199  1.0000
  H   H675      1.0  0.38903  0.59937  0.75084  1.0000
  H   H676      1.0  0.35836  0.58512  0.75902  1.0000
  H   H677      1.0  0.35253  0.61302  0.86107  1.0000
  H   H678      1.0  0.38339  0.62743  0.85267  1.0000
  H   H679      1.0  0.47311  0.52068  0.70660  1.0000
  H   H680      1.0  0.40629  0.50956  0.33321  1.0000
  C   C383      1.0  0.45404  0.62975  0.53413  1.0000
  C   C384      1.0  0.44316  0.72673  0.85718  1.0000
  C   C385      1.0  0.46049  0.73507  0.85203  1.0000
  H   H681      1.0  0.46545  0.55211  0.37229  1.0000
  H   H682      1.0  0.48412  0.51898  0.96687  1.0000
  H   H683      1.0  0.46885  0.72809  0.84583  1.0000
  H   H684      1.0  0.26314  0.56223  0.78852  1.0000
  C   C386      1.0  0.34932  0.53017  0.63214  1.0000
  C   C387      1.0  0.33295  0.56457  0.59687  1.0000
  H   H685      1.0  0.29747  0.51202  0.63739  1.0000
  C   C388      1.0  0.36264  0.53219  0.60049  1.0000
  C   C389      1.0  0.28809  0.51850  0.63822  1.0000
  H   H686      1.0  0.28704  0.52646  0.53206  1.0000
  H   H687      1.0  0.37440  0.54224  0.59994  1.0000
  H   H688      1.0  0.44989  0.51191  0.30247  1.0000
  H   H689      1.0  0.41929  0.60322  0.00313  1.0000
  C   C390      1.0  0.44394  0.73626  0.00126  1.0000
  H   H690      1.0  0.47415  0.69915  0.08673  1.0000
  C   C391      1.0  0.39061  0.56286  0.03159  1.0000
  H   H691      1.0  0.48782  0.72124  0.96519  1.0000
  H   H692      1.0  0.46439  0.57742  0.99504  1.0000
  C   C392      1.0  0.43676  0.55491  0.55512  1.0000
  C   C393      1.0  0.44904  0.55737  0.52068  1.0000
  C   C394      1.0  0.44478  0.55006  0.48425  1.0000
  C   C395      1.0  0.42823  0.54026  0.48219  1.0000
  C   C396      1.0  0.41581  0.53847  0.51584  1.0000
  C   C397      1.0  0.42007  0.54572  0.55241  1.0000
  H   H693      1.0  0.46191  0.56467  0.52222  1.0000
  H   H694      1.0  0.45440  0.55169  0.45810  1.0000
  H   H695      1.0  0.40290  0.53168  0.51357  1.0000
  H   H696      1.0  0.41048  0.54408  0.57863  1.0000
  H   H697      1.0  0.48342  0.73159  0.91927  1.0000
  C   C398      1.0  0.48191  0.52385  0.99680  1.0000
  H   H698      1.0  0.40560  0.53802  0.32318  1.0000
  H   H699      1.0  0.27076  0.51185  0.56793  1.0000
  C   C399      1.0  0.47903  0.65809  0.71264  1.0000
  H   H700      1.0  0.25622  0.55477  0.57751  1.0000
  H   H701      1.0  0.34198  0.56084  0.91138  1.0000
  H   H702      1.0  0.38495  0.51090  0.90337  1.0000
  H   H703      1.0  0.25227  0.58086  0.74541  1.0000
  C   C400      1.0  0.44251  0.54922  0.15562  1.0000
  C   C401      1.0  0.42660  0.53760  0.15504  1.0000
  C   C402      1.0  0.42378  0.52702  0.12354  1.0000
  C   C403      1.0  0.43675  0.52824  0.09194  1.0000
  C   C404      1.0  0.45281  0.53945  0.09332  1.0000
  C   C405      1.0  0.45571  0.54988  0.12530  1.0000
  H   H704      1.0  0.41640  0.53674  0.17896  1.0000
  H   H705      1.0  0.38039  0.54693  0.72832  1.0000
  H   H706      1.0  0.46294  0.54013  0.06958  1.0000
  H   H707      1.0  0.46816  0.55830  0.12654  1.0000
  H   H708      1.0  0.40076  0.55978  0.70201  1.0000
  C   C406      1.0  0.47960  0.63640  0.05334  1.0000
  C   C407      1.0  0.46304  0.62636  0.06774  1.0000
  C   C408      1.0  0.45019  0.62715  0.04454  1.0000
  C   C409      1.0  0.45384  0.63768  0.00634  1.0000
  C   C410      1.0  0.47044  0.64746  0.99153  1.0000
  H   H709      1.0  0.44418  0.73219  0.03464  1.0000
  H   H710      1.0  0.46012  0.61830  0.09721  1.0000
  H   H711      1.0  0.43735  0.61974  0.05647  1.0000
  H   H712      1.0  0.49309  0.58913  0.31743  1.0000
  H   H713      1.0  0.41158  0.51777  0.12431  1.0000
  N   N22       1.0  0.43043  0.61544  0.64873  1.0000
  C   C411      1.0  0.41935  0.59804  0.64320  1.0000
  C   C412      1.0  0.44441  0.61404  0.67203  1.0000
  C   C413      1.0  0.42005  0.62397  0.67265  1.0000
  C   C414      1.0  0.43808  0.62599  0.60700  1.0000
  C   C415      1.0  0.44596  0.61755  0.57394  1.0000
  C   C416      1.0  0.40486  0.59717  0.61717  1.0000
  C   C417      1.0  0.42997  0.64073  0.68830  1.0000
  C   C418      1.0  0.43909  0.60353  0.71584  1.0000
  C   C419      1.0  0.45424  0.60556  0.73888  1.0000
  C   C420      1.0  0.39615  0.57923  0.60802  1.0000
  H   H714      1.0  0.41324  0.59082  0.67422  1.0000
  H   H715      1.0  0.42697  0.59082  0.62941  1.0000
  H   H716      1.0  0.45231  0.60821  0.65370  1.0000
  H   H717      1.0  0.45304  0.62669  0.67554  1.0000
  H   H718      1.0  0.41207  0.61551  0.70045  1.0000
  H   H719      1.0  0.41105  0.62662  0.65294  1.0000
  H   H720      1.0  0.42876  0.63042  0.59248  1.0000
  H   H721      1.0  0.44824  0.63765  0.61145  1.0000
  H   H722      1.0  0.43652  0.60640  0.56477  1.0000
  H   H723      1.0  0.45577  0.61349  0.58638  1.0000
  H   H724      1.0  0.39535  0.60131  0.63486  1.0000
  H   H725      1.0  0.40931  0.60526  0.58669  1.0000
  H   H726      1.0  0.44019  0.64891  0.66419  1.0000
  H   H727      1.0  0.43565  0.63810  0.71637  1.0000
  H   H728      1.0  0.42990  0.60733  0.73575  1.0000
  H   H729      1.0  0.43348  0.59000  0.71244  1.0000
  H   H730      1.0  0.46457  0.60357  0.71857  1.0000
  H   H731      1.0  0.45874  0.61834  0.74870  1.0000
  H   H732      1.0  0.45076  0.59620  0.76716  1.0000
  H   H733      1.0  0.40514  0.57453  0.58991  1.0000
  H   H734      1.0  0.39060  0.57068  0.63761  1.0000
  H   H735      1.0  0.38589  0.57893  0.58928  1.0000
  C   C421      1.0  0.37389  0.50298  0.68166  1.0000
  H   H736      1.0  0.27584  0.58403  0.78473  1.0000
  H   H737      1.0  0.45349  0.73327  0.93910  1.0000
  H   H738      1.0  0.45494  0.50215  0.25930  1.0000
  S   S114      1.0  0.43282  0.51607  0.05034  1.0000
  S   S115      1.0  0.38791  0.51655  0.07260  1.0000
  H   H739      1.0  0.26077  0.51113  0.65644  1.0000
  H   H740      1.0  0.32411  0.51515  0.65764  1.0000
  H   H741      1.0  0.46080  0.54166  0.68138  1.0000
  H   H742      1.0  0.31714  0.54540  0.64495  1.0000
  H   H743      1.0  0.27502  0.73344  0.01007  1.0000
  C   C422      1.0  0.48014  0.65432  0.67104  1.0000
  H   H744      1.0  0.46818  0.51940  0.00667  1.0000
  H   H745      1.0  0.42082  0.51733  0.24013  1.0000
  H   H746      1.0  0.34139  0.55761  0.58698  1.0000
  H   H747      1.0  0.39772  0.51230  0.85383  1.0000
  C   C423      1.0  0.24961  0.57982  0.78008  1.0000
  H   H748      1.0  0.33198  0.57277  0.56937  1.0000
  H   H749      1.0  0.45950  0.62335  0.51109  1.0000
  C   C424      1.0  0.39276  0.54303  0.85973  1.0000
  H   H750      1.0  0.47511  0.54684  0.21698  1.0000
  H   H751      1.0  0.46429  0.64079  0.54122  1.0000
  H   H752      1.0  0.37090  0.52349  0.54392  1.0000
  H   H753      1.0  0.43158  0.60123  0.82553  1.0000
  H   H754      1.0  0.34205  0.53680  0.95369  1.0000
  H   H755      1.0  0.30775  0.55997  0.62459  1.0000
  C   C425      1.0  0.26478  0.72778  0.93290  1.0000
  H   H756      1.0  0.48116  0.55776  0.67350  1.0000
  H   H757      1.0  0.43834  0.51105  0.60559  1.0000
  C   C426      1.0  0.42925  0.54964  0.95982  1.0000
  H   H758      1.0  0.45328  0.68372  0.09235  1.0000
  H   H759      1.0  0.40944  0.67892  0.94396  1.0000
  H   H760      1.0  0.43281  0.53853  0.96927  1.0000
  H   H761      1.0  0.25733  0.70833  0.98716  1.0000
  H   H762      1.0  0.25055  0.59234  0.78944  1.0000
  C   C427      1.0  0.30811  0.53983  0.58498  1.0000
  H   H763      1.0  0.29924  0.73438  0.91066  1.0000
  H   H764      1.0  0.44463  0.63406  0.51991  1.0000
  C   C428      1.0  0.32796  0.50735  0.88828  1.0000
  C   C429      1.0  0.25185  0.71673  0.97022  1.0000
  H   H765      1.0  0.40345  0.62112  0.95937  1.0000
  Fe  Fe58      1.0  0.46959  0.57851  0.59035  1.0000
  H   H766      1.0  0.47652  0.53611  0.26628  1.0000
  H   H767      1.0  0.41345  0.58911  0.16135  1.0000
  C   C430      1.0  0.47329  0.54571  0.69219  1.0000
  H   H768      1.0  0.29442  0.56345  0.56320  1.0000
  H   H769      1.0  0.48058  0.54690  0.96541  1.0000
  H   H770      1.0  0.39031  0.58270  0.95924  1.0000
  H   H771      1.0  0.45712  0.68137  0.01586  1.0000
  C   C431      1.0  0.33425  0.51704  0.63276  1.0000
  N   N23       1.0  0.43737  0.58330  0.36319  1.0000
  C   C432      1.0  0.42722  0.58165  0.32731  1.0000
  C   C433      1.0  0.42622  0.57292  0.40201  1.0000
  C   C434      1.0  0.44432  0.60159  0.36935  1.0000
  C   C435      1.0  0.45180  0.57699  0.35421  1.0000
  C   C436      1.0  0.44745  0.55938  0.33891  1.0000
  C   C437      1.0  0.43696  0.59061  0.28388  1.0000
  C   C438      1.0  0.45302  0.60542  0.40904  1.0000
  C   C439      1.0  0.41181  0.57890  0.41959  1.0000
  C   C440      1.0  0.40256  0.56833  0.46098  1.0000
  C   C441      1.0  0.46201  0.55273  0.34008  1.0000
  C   C442      1.0  0.42546  0.58733  0.24998  1.0000
  C   C443      1.0  0.45928  0.62430  0.41189  1.0000
  H   H772      1.0  0.41703  0.58693  0.33377  1.0000
  H   H773      1.0  0.42078  0.56819  0.32424  1.0000
  H   H774      1.0  0.42007  0.55980  0.39582  1.0000
  H   H775      1.0  0.43375  0.57187  0.42760  1.0000
  H   H776      1.0  0.43442  0.60745  0.36957  1.0000
  H   H777      1.0  0.45386  0.60871  0.34225  1.0000
  H   H778      1.0  0.46171  0.58593  0.33028  1.0000
  H   H779      1.0  0.45795  0.57649  0.38283  1.0000
  H   H780      1.0  0.44459  0.55991  0.30619  1.0000
  H   H781      1.0  0.43646  0.55009  0.35859  1.0000
  H   H782      1.0  0.44209  0.60441  0.28423  1.0000
  H   H783      1.0  0.44750  0.58620  0.27441  1.0000
  H   H784      1.0  0.46390  0.60103  0.40812  1.0000
  H   H785      1.0  0.44445  0.59921  0.43829  1.0000
  H   H786      1.0  0.41643  0.59218  0.42573  1.0000
  H   H787      1.0  0.40256  0.57758  0.39725  1.0000
  H   H788      1.0  0.41110  0.56996  0.48523  1.0000
  H   H789      1.0  0.39193  0.57237  0.47233  1.0000
  H   H790      1.0  0.39755  0.55481  0.45674  1.0000
  H   H791      1.0  0.28052  0.54567  0.63203  1.0000
  H   H792      1.0  0.41834  0.56611  0.07071  1.0000
  H   H793      1.0  0.45828  0.53985  0.33091  1.0000
  H   H794      1.0  0.43271  0.59370  0.21916  1.0000
  H   H795      1.0  0.42019  0.57366  0.24765  1.0000
  H   H796      1.0  0.41508  0.59230  0.25688  1.0000
  H   H797      1.0  0.44858  0.62878  0.41904  1.0000
  H   H798      1.0  0.46731  0.62700  0.43714  1.0000
  H   H799      1.0  0.46689  0.63136  0.38200  1.0000
  C   C444      1.0  0.37560  0.56835  0.04735  1.0000
  H   H800      1.0  0.36732  0.52399  0.86633  1.0000
  C   C445      1.0  0.39367  0.60900  0.95657  1.0000
  Fe  Fe59      1.0  0.48987  0.61018  0.23519  1.0000
  H   H801      1.0  0.37224  0.57540  0.02126  1.0000
  H   H802      1.0  0.48823  0.71019  0.87653  1.0000
  H   H803      1.0  0.43184  0.59581  0.12269  1.0000
  H   H804      1.0  0.38997  0.60971  0.92466  1.0000
  H   H805      1.0  0.31607  0.53182  0.58261  1.0000
  H   H806      1.0  0.26195  0.57399  0.83235  1.0000
  H   H807      1.0  0.48573  0.60327  0.04608  1.0000
  H   H808      1.0  0.47714  0.52640  0.21846  1.0000
  H   H809      1.0  0.37834  0.57656  0.07243  1.0000
  H   H810      1.0  0.38255  0.60714  0.97995  1.0000
  H   H811      1.0  0.29423  0.74032  0.06382  1.0000
  H   H812      1.0  0.48654  0.54871  0.01723  1.0000
  S   S116      1.0  0.48227  0.59171  0.64104  1.0000
  C   C446      1.0  0.46486  0.69285  0.02763  1.0000
  H   H813      1.0  0.29092  0.52662  0.66373  1.0000
  H   H814      1.0  0.44714  0.70527  0.04676  1.0000
  H   H815      1.0  0.27965  0.54902  0.53615  1.0000
  H   H816      1.0  0.39887  0.59759  0.02934  1.0000
  H   H817      1.0  0.29352  0.50357  0.92366  1.0000
  C   C447      1.0  0.28163  0.55409  0.56647  1.0000
  H   H818      1.0  0.26901  0.71861  0.91611  1.0000
  S   S117      1.0  0.49603  0.63619  0.08219  1.0000
  C   C448      1.0  0.48239  0.71916  0.93552  1.0000
  S   S118      1.0  0.37686  0.50468  0.42455  1.0000
  H   H819      1.0  0.39107  0.55278  0.05526  1.0000
  C   C449      1.0  0.33222  0.50656  0.60070  1.0000
  C   C450      1.0  0.48529  0.53018  0.64054  1.0000
  C   C451      1.0  0.46759  0.58274  0.02459  1.0000
  H   H820      1.0  0.49660  0.63358  0.37533  1.0000
  C   C452      1.0  0.48643  0.65104  0.74233  1.0000
  S   S119      1.0  0.48984  0.59064  0.12994  1.0000
  H   H821      1.0  0.43086  0.73145  0.99429  1.0000
  H   H822      1.0  0.38573  0.56945  0.71978  1.0000
  H   H823      1.0  0.46852  0.73772  0.97454  1.0000
  H   H824      1.0  0.44054  0.55975  0.94304  1.0000
  H   H825      1.0  0.49276  0.69950  0.92227  1.0000
  H   H826      1.0  0.25795  0.73296  0.91088  1.0000
  C   C453      1.0  0.47150  0.53438  0.23600  1.0000
  C   C454      1.0  0.30486  0.74295  0.03833  1.0000
  H   H827      1.0  0.49604  0.65476  0.00392  1.0000
  H   H828      1.0  0.41920  0.73006  0.86846  1.0000
  C   C455      1.0  0.41859  0.65075  0.70031  1.0000
  C   C456      1.0  0.49533  0.59605  0.34396  1.0000
  C   C457      1.0  0.38361  0.55940  0.80525  1.0000
  C   C458      1.0  0.26932  0.56344  0.57526  1.0000
  C   C459      1.0  0.28519  0.73656  0.98334  1.0000
  H   H829      1.0  0.42569  0.66193  0.71457  1.0000
  C   C460      1.0  0.48156  0.53237  0.68749  1.0000
  C   C461      1.0  0.33026  0.52205  0.90705  1.0000
  H   H830      1.0  0.47466  0.53115  0.62432  1.0000
  H   H831      1.0  0.46786  0.71882  0.03003  1.0000
  C   C462      1.0  0.36070  0.52154  0.56878  1.0000
  C   C463      1.0  0.34894  0.51471  0.95121  1.0000
  S   S120      1.0  0.49037  0.56914  0.56945  1.0000
  H   H832      1.0  0.41402  0.65511  0.67211  1.0000
  H   H833      1.0  0.40768  0.64302  0.72340  1.0000
  C   C464      1.0  0.46593  0.68819  0.07369  1.0000
  H   H834      1.0  0.26557  0.53190  0.60622  1.0000
  H   H835      1.0  0.49345  0.53647  0.70122  1.0000
  H   H836      1.0  0.43730  0.67807  0.95848  1.0000
  H   H837      1.0  0.47298  0.66694  0.72137  1.0000
  C   C465      1.0  0.49067  0.51798  0.03180  1.0000
  H   H838      1.0  0.40794  0.66062  0.97886  1.0000
  H   H839      1.0  0.42239  0.56554  0.87128  1.0000
  H   H840      1.0  0.36269  0.54571  0.09116  1.0000
  C   C466      1.0  0.42036  0.57442  0.84694  1.0000
  H   H841      1.0  0.30679  0.51129  0.54536  1.0000
  H   H842      1.0  0.31020  0.54677  0.55301  1.0000
  C   C467      1.0  0.37294  0.55712  0.87943  1.0000
  H   H843      1.0  0.43079  0.59576  0.88114  1.0000
  H   H844      1.0  0.40136  0.58535  0.83464  1.0000
  H   H845      1.0  0.48518  0.52113  0.06148  1.0000
  H   H846      1.0  0.47303  0.56089  0.31798  1.0000
  H   H847      1.0  0.37994  0.57060  0.79839  1.0000
  C   C468      1.0  0.35363  0.57142  0.91293  1.0000
  H   H848      1.0  0.37520  0.55463  0.91235  1.0000
  H   H849      1.0  0.35821  0.56988  0.94343  1.0000
  H   H850      1.0  0.32402  0.53066  0.89724  1.0000
  C   C469      1.0  0.48800  0.54302  0.98796  1.0000
  H   H851      1.0  0.39467  0.54201  0.89336  1.0000
  H   H852      1.0  0.41965  0.54589  0.93844  1.0000
  H   H853      1.0  0.37718  0.58458  0.87536  1.0000
  H   H854      1.0  0.36097  0.57265  0.84751  1.0000
  N   N24       1.0  0.38816  0.55847  0.84900  1.0000
  C   C470      1.0  0.27900  0.53984  0.60246  1.0000
  C   C471      1.0  0.36689  0.57248  0.87630  1.0000
  H   H855      1.0  0.40055  0.57732  0.88745  1.0000
  H   H856      1.0  0.44580  0.59157  0.84450  1.0000
  H   H857      1.0  0.35052  0.58315  0.91072  1.0000
  C   C472      1.0  0.40209  0.57433  0.85472  1.0000
  C   C473      1.0  0.43284  0.59180  0.84974  1.0000
  H   H858      1.0  0.36200  0.54638  0.87445  1.0000
  H   H859      1.0  0.42335  0.57078  0.81576  1.0000
  C   C474      1.0  0.41142  0.67451  0.97574  1.0000
  H   H860      1.0  0.43187  0.55778  0.02038  1.0000
  H   H861      1.0  0.45719  0.58661  0.03835  1.0000
  H   H862      1.0  0.28804  0.72474  0.98075  1.0000
  C   C475      1.0  0.42224  0.55548  0.99884  1.0000
  H   H863      1.0  0.41098  0.54505  0.01415  1.0000
  H   H864      1.0  0.37227  0.54858  0.80251  1.0000
  H   H865      1.0  0.37995  0.52557  0.81732  1.0000
  S   S121      1.0  0.48915  0.62140  0.29649  1.0000
  H   H866      1.0  0.47172  0.54785  0.72558  1.0000
  H   H867      1.0  0.39583  0.52666  0.28266  1.0000
  C   C476      1.0  0.42973  0.68238  0.98196  1.0000
  H   H868      1.0  0.42683  0.70442  0.00315  1.0000
  H   H869      1.0  0.40310  0.67780  0.99968  1.0000
  H   H870      1.0  0.43130  0.70599  0.94760  1.0000
  C   C477      1.0  0.43499  0.70176  0.97758  1.0000
  C   C478      1.0  0.41808  0.57167  0.98759  1.0000
  H   H871      1.0  0.42208  0.57383  0.14300  1.0000
  C   C479      1.0  0.41969  0.58562  0.13345  1.0000
  C   C480      1.0  0.40789  0.53204  0.29494  1.0000
  H   H872      1.0  0.47766  0.69641  0.01025  1.0000
  H   H873      1.0  0.43019  0.58212  0.97741  1.0000
  H   H874      1.0  0.42961  0.58756  0.05102  1.0000
  H   H875      1.0  0.48145  0.60747  0.99405  1.0000
  H   H876      1.0  0.47885  0.51456  0.57312  1.0000
  C   C481      1.0  0.29018  0.74701  0.86273  1.0000
  C   C482      1.0  0.41699  0.50839  0.26932  1.0000
  C   C483      1.0  0.45245  0.52649  0.24345  1.0000
  N   N25       1.0  0.28996  0.52915  0.59706  1.0000
  C   C484      1.0  0.29409  0.74486  0.90835  1.0000
  H   H877      1.0  0.44744  0.53527  0.25940  1.0000
  H   H878      1.0  0.41162  0.56972  0.95926  1.0000
  N   N26       1.0  0.40762  0.57648  0.02173  1.0000
  C   C485      1.0  0.44668  0.50913  0.27066  1.0000
  C   C486      1.0  0.41505  0.51827  0.30675  1.0000
  H   H879      1.0  0.41682  0.54178  0.27073  1.0000
  H   H880      1.0  0.39662  0.57292  0.11198  1.0000
  C   C487      1.0  0.40845  0.58315  0.09892  1.0000
  C   C488      1.0  0.43261  0.73626  0.86458  1.0000
  S   S122      1.0  0.48666  0.65682  0.79377  1.0000
  S   S123      1.0  0.36328  0.52102  0.98722  1.0000
  H   H881      1.0  0.43081  0.67743  0.01398  1.0000
  C   C489      1.0  0.48325  0.64692  0.01517  1.0000
  H   H882      1.0  0.38707  0.55639  0.00353  1.0000
  H   H883      1.0  0.40597  0.59503  0.09188  1.0000
  H   H884      1.0  0.42719  0.52411  0.31813  1.0000
  H   H885      1.0  0.46346  0.69444  0.94885  1.0000
  H   H886      1.0  0.36294  0.50909  0.26634  1.0000
  H   H887      1.0  0.40289  0.55048  0.77444  1.0000
  H   H888      1.0  0.45848  0.70845  0.91414  1.0000
  C   C490      1.0  0.40669  0.59338  0.00623  1.0000
  C   C491      1.0  0.34534  0.50891  0.56824  1.0000
  H   H889      1.0  0.46900  0.57294  0.04732  1.0000
  C   C492      1.0  0.34046  0.52552  0.93893  1.0000
  H   H890      1.0  0.49388  0.52871  0.50217  1.0000
  C   C493      1.0  0.46378  0.70759  0.94393  1.0000
  H   H891      1.0  0.35618  0.54506  0.03951  1.0000
  C   C494      1.0  0.39749  0.56057  0.76929  1.0000
  C   C495      1.0  0.49715  0.62101  0.37680  1.0000
  H   H892      1.0  0.40480  0.54389  0.84156  1.0000
  C   C496      1.0  0.36011  0.55317  0.06445  1.0000
  H   H893      1.0  0.40754  0.57299  0.76641  1.0000
  C   C497      1.0  0.38017  0.52604  0.85152  1.0000
  Fe  Fe60      1.0  0.40034  0.50733  0.45288  1.0000
  S   S124      1.0  0.48798  0.58340  0.23277  1.0000
  H   H894      1.0  0.47125  0.67789  0.07645  1.0000
  N   N27       1.0  0.45317  0.71143  0.97935  1.0000
  H   H895      1.0  0.34964  0.55746  0.07570  1.0000
  C   C498      1.0  0.48365  0.59796  0.01617  1.0000
  C   C499      1.0  0.48795  0.64285  0.65920  1.0000
  C   C500      1.0  0.45798  0.70766  0.02190  1.0000
  H   H896      1.0  0.28055  0.73559  0.85530  1.0000
  C   C501      1.0  0.45546  0.72992  0.97174  1.0000
  C   C502      1.0  0.40034  0.59447  0.96306  1.0000
  H   H897      1.0  0.41091  0.59662  0.93774  1.0000
  Fe  Fe61      1.0  0.37269  0.50329  0.02558  1.0000
  C   C503      1.0  0.39065  0.55910  0.72737  1.0000
  C   C504      1.0  0.49298  0.71182  0.90722  1.0000
  H   H898      1.0  0.27108  0.56906  0.60508  1.0000
  Fe  Fe62      1.0  0.49157  0.61703  0.13936  1.0000
  C   C505      1.0  0.49448  0.63977  0.73034  1.0000
  C   C506      1.0  0.49426  0.61216  0.34191  1.0000
  C   C507      1.0  0.28454  0.51843  0.56262  1.0000
  C   C508      1.0  0.28420  0.50282  0.95093  1.0000
  H   H899      1.0  0.49618  0.54150  0.62746  1.0000
  C   C509      1.0  0.26342  0.57466  0.79761  1.0000
  H   H900      1.0  0.40098  0.50682  0.61654  1.0000
  N   N28       1.0  0.48869  0.51427  0.63202  1.0000
  C   C510      1.0  0.33499  0.51060  0.10297  1.0000
  H   H901      1.0  0.30783  0.73130  0.03487  1.0000
  H   H902      1.0  0.47482  0.66022  0.64800  1.0000
  H   H903      1.0  0.31043  0.73953  0.83352  1.0000
  H   H904      1.0  0.34600  0.51251  0.07915  1.0000
  C   C511      1.0  0.24904  0.74491  0.83454  1.0000
  H   H905      1.0  0.30217  0.51436  0.99067  1.0000
  H   H906      1.0  0.49587  0.58786  0.96819  1.0000
  H   H907      1.0  0.38332  0.51397  0.66187  1.0000
  C   C512      1.0  0.49048  0.51399  0.58505  1.0000
  H   H908      1.0  0.27179  0.50427  0.72010  1.0000
  H   H909      1.0  0.28031  0.51406  0.94700  1.0000
  H   H910      1.0  0.42739  0.51573  0.56378  1.0000
  H   H911      1.0  0.31116  0.50868  0.05156  1.0000
  C   C513      1.0  0.30064  0.74963  0.99709  1.0000
  C   C514      1.0  0.36825  0.50893  0.72214  1.0000
  H   H912      1.0  0.37906  0.51456  0.73894  1.0000
  Fe  Fe63      1.0  0.49260  0.61395  0.59193  1.0000
  S   S125      1.0  0.48875  0.63817  0.60678  1.0000
  H   H913      1.0  0.49592  0.50334  0.16216  1.0000
  C   C515      1.0  0.49495  0.63542  0.68916  1.0000
  S   S126      1.0  0.31476  0.50252  0.84914  1.0000
  C   C516      1.0  0.27052  0.50517  0.65297  1.0000
  H   H914      1.0  0.33864  0.50864  0.13451  1.0000
  Fe  Fe64      1.0  0.40514  0.50246  0.05606  1.0000
  C   C517      1.0  0.30584  0.75035  0.83106  1.0000
  H   H915      1.0  0.24944  0.75013  0.97017  1.0000
  H   H916      1.0  0.42084  0.50192  0.18842  1.0000
  H   H917      1.0  0.46219  0.50277  0.65573  1.0000
  C   C518      1.0  0.29170  0.50232  0.99175  1.0000
  H   H918      1.0  0.41198  0.50205  0.65635  1.0000
  H   H919      1.0  0.44249  0.50286  0.18486  1.0000
  C   C519      1.0  0.29317  0.50515  0.55574  1.0000
  C   C520      1.0  0.43088  0.50576  0.58068  1.0000
  H   H920      1.0  0.49609  0.64006  0.93158  1.0000
  H   H921      1.0  0.49686  0.61130  0.92771  1.0000
  H   H922      1.0  0.26140  0.75080  0.81704  1.0000
  H   H923      1.0  0.28790  0.50255  0.49149  1.0000
  H   H924      1.0  0.49170  0.50202  0.57649  1.0000
  Fe  Fe65      1.0  0.45665  0.80692  0.86892  1.0000
  S   S127      1.0  0.43472  0.81066  0.90765  1.0000
  Fe  Fe66      1.0  0.47000  0.84398  0.82887  1.0000
  S   S128      1.0  0.44931  0.85017  0.86415  1.0000
  H   H925      1.0  0.44067  0.75968  0.01533  1.0000
  Fe  Fe67      1.0  0.45315  0.83535  0.92052  1.0000
  S   S129      1.0  0.45060  0.84636  0.98245  1.0000
  Fe  Fe68      1.0  0.43260  0.82555  0.84868  1.0000
  S   S130      1.0  0.41057  0.82770  0.81824  1.0000
  S   S131      1.0  0.47516  0.83067  0.88636  1.0000
  S   S132      1.0  0.45318  0.82033  0.80902  1.0000
  H   H926      1.0  0.39887  0.88780  0.86568  1.0000
  S   S133      1.0  0.30217  0.79057  0.81185  1.0000
  Fe  Fe69      1.0  0.30234  0.82895  0.87044  1.0000
  S   S134      1.0  0.32545  0.82753  0.83383  1.0000
  S   S135      1.0  0.30574  0.85336  0.89863  1.0000
  Fe  Fe70      1.0  0.30925  0.81774  0.78497  1.0000
  H   H927      1.0  0.48731  0.85772  0.96379  1.0000
  Fe  Fe71      1.0  0.31680  0.80085  0.86337  1.0000
  S   S136      1.0  0.33441  0.78973  0.89245  1.0000
  H   H928      1.0  0.46320  0.95088  0.48659  1.0000
  S   S137      1.0  0.29468  0.80281  0.90388  1.0000
  H   H929      1.0  0.49170  0.79680  0.79087  1.0000
  H   H930      1.0  0.48046  0.75869  0.85151  1.0000
  H   H931      1.0  0.47235  0.88435  0.08629  1.0000
  Fe  Fe72      1.0  0.48881  0.93707  0.14693  1.0000
  S   S138      1.0  0.46843  0.94792  0.14023  1.0000
  S   S139      1.0  0.48509  0.90981  0.16514  1.0000
  H   H932      1.0  0.33939  0.86060  0.47701  1.0000
  C   C521      1.0  0.34332  0.84471  0.52761  1.0000
  H   H933      1.0  0.42942  0.95325  0.65308  1.0000
  H   H934      1.0  0.35311  0.84428  0.74485  1.0000
  C   C522      1.0  0.31867  0.87947  0.47896  1.0000
  C   C523      1.0  0.31067  0.89320  0.46969  1.0000
  H   H935      1.0  0.33336  0.91186  0.43522  1.0000
  S   S140      1.0  0.46909  0.96245  0.58388  1.0000
  C   C524      1.0  0.26129  0.77533  0.98250  1.0000
  Fe  Fe73      1.0  0.35010  0.89004  0.09573  1.0000
  S   S141      1.0  0.35646  0.88576  0.16102  1.0000
  S   S142      1.0  0.33301  0.86643  0.07354  1.0000
  Fe  Fe74      1.0  0.37603  0.92537  0.07888  1.0000
  S   S143      1.0  0.38467  0.92352  0.14147  1.0000
  S   S144      1.0  0.38993  0.94785  0.03044  1.0000
  Fe  Fe75      1.0  0.38288  0.89741  0.13046  1.0000
  S   S145      1.0  0.40219  0.88653  0.14779  1.0000
  Fe  Fe76      1.0  0.35759  0.91219  0.16765  1.0000
  S   S146      1.0  0.35153  0.92309  0.22689  1.0000
  S   S147      1.0  0.37681  0.90003  0.06528  1.0000
  S   S148      1.0  0.34864  0.91573  0.10491  1.0000
  Fe  Fe77      1.0  0.39171  0.91037  0.52049  1.0000
  S   S149      1.0  0.38256  0.92538  0.56461  1.0000
  S   S150      1.0  0.41285  0.90159  0.53312  1.0000
  Fe  Fe78      1.0  0.36499  0.90804  0.46502  1.0000
  S   S151      1.0  0.35294  0.92258  0.50536  1.0000
  S   S152      1.0  0.35682  0.89347  0.41052  1.0000
  Fe  Fe79      1.0  0.37938  0.93967  0.50654  1.0000
  Fe  Fe80      1.0  0.35714  0.90732  0.56093  1.0000
  S   S153      1.0  0.34005  0.89920  0.62309  1.0000
  S   S154      1.0  0.39108  0.92621  0.46221  1.0000
  S   S155      1.0  0.36662  0.89120  0.52086  1.0000
  C   C525      1.0  0.35393  0.91501  0.27724  1.0000
  C   C526      1.0  0.35630  0.92541  0.30945  1.0000
  C   C527      1.0  0.35774  0.91918  0.35020  1.0000
  C   C528      1.0  0.35644  0.90237  0.35925  1.0000
  C   C529      1.0  0.35416  0.89202  0.32702  1.0000
  C   C530      1.0  0.35309  0.89834  0.28611  1.0000
  H   H936      1.0  0.35689  0.93831  0.30288  1.0000
  H   H937      1.0  0.35942  0.92728  0.37476  1.0000
  H   H938      1.0  0.35308  0.87899  0.33376  1.0000
  H   H939      1.0  0.35117  0.89019  0.26167  1.0000
  C   C531      1.0  0.45191  0.94543  0.57625  1.0000
  C   C532      1.0  0.43946  0.94814  0.55491  1.0000
  C   C533      1.0  0.42729  0.93457  0.54223  1.0000
  C   C534      1.0  0.42753  0.91827  0.55112  1.0000
  C   C535      1.0  0.43969  0.91545  0.57352  1.0000
  C   C536      1.0  0.45181  0.92905  0.58638  1.0000
  H   H940      1.0  0.43986  0.96079  0.54594  1.0000
  H   H941      1.0  0.41817  0.93680  0.52394  1.0000
  H   H942      1.0  0.43999  0.90287  0.58015  1.0000
  H   H943      1.0  0.46144  0.92691  0.60300  1.0000
  C   C537      1.0  0.44965  0.93121  0.14390  1.0000
  C   C538      1.0  0.43755  0.93231  0.11899  1.0000
  C   C539      1.0  0.42312  0.91837  0.11924  1.0000
  C   C540      1.0  0.42078  0.90342  0.14471  1.0000
  C   C541      1.0  0.43287  0.90234  0.16968  1.0000
  C   C542      1.0  0.44716  0.91635  0.16984  1.0000
  H   H944      1.0  0.43954  0.94376  0.09858  1.0000
  H   H945      1.0  0.41396  0.91915  0.09920  1.0000
  H   H946      1.0  0.43096  0.89085  0.18981  1.0000
  H   H947      1.0  0.45611  0.91573  0.19056  1.0000
  H   H948      1.0  0.46895  0.77275  0.77203  1.0000
  H   H949      1.0  0.35129  0.85511  0.54273  1.0000
  H   H950      1.0  0.36400  0.86612  0.72586  1.0000
  H   H951      1.0  0.45699  0.78681  0.77198  1.0000
  H   H952      1.0  0.41731  0.95430  0.13061  1.0000
  C   C543      1.0  0.32668  0.84606  0.69229  1.0000
  C   C544      1.0  0.33698  0.85068  0.65336  1.0000
  C   C545      1.0  0.34163  0.86709  0.63257  1.0000
  C   C546      1.0  0.33569  0.87892  0.65009  1.0000
  C   C547      1.0  0.32552  0.87435  0.68921  1.0000
  C   C548      1.0  0.32119  0.85805  0.71050  1.0000
  H   H953      1.0  0.37177  0.84783  0.67835  1.0000
  H   H954      1.0  0.34960  0.87052  0.60277  1.0000
  H   H955      1.0  0.32071  0.88333  0.70285  1.0000
  H   H956      1.0  0.31321  0.85460  0.74043  1.0000
  C   C549      1.0  0.32632  0.86327  0.02379  1.0000
  C   C550      1.0  0.32812  0.87663  0.99321  1.0000
  C   C551      1.0  0.32176  0.87343  0.95497  1.0000
  C   C552      1.0  0.31389  0.85687  0.94665  1.0000
  C   C553      1.0  0.31246  0.84353  0.97685  1.0000
  C   C554      1.0  0.31853  0.84673  0.01532  1.0000
  H   H957      1.0  0.33391  0.88941  0.99958  1.0000
  H   H958      1.0  0.39112  0.00027  0.53065  1.0000
  H   H959      1.0  0.30634  0.83075  0.97093  1.0000
  H   H960      1.0  0.31702  0.83633  0.03887  1.0000
  C   C555      1.0  0.46562  0.78219  0.75230  1.0000
  H   H961      1.0  0.27581  0.85874  0.48393  1.0000
  H   H962      1.0  0.31256  0.84659  0.55568  1.0000
  H   H963      1.0  0.37328  0.99809  0.72383  1.0000
  H   H964      1.0  0.45519  0.91056  0.07359  1.0000
  C   C556      1.0  0.47677  0.86614  0.71551  1.0000
  C   C557      1.0  0.35620  0.96249  0.59356  1.0000
  H   H965      1.0  0.34314  0.96202  0.59196  1.0000
  C   C558      1.0  0.43918  0.75373  0.86709  1.0000
  H   H966      1.0  0.46740  0.85426  0.72858  1.0000
  C   C559      1.0  0.46709  0.86017  0.00531  1.0000
  H   H967      1.0  0.32443  0.83954  0.48785  1.0000
  N   N29       1.0  0.41294  0.93793  0.26100  1.0000
  C   C560      1.0  0.42180  0.95985  0.19409  1.0000
  C   C561      1.0  0.48123  0.92840  0.97867  1.0000
  S   S156      1.0  0.25318  0.77564  0.86588  1.0000
  H   H968      1.0  0.42720  0.87610  0.86135  1.0000
  C   C562      1.0  0.39882  0.97848  0.53540  1.0000
  H   H969      1.0  0.30102  0.89395  0.62278  1.0000
  S   S157      1.0  0.48973  0.89586  0.60327  1.0000
  C   C563      1.0  0.38965  0.81695  0.84025  1.0000
  C   C564      1.0  0.38530  0.80549  0.87670  1.0000
  C   C565      1.0  0.36831  0.79709  0.89260  1.0000
  C   C566      1.0  0.35568  0.80012  0.87206  1.0000
  C   C567      1.0  0.36014  0.81158  0.83563  1.0000
  C   C568      1.0  0.37703  0.82002  0.82001  1.0000
  H   H970      1.0  0.39498  0.80294  0.89226  1.0000
  H   H971      1.0  0.36496  0.78819  0.92070  1.0000
  H   H972      1.0  0.35058  0.81360  0.81873  1.0000
  H   H973      1.0  0.38033  0.82878  0.79172  1.0000
  C   C569      1.0  0.48940  0.87412  0.73875  1.0000
  H   H974      1.0  0.44184  0.82365  0.69890  1.0000
  C   C570      1.0  0.34442  0.87430  0.81610  1.0000
  C   C571      1.0  0.35078  0.87361  0.85854  1.0000
  H   H975      1.0  0.37628  0.88029  0.83062  1.0000
  H   H976      1.0  0.35207  0.88583  0.87019  1.0000
  N   N30       1.0  0.44937  0.91258  0.40898  1.0000
  C   C572      1.0  0.43138  0.90104  0.41596  1.0000
  C   C573      1.0  0.45979  0.90355  0.42880  1.0000
  C   C574      1.0  0.45032  0.92838  0.42852  1.0000
  C   C575      1.0  0.45594  0.91734  0.36289  1.0000
  C   C576      1.0  0.45498  0.90251  0.33699  1.0000
  C   C577      1.0  0.41923  0.90672  0.39078  1.0000
  C   C578      1.0  0.46819  0.94104  0.42855  1.0000
  C   C579      1.0  0.45622  0.89962  0.47732  1.0000
  C   C580      1.0  0.46784  0.89097  0.49393  1.0000
  C   C581      1.0  0.45856  0.90841  0.28987  1.0000
  C   C582      1.0  0.40138  0.89431  0.40139  1.0000
  H   H977      1.0  0.47584  0.90907  0.91783  1.0000
  H   H978      1.0  0.42616  0.89949  0.44962  1.0000
  H   H979      1.0  0.43041  0.88812  0.40938  1.0000
  H   H980      1.0  0.45790  0.89130  0.41640  1.0000
  H   H981      1.0  0.47336  0.91067  0.41970  1.0000
  H   H982      1.0  0.44378  0.92527  0.46135  1.0000
  H   H983      1.0  0.44345  0.93543  0.41187  1.0000
  H   H984      1.0  0.44960  0.92541  0.34808  1.0000
  H   H985      1.0  0.46939  0.92524  0.35848  1.0000
  H   H986      1.0  0.44253  0.89255  0.34309  1.0000
  H   H987      1.0  0.46447  0.89682  0.34489  1.0000
  H   H988      1.0  0.41901  0.91917  0.39814  1.0000
  H   H989      1.0  0.42287  0.90745  0.35654  1.0000
  C   C583      1.0  0.44757  0.89710  0.68127  1.0000
  H   H990      1.0  0.47628  0.93503  0.44330  1.0000
  H   H991      1.0  0.45817  0.91122  0.49246  1.0000
  H   H992      1.0  0.44316  0.89116  0.48763  1.0000
  H   H993      1.0  0.45963  0.99262  0.68718  1.0000
  H   H994      1.0  0.48831  0.00061  0.13110  1.0000
  C   C584      1.0  0.49044  0.80633  0.76710  1.0000
  H   H995      1.0  0.44834  0.91239  0.27932  1.0000
  H   H996      1.0  0.47057  0.91901  0.28187  1.0000
  H   H997      1.0  0.45952  0.89795  0.27239  1.0000
  H   H998      1.0  0.39682  0.89329  0.43534  1.0000
  H   H999      1.0  0.39295  0.89875  0.38325  1.0000
  H   H1000     1.0  0.40074  0.88169  0.39317  1.0000
  H   H1001     1.0  0.48023  0.87714  0.90857  1.0000
  H   H1002     1.0  0.46748  0.86659  0.65584  1.0000
  C   C585      1.0  0.41602  0.99647  0.04188  1.0000
  H   H1003     1.0  0.49661  0.81459  0.84434  1.0000
  C   C586      1.0  0.27588  0.75786  0.94450  1.0000
  C   C587      1.0  0.40231  0.94125  0.65839  1.0000
  C   C588      1.0  0.35233  0.93533  0.73286  1.0000
  H   H1004     1.0  0.48178  0.89825  0.95961  1.0000
  H   H1005     1.0  0.39263  0.96209  0.35224  1.0000
  C   C589      1.0  0.47568  0.87864  0.05955  1.0000
  C   C590      1.0  0.27367  0.83917  0.44503  1.0000
  H   H1006     1.0  0.48952  0.79132  0.71411  1.0000
  H   H1007     1.0  0.30598  0.84752  0.46086  1.0000
  H   H1008     1.0  0.43109  0.92984  0.29084  1.0000
  C   C591      1.0  0.37842  0.96739  0.71323  1.0000
  H   H1009     1.0  0.35504  0.94021  0.76319  1.0000
  C   C592      1.0  0.48397  0.86358  0.99021  1.0000
  H   H1010     1.0  0.43504  0.96048  0.18757  1.0000
  H   H1011     1.0  0.34920  0.94482  0.64855  1.0000
  H   H1012     1.0  0.44257  0.96671  0.25021  1.0000
  H   H1013     1.0  0.28157  0.83468  0.42265  1.0000
  C   C593      1.0  0.41969  0.94085  0.66447  1.0000
  H   H1014     1.0  0.32830  0.86680  0.54719  1.0000
  C   C594      1.0  0.43076  0.93894  0.26441  1.0000
  H   H1015     1.0  0.48067  0.96476  0.45085  1.0000
  H   H1016     1.0  0.35888  0.95356  0.57299  1.0000
  H   H1017     1.0  0.36944  0.00053  0.93440  1.0000
  N   N31       1.0  0.30830  0.86412  0.50911  1.0000
  H   H1018     1.0  0.31992  0.89878  0.40265  1.0000
  C   C595      1.0  0.47262  0.91484  0.01677  1.0000
  H   H1019     1.0  0.47125  0.92996  0.96075  1.0000
  C   C596      1.0  0.39033  0.98572  0.69900  1.0000
  H   H1020     1.0  0.40670  0.96706  0.66602  1.0000
  H   H1021     1.0  0.33068  0.88606  0.49052  1.0000
  H   H1022     1.0  0.35163  0.84024  0.50648  1.0000
  C   C597      1.0  0.35825  0.95769  0.63876  1.0000
  H   H1023     1.0  0.46469  0.90300  0.00662  1.0000
  H   H1024     1.0  0.30458  0.75647  0.91150  1.0000
  C   C598      1.0  0.40805  0.99917  0.07933  1.0000
  H   H1025     1.0  0.48208  0.91228  0.03472  1.0000
  H   H1026     1.0  0.36388  0.97003  0.95232  1.0000
  H   H1027     1.0  0.36870  0.98964  0.02853  1.0000
  H   H1028     1.0  0.37055  0.85595  0.76918  1.0000
  H   H1029     1.0  0.34253  0.86234  0.80258  1.0000
  H   H1030     1.0  0.33402  0.81953  0.96682  1.0000
  H   H1031     1.0  0.36196  0.96170  0.00639  1.0000
  H   H1032     1.0  0.45112  0.92300  0.03076  1.0000
  N   N32       1.0  0.40841  0.85764  0.67527  1.0000
  C   C599      1.0  0.42358  0.87322  0.66208  1.0000
  C   C600      1.0  0.40222  0.85050  0.63644  1.0000
  C   C601      1.0  0.39520  0.86238  0.70095  1.0000
  C   C602      1.0  0.41256  0.84450  0.70199  1.0000
  C   C603      1.0  0.42669  0.83867  0.68178  1.0000
  C   C604      1.0  0.43368  0.88042  0.69757  1.0000
  C   C605      1.0  0.39688  0.86236  0.60618  1.0000
  C   C606      1.0  0.43194  0.82793  0.71412  1.0000
  H   H1033     1.0  0.40308  0.96317  0.15711  1.0000
  H   H1034     1.0  0.41984  0.88351  0.64716  1.0000
  H   H1035     1.0  0.43237  0.87104  0.63708  1.0000
  S   S158      1.0  0.48696  0.93153  0.53089  1.0000
  H   H1036     1.0  0.39426  0.87438  0.68668  1.0000
  H   H1037     1.0  0.39886  0.86498  0.73246  1.0000
  H   H1038     1.0  0.41583  0.84888  0.73260  1.0000
  H   H1039     1.0  0.40141  0.83295  0.71071  1.0000
  H   H1040     1.0  0.43798  0.84940  0.66823  1.0000
  H   H1041     1.0  0.42229  0.83092  0.65647  1.0000
  H   H1042     1.0  0.42551  0.88267  0.72371  1.0000
  H   H1043     1.0  0.43972  0.87166  0.71023  1.0000
  H   H1044     1.0  0.38834  0.86796  0.62258  1.0000
  H   H1045     1.0  0.40815  0.87273  0.59057  1.0000
  H   H1046     1.0  0.43703  0.83537  0.73943  1.0000
  H   H1047     1.0  0.42111  0.81672  0.72829  1.0000
  C   C607      1.0  0.45648  0.76201  0.86264  1.0000
  H   H1048     1.0  0.45897  0.77591  0.72719  1.0000
  C   C608      1.0  0.37727  0.84916  0.70808  1.0000
  H   H1049     1.0  0.37724  0.83664  0.72079  1.0000
  C   C609      1.0  0.40142  0.92011  0.27537  1.0000
  C   C610      1.0  0.39487  0.88876  0.27182  1.0000
  C   C611      1.0  0.41043  0.98069  0.02710  1.0000
  H   H1050     1.0  0.35339  0.88473  0.79369  1.0000
  S   S159      1.0  0.46564  0.78398  0.86709  1.0000
  C   C612      1.0  0.36759  0.87018  0.85455  1.0000
  C   C613      1.0  0.36558  0.85429  0.73889  1.0000
  C   C614      1.0  0.49659  0.87447  0.00966  1.0000
  H   H1051     1.0  0.33219  0.87637  0.82023  1.0000
  H   H1052     1.0  0.49166  0.99258  0.49767  1.0000
  H   H1053     1.0  0.39852  0.99920  0.92628  1.0000
  C   C615      1.0  0.37198  0.98888  0.99480  1.0000
  H   H1054     1.0  0.43081  0.76075  0.87284  1.0000
  H   H1055     1.0  0.37846  0.96012  0.10487  1.0000
  H   H1056     1.0  0.26431  0.84246  0.42796  1.0000
  H   H1057     1.0  0.39174  0.83833  0.64491  1.0000
  H   H1058     1.0  0.40771  0.82210  0.94779  1.0000
  H   H1059     1.0  0.25079  0.77473  0.00662  1.0000
  H   H1060     1.0  0.39119  0.83073  0.94684  1.0000
  S   S160      1.0  0.38574  0.96795  0.50027  1.0000
  H   H1061     1.0  0.40912  0.95890  0.54647  1.0000
  H   H1062     1.0  0.26688  0.82887  0.47063  1.0000
  H   H1063     1.0  0.29822  0.76145  0.00211  1.0000
  H   H1064     1.0  0.41218  0.84737  0.61745  1.0000
  H   H1065     1.0  0.32933  0.91617  0.76336  1.0000
  H   H1066     1.0  0.43611  0.93495  0.23577  1.0000
  H   H1067     1.0  0.42102  0.96995  0.21293  1.0000
  H   H1068     1.0  0.38821  0.98796  0.13078  1.0000
  H   H1069     1.0  0.46310  0.99581  0.47252  1.0000
  C   C616      1.0  0.36895  0.93686  0.70543  1.0000
  H   H1070     1.0  0.37815  0.94849  0.62217  1.0000
  H   H1071     1.0  0.31428  0.91519  0.42540  1.0000
  H   H1072     1.0  0.33982  0.83965  0.12418  1.0000
  H   H1073     1.0  0.25933  0.78112  0.95225  1.0000
  H   H1074     1.0  0.48171  0.81168  0.78388  1.0000
  C   C617      1.0  0.46780  0.95559  0.45301  1.0000
  H   H1075     1.0  0.38825  0.81191  0.98181  1.0000
  H   H1076     1.0  0.41764  0.90791  0.24366  1.0000
  H   H1077     1.0  0.37762  0.92252  0.93171  1.0000
  C   C618      1.0  0.39737  0.82428  0.96753  1.0000
  H   H1078     1.0  0.37852  0.90258  0.87950  1.0000
  H   H1079     1.0  0.38272  0.82534  0.04749  1.0000
  H   H1080     1.0  0.36075  0.84046  0.06467  1.0000
  C   C619      1.0  0.40904  0.97099  0.55412  1.0000
  H   H1081     1.0  0.40875  0.87025  0.97825  1.0000
  H   H1082     1.0  0.28736  0.76846  0.94737  1.0000
  H   H1083     1.0  0.48114  0.89904  0.48484  1.0000
  C   C620      1.0  0.37625  0.95791  0.64213  1.0000
  H   H1084     1.0  0.38066  0.96390  0.74556  1.0000
  H   H1085     1.0  0.45532  0.90149  0.70639  1.0000
  H   H1086     1.0  0.27314  0.78344  0.99194  1.0000
  C   C621      1.0  0.46131  0.95634  0.26477  1.0000
  H   H1087     1.0  0.46530  0.88867  0.52874  1.0000
  H   H1088     1.0  0.49669  0.88245  0.86498  1.0000
  H   H1089     1.0  0.36553  0.96779  0.71670  1.0000
  C   C622      1.0  0.48920  0.88839  0.65649  1.0000
  C   C623      1.0  0.45106  0.99366  0.49249  1.0000
  C   C624      1.0  0.29790  0.85058  0.48589  1.0000
  H   H1090     1.0  0.40348  0.98685  0.70173  1.0000
  H   H1091     1.0  0.35780  0.90582  0.93530  1.0000
  H   H1092     1.0  0.34113  0.86372  0.88042  1.0000
  H   H1093     1.0  0.38202  0.84166  0.01109  1.0000
  H   H1094     1.0  0.35569  0.84513  0.15818  1.0000
  H   H1095     1.0  0.38590  0.86812  0.03143  1.0000
  S   S161      1.0  0.49127  0.86469  0.78819  1.0000
  H   H1096     1.0  0.39721  0.87942  0.25211  1.0000
  C   C625      1.0  0.39805  0.95480  0.68242  1.0000
  H   H1097     1.0  0.38121  0.88639  0.27666  1.0000
  H   H1098     1.0  0.47417  0.94650  0.39610  1.0000
  H   H1099     1.0  0.36471  0.97543  0.58172  1.0000
  H   H1100     1.0  0.35492  0.96663  0.65801  1.0000
  C   C626      1.0  0.39448  0.98598  0.10182  1.0000
  H   H1101     1.0  0.33714  0.91190  0.71309  1.0000
  H   H1102     1.0  0.42066  0.88477  0.81568  1.0000
  C   C627      1.0  0.39045  0.83798  0.03093  1.0000
  C   C628      1.0  0.36520  0.84678  0.09210  1.0000
  C   C629      1.0  0.37948  0.89913  0.91278  1.0000
  H   H1103     1.0  0.39295  0.90339  0.91663  1.0000
  C   C630      1.0  0.35201  0.83863  0.13038  1.0000
  H   H1104     1.0  0.38002  0.83243  0.11359  1.0000
  H   H1105     1.0  0.40406  0.82314  0.09207  1.0000
  H   H1106     1.0  0.36544  0.85834  0.83996  1.0000
  C   C631      1.0  0.37110  0.90879  0.94011  1.0000
  H   H1107     1.0  0.38676  0.85351  0.12509  1.0000
  C   C632      1.0  0.42874  0.83404  0.10890  1.0000
  H   H1108     1.0  0.39744  0.94061  0.21407  1.0000
  H   H1109     1.0  0.44064  0.95884  0.30404  1.0000
  C   C633      1.0  0.44327  0.95617  0.27149  1.0000
  H   H1110     1.0  0.35310  0.82844  0.98867  1.0000
  H   H1111     1.0  0.34529  0.94248  0.71766  1.0000
  H   H1112     1.0  0.40172  0.95379  0.71441  1.0000
  H   H1113     1.0  0.45019  0.86548  0.05195  1.0000
  H   H1114     1.0  0.45965  0.96210  0.44032  1.0000
  C   C634      1.0  0.31990  0.85707  0.53078  1.0000
  H   H1115     1.0  0.35787  0.87691  0.93392  1.0000
  H   H1116     1.0  0.37168  0.90555  0.97380  1.0000
  C   C635      1.0  0.41373  0.89495  0.99604  1.0000
  C   C636      1.0  0.38244  0.84559  0.09983  1.0000
  C   C637      1.0  0.40450  0.83501  0.00140  1.0000
  H   H1117     1.0  0.41123  0.82822  0.01944  1.0000
  H   H1118     1.0  0.40503  0.83433  0.13723  1.0000
  H   H1119     1.0  0.35034  0.82511  0.13734  1.0000
  H   H1120     1.0  0.40239  0.94417  0.62430  1.0000
  H   H1121     1.0  0.38812  0.91925  0.27541  1.0000
  H   H1122     1.0  0.41663  0.97868  0.99811  1.0000
  H   H1123     1.0  0.42364  0.90070  0.96883  1.0000
  C   C638      1.0  0.33164  0.85058  0.50228  1.0000
  H   H1124     1.0  0.38519  0.97009  0.62630  1.0000
  H   H1125     1.0  0.38495  0.86214  0.55013  1.0000
  N   N33       1.0  0.39582  0.85044  0.06203  1.0000
  C   C639      1.0  0.41125  0.83462  0.10505  1.0000
  C   C640      1.0  0.39419  0.87483  0.88258  1.0000
  H   H1126     1.0  0.46842  0.93211  0.05933  1.0000
  H   H1127     1.0  0.41392  0.84685  0.98558  1.0000
  C   C641      1.0  0.37155  0.87989  0.92583  1.0000
  H   H1128     1.0  0.36602  0.86012  0.08657  1.0000
  N   N34       1.0  0.37540  0.86904  0.89420  1.0000
  H   H1129     1.0  0.42780  0.82274  0.13023  1.0000
  S   S162      1.0  0.32049  0.82509  0.71631  1.0000
  H   H1130     1.0  0.41396  0.93339  0.19577  1.0000
  H   H1131     1.0  0.46477  0.95431  0.23200  1.0000
  H   H1132     1.0  0.36585  0.92829  0.68074  1.0000
  H   H1133     1.0  0.31595  0.76185  0.83648  1.0000
  H   H1134     1.0  0.39448  0.94913  0.28098  1.0000
  H   H1135     1.0  0.39326  0.92845  0.66867  1.0000
  C   C642      1.0  0.41200  0.85075  0.07743  1.0000
  H   H1136     1.0  0.28310  0.87629  0.61637  1.0000
  Fe  Fe81      1.0  0.49040  0.95334  0.56751  1.0000
  C   C643      1.0  0.30587  0.87920  0.57461  1.0000
  N   N35       1.0  0.49473  0.92521  0.94989  1.0000
  C   C644      1.0  0.46309  0.86784  0.03999  1.0000
  H   H1137     1.0  0.32279  0.88382  0.93189  1.0000
  C   C645      1.0  0.39759  0.86796  0.04346  1.0000
  H   H1138     1.0  0.40044  0.87556  0.91132  1.0000
  Fe  Fe82      1.0  0.28032  0.79421  0.85002  1.0000
  H   H1139     1.0  0.42210  0.85317  0.05089  1.0000
  H   H1140     1.0  0.43634  0.84536  0.12191  1.0000
  H   H1141     1.0  0.43520  0.83336  0.07775  1.0000
  H   H1142     1.0  0.37581  0.87710  0.95619  1.0000
  H   H1143     1.0  0.40249  0.95547  0.39369  1.0000
  H   H1144     1.0  0.41645  0.86144  0.09622  1.0000
  H   H1145     1.0  0.39942  0.87642  0.06842  1.0000
  H   H1146     1.0  0.42409  0.87615  0.01391  1.0000
  C   C646      1.0  0.29425  0.88650  0.59937  1.0000
  H   H1147     1.0  0.46300  0.94643  0.28664  1.0000
  C   C647      1.0  0.41930  0.87304  0.83590  1.0000
  H   H1148     1.0  0.34134  0.84148  0.63922  1.0000
  C   C648      1.0  0.39693  0.96746  0.04988  1.0000
  C   C649      1.0  0.38802  0.85312  0.57199  1.0000
  H   H1149     1.0  0.35318  0.81776  0.94243  1.0000
  H   H1150     1.0  0.41515  0.97052  0.35053  1.0000
  H   H1151     1.0  0.37697  0.85047  0.94161  1.0000
  H   H1152     1.0  0.42247  0.93131  0.64627  1.0000
  H   H1153     1.0  0.34616  0.85060  0.95064  1.0000
  C   C650      1.0  0.41180  0.87646  0.00664  1.0000
  C   C651      1.0  0.38894  0.97019  0.08721  1.0000
  N   N36       1.0  0.38010  0.95429  0.68570  1.0000
  C   C652      1.0  0.34772  0.82610  0.95898  1.0000
  C   C653      1.0  0.40388  0.95912  0.35936  1.0000
  H   H1154     1.0  0.41654  0.94167  0.34463  1.0000
  H   H1155     1.0  0.41526  0.96253  0.27962  1.0000
  H   H1156     1.0  0.31697  0.88971  0.55868  1.0000
  C   C654      1.0  0.29690  0.86790  0.54285  1.0000
  H   H1157     1.0  0.29169  0.83879  0.50784  1.0000
  C   C655      1.0  0.41928  0.97918  0.58251  1.0000
  H   H1158     1.0  0.42388  0.86486  0.81634  1.0000
  H   H1159     1.0  0.40184  0.89622  0.98801  1.0000
  H   H1160     1.0  0.29022  0.89494  0.57812  1.0000
  C   C656      1.0  0.36988  0.85112  0.91489  1.0000
  H   H1161     1.0  0.46996  0.96871  0.27041  1.0000
  C   C657      1.0  0.35105  0.84266  0.93137  1.0000
  C   C658      1.0  0.40100  0.86389  0.85434  1.0000
  H   H1162     1.0  0.29749  0.88790  0.46441  1.0000
  H   H1163     1.0  0.37565  0.93113  0.72666  1.0000
  H   H1164     1.0  0.34718  0.90925  0.75855  1.0000
  H   H1165     1.0  0.47738  0.80515  0.71148  1.0000
  C   C659      1.0  0.40556  0.94471  0.33586  1.0000
  H   H1166     1.0  0.34385  0.83978  0.90466  1.0000
  H   H1167     1.0  0.39368  0.86054  0.82794  1.0000
  H   H1168     1.0  0.31094  0.90058  0.49660  1.0000
  H   H1169     1.0  0.41740  0.90195  0.02314  1.0000
  H   H1170     1.0  0.34722  0.97124  0.99029  1.0000
  H   H1171     1.0  0.45588  0.89560  0.65416  1.0000
  H   H1172     1.0  0.40260  0.91623  0.30826  1.0000
  C   C660      1.0  0.47683  0.87314  0.67434  1.0000
  H   H1173     1.0  0.28848  0.87381  0.52933  1.0000
  C   C661      1.0  0.48808  0.88733  0.88384  1.0000
  C   C662      1.0  0.41083  0.94219  0.21606  1.0000
  H   H1174     1.0  0.42720  0.97329  0.59678  1.0000
  C   C663      1.0  0.41626  0.96358  0.15207  1.0000
  C   C664      1.0  0.46114  0.92054  0.04676  1.0000
  H   H1175     1.0  0.46580  0.87873  0.48156  1.0000
  H   H1176     1.0  0.29046  0.86448  0.43590  1.0000
  H   H1177     1.0  0.37278  0.84273  0.89281  1.0000
  H   H1178     1.0  0.44218  0.90683  0.67139  1.0000
  H   H1179     1.0  0.38951  0.99000  0.66620  1.0000
  H   H1180     1.0  0.40041  0.85209  0.87310  1.0000
  C   C665      1.0  0.40708  0.94925  0.28771  1.0000
  H   H1181     1.0  0.37618  0.84304  0.58600  1.0000
  H   H1182     1.0  0.44194  0.98168  0.48606  1.0000
  S   S163      1.0  0.28635  0.82090  0.81920  1.0000
  H   H1183     1.0  0.28835  0.85599  0.56148  1.0000
  H   H1184     1.0  0.46220  0.76117  0.00273  1.0000
  H   H1185     1.0  0.39921  0.88701  0.30254  1.0000
  C   C666      1.0  0.48136  0.79671  0.73281  1.0000
  H   H1186     1.0  0.27211  0.76151  0.91436  1.0000
  H   H1187     1.0  0.48649  0.94034  0.99230  1.0000
  C   C667      1.0  0.28439  0.85462  0.46288  1.0000
  H   H1188     1.0  0.42029  0.93744  0.69804  1.0000
  C   C668      1.0  0.32016  0.90546  0.43089  1.0000
  H   H1189     1.0  0.31013  0.87158  0.59763  1.0000
  C   C669      1.0  0.36051  0.97197  0.98517  1.0000
  C   C670      1.0  0.48678  0.90868  0.93344  1.0000
  H   H1190     1.0  0.39623  0.84760  0.55379  1.0000
  H   H1191     1.0  0.39420  0.93359  0.34697  1.0000
  H   H1192     1.0  0.42420  0.97631  0.13686  1.0000
  H   H1193     1.0  0.33600  0.83423  0.55229  1.0000
  H   H1194     1.0  0.32254  0.87560  0.44852  1.0000
  C   C671      1.0  0.34084  0.91702  0.74255  1.0000
  H   H1195     1.0  0.39943  0.90721  0.21891  1.0000
  C   C672      1.0  0.40421  0.90645  0.24941  1.0000
  C   C673      1.0  0.49254  0.88208  0.04442  1.0000
  H   H1196     1.0  0.49037  0.93813  0.89403  1.0000
  H   H1197     1.0  0.49262  0.83552  0.73205  1.0000
  C   C674      1.0  0.39903  0.99440  0.54507  1.0000
  H   H1198     1.0  0.44910  0.76000  0.96166  1.0000
  H   H1199     1.0  0.47988  0.89074  0.86283  1.0000
  H   H1200     1.0  0.38491  0.98876  0.99046  1.0000
  C   C675      1.0  0.26171  0.75765  0.97873  1.0000
  C   C676      1.0  0.44936  0.75544  0.99478  1.0000
  H   H1201     1.0  0.30287  0.75225  0.79876  1.0000
  H   H1202     1.0  0.48146  0.99494  0.62506  1.0000
  H   H1203     1.0  0.45281  0.99240  0.52609  1.0000
  H   H1204     1.0  0.38706  0.99454  0.75987  1.0000
  H   H1205     1.0  0.44841  0.99678  0.06207  1.0000
  C   C677      1.0  0.46706  0.75250  0.85516  1.0000
  C   C678      1.0  0.38609  0.99798  0.72654  1.0000
  H   H1206     1.0  0.28561  0.75769  0.85765  1.0000
  C   C679      1.0  0.41927  0.99483  0.59304  1.0000
  H   H1207     1.0  0.47768  0.99950  0.06031  1.0000
  C   C680      1.0  0.49825  0.90267  0.90306  1.0000
  H   H1208     1.0  0.49510  0.96075  0.93596  1.0000
  H   H1209     1.0  0.26321  0.75246  0.01004  1.0000
  H   H1210     1.0  0.31190  0.75260  0.97342  1.0000
  H   H1211     1.0  0.31596  0.75251  0.04736  1.0000
  Fe  Fe83      1.0  0.57446  0.06058  0.00386  1.0000
  S   S164      1.0  0.60257  0.07299  0.99491  1.0000
  H   H1212     1.0  0.61463  0.10716  0.18125  1.0000
  Fe  Fe84      1.0  0.56874  0.09422  0.00134  1.0000
  S   S165      1.0  0.59600  0.10930  0.99285  1.0000
  S   S166      1.0  0.54907  0.10635  0.00940  1.0000
  Fe  Fe85      1.0  0.59849  0.09150  0.94638  1.0000
  S   S167      1.0  0.61286  0.10322  0.88179  1.0000
  Fe  Fe86      1.0  0.59773  0.08992  0.04189  1.0000
  S   S168      1.0  0.61050  0.09597  0.10018  1.0000
  S   S169      1.0  0.57102  0.07787  0.95182  1.0000
  S   S170      1.0  0.56998  0.07599  0.05384  1.0000
  Fe  Fe87      1.0  0.59248  0.08376  0.65336  1.0000
  S   S171      1.0  0.60755  0.08221  0.59302  1.0000
  S   S172      1.0  0.59489  0.07039  0.71511  1.0000
  Fe  Fe88      1.0  0.57190  0.10081  0.60755  1.0000
  S   S173      1.0  0.58492  0.10043  0.54440  1.0000
  S   S174      1.0  0.55096  0.11118  0.60845  1.0000
  Fe  Fe89      1.0  0.58282  0.07415  0.56825  1.0000
  H   H1213     1.0  0.52797  0.10933  0.49382  1.0000
  Fe  Fe90      1.0  0.60825  0.10864  0.57414  1.0000
  S   S175      1.0  0.63012  0.13142  0.54368  1.0000
  S   S176      1.0  0.56776  0.07389  0.62926  1.0000
  S   S177      1.0  0.59527  0.11085  0.63680  1.0000
  H   H1214     1.0  0.56187  0.08772  0.14411  1.0000
  C   C681      1.0  0.51051  0.17866  0.47138  1.0000
  H   H1215     1.0  0.51817  0.13196  0.92281  1.0000
  H   H1216     1.0  0.71186  0.22330  0.30999  1.0000
  H   H1217     1.0  0.62963  0.24691  0.43479  1.0000
  H   H1218     1.0  0.68046  0.23006  0.43516  1.0000
  S   S178      1.0  0.51849  0.18085  0.34748  1.0000
  Fe  Fe91      1.0  0.52200  0.17163  0.28522  1.0000
  S   S179      1.0  0.54682  0.17741  0.24448  1.0000
  H   H1219     1.0  0.56618  0.01971  0.87271  1.0000
  H   H1220     1.0  0.53701  0.19437  0.46945  1.0000
  C   C682      1.0  0.51297  0.20736  0.44664  1.0000
  C   C683      1.0  0.51673  0.00938  0.63252  1.0000
  Fe  Fe92      1.0  0.67098  0.20314  0.26442  1.0000
  S   S180      1.0  0.65627  0.19174  0.32805  1.0000
  S   S181      1.0  0.69100  0.22952  0.24733  1.0000
  Fe  Fe93      1.0  0.64679  0.17572  0.22026  1.0000
  S   S182      1.0  0.63026  0.16289  0.28033  1.0000
  S   S183      1.0  0.64202  0.16876  0.15478  1.0000
  Fe  Fe94      1.0  0.63339  0.18875  0.29679  1.0000
  S   S184      1.0  0.61238  0.19480  0.33212  1.0000
  Fe  Fe95      1.0  0.65427  0.16671  0.30710  1.0000
  S   S185      1.0  0.65480  0.14394  0.34764  1.0000
  S   S186      1.0  0.64783  0.20153  0.23456  1.0000
  S   S187      1.0  0.67097  0.17802  0.24548  1.0000
  C   C684      1.0  0.68450  0.22573  0.40573  1.0000
  H   H1221     1.0  0.57785  0.10114  0.17035  1.0000
  N   N37       1.0  0.50541  0.01500  0.60652  1.0000
  H   H1222     1.0  0.73079  0.14049  0.07947  1.0000
  H   H1223     1.0  0.58645  0.13274  0.12813  1.0000
  C   C685      1.0  0.56494  0.18258  0.26934  1.0000
  C   C686      1.0  0.58048  0.18542  0.24544  1.0000
  C   C687      1.0  0.59509  0.18902  0.26456  1.0000
  C   C688      1.0  0.59426  0.19027  0.30756  1.0000
  C   C689      1.0  0.57876  0.18763  0.33145  1.0000
  C   C690      1.0  0.56410  0.18356  0.31249  1.0000
  H   H1224     1.0  0.58121  0.18494  0.21204  1.0000
  H   H1225     1.0  0.60702  0.19111  0.24596  1.0000
  H   H1226     1.0  0.57807  0.18855  0.36474  1.0000
  H   H1227     1.0  0.55220  0.18126  0.33124  1.0000
  H   H1228     1.0  0.51715  0.23121  0.28356  1.0000
  C   C691      1.0  0.57101  0.10058  0.14275  1.0000
  C   C692      1.0  0.58277  0.12185  0.39551  1.0000
  H   H1229     1.0  0.57896  0.04163  0.86967  1.0000
  C   C693      1.0  0.56793  0.13915  0.36388  1.0000
  H   H1230     1.0  0.54184  0.13017  0.14642  1.0000
  H   H1231     1.0  0.58915  0.14392  0.98931  1.0000
  H   H1232     1.0  0.53996  0.13014  0.50362  1.0000
  H   H1233     1.0  0.58273  0.08882  0.41097  1.0000
  H   H1234     1.0  0.71790  0.24559  0.15131  1.0000
  C   C694      1.0  0.53336  0.09631  0.63841  1.0000
  C   C695      1.0  0.53516  0.08702  0.67429  1.0000
  C   C696      1.0  0.52115  0.07464  0.69743  1.0000
  H   H1235     1.0  0.59872  0.17179  0.08892  1.0000
  H   H1236     1.0  0.65963  0.10755  0.02308  1.0000
  C   C697      1.0  0.51758  0.09320  0.62562  1.0000
  H   H1237     1.0  0.54732  0.08957  0.68449  1.0000
  H   H1238     1.0  0.54936  0.16721  0.16018  1.0000
  C   C698      1.0  0.55446  0.03828  0.81652  1.0000
  H   H1239     1.0  0.51621  0.10037  0.59777  1.0000
  C   C699      1.0  0.63555  0.13479  0.48858  1.0000
  C   C700      1.0  0.63197  0.12144  0.46438  1.0000
  C   C701      1.0  0.63777  0.12441  0.42106  1.0000
  C   C702      1.0  0.64658  0.14077  0.40137  1.0000
  C   C703      1.0  0.64969  0.15417  0.42539  1.0000
  C   C704      1.0  0.64446  0.15113  0.46895  1.0000
  H   H1240     1.0  0.62528  0.10878  0.47927  1.0000
  H   H1241     1.0  0.63557  0.11396  0.40279  1.0000
  H   H1242     1.0  0.65667  0.16678  0.41065  1.0000
  H   H1243     1.0  0.64738  0.16149  0.48755  1.0000
  C   C705      1.0  0.53104  0.09433  0.99030  1.0000
  C   C706      1.0  0.51530  0.09285  0.01074  1.0000
  H   H1244     1.0  0.51929  0.01056  0.55125  1.0000
  H   H1245     1.0  0.69816  0.14026  0.16726  1.0000
  C   C707      1.0  0.51779  0.07417  0.94443  1.0000
  C   C708      1.0  0.53222  0.08537  0.95632  1.0000
  H   H1246     1.0  0.51426  0.09989  0.03675  1.0000
  H   H1247     1.0  0.52149  0.23318  0.38102  1.0000
  H   H1248     1.0  0.51881  0.06706  0.91863  1.0000
  H   H1249     1.0  0.54424  0.08721  0.93892  1.0000
  C   C709      1.0  0.60634  0.09388  0.83665  1.0000
  C   C710      1.0  0.60295  0.07669  0.83526  1.0000
  C   C711      1.0  0.59970  0.06979  0.79761  1.0000
  C   C712      1.0  0.59916  0.07984  0.76143  1.0000
  C   C713      1.0  0.60225  0.09701  0.76290  1.0000
  C   C714      1.0  0.60614  0.10404  0.80019  1.0000
  H   H1250     1.0  0.60353  0.06886  0.86282  1.0000
  H   H1251     1.0  0.59775  0.05659  0.79648  1.0000
  H   H1252     1.0  0.60189  0.10490  0.73524  1.0000
  H   H1253     1.0  0.60895  0.11739  0.80092  1.0000
  C   C715      1.0  0.61679  0.11638  0.11598  1.0000
  C   C716      1.0  0.62166  0.13077  0.08672  1.0000
  C   C717      1.0  0.62901  0.14673  0.09935  1.0000
  C   C718      1.0  0.63105  0.14856  0.14154  1.0000
  C   C719      1.0  0.62519  0.13426  0.17127  1.0000
  C   C720      1.0  0.61839  0.11823  0.15838  1.0000
  H   H1254     1.0  0.62055  0.12953  0.05399  1.0000
  H   H1255     1.0  0.63338  0.15772  0.07615  1.0000
  H   H1256     1.0  0.62655  0.13548  0.20390  1.0000
  H   H1257     1.0  0.60878  0.17975  0.17542  1.0000
  H   H1258     1.0  0.65811  0.14459  0.17841  1.0000
  H   H1259     1.0  0.66877  0.13319  0.26680  1.0000
  C   C721      1.0  0.65736  0.12561  0.25444  1.0000
  H   H1260     1.0  0.56570  0.04144  0.67658  1.0000
  H   H1261     1.0  0.51705  0.13830  0.15547  1.0000
  N   N38       1.0  0.50543  0.02805  0.06635  1.0000
  C   C722      1.0  0.56509  0.01040  0.59856  1.0000
  H   H1262     1.0  0.68956  0.12139  0.14563  1.0000
  H   H1263     1.0  0.72597  0.13803  0.13580  1.0000
  H   H1264     1.0  0.51243  0.24679  0.40677  1.0000
  C   C723      1.0  0.53470  0.16874  0.48538  1.0000
  H   H1265     1.0  0.50261  0.16628  0.48847  1.0000
  C   C724      1.0  0.53243  0.06205  0.56870  1.0000
  C   C725      1.0  0.68873  0.17145  0.13088  1.0000
  C   C726      1.0  0.66412  0.12538  0.11701  1.0000
  H   H1266     1.0  0.56488  0.03124  0.91641  1.0000
  H   H1267     1.0  0.57021  0.00597  0.12917  1.0000
  H   H1268     1.0  0.51382  0.01929  0.92316  1.0000
  C   C727      1.0  0.56652  0.03215  0.88174  1.0000
  H   H1269     1.0  0.52000  0.11153  0.92023  1.0000
  C   C728      1.0  0.56309  0.00445  0.10309  1.0000
  H   H1270     1.0  0.50611  0.04325  0.00859  1.0000
  H   H1271     1.0  0.50159  0.11361  0.94914  1.0000
  N   N39       1.0  0.67646  0.13901  0.13612  1.0000
  H   H1272     1.0  0.70059  0.19838  0.11511  1.0000
  C   C729      1.0  0.51425  0.02904  0.94430  1.0000
  H   H1273     1.0  0.50196  0.03851  0.58640  1.0000
  H   H1274     1.0  0.69821  0.23218  0.39718  1.0000
  H   H1275     1.0  0.56846  0.00630  0.62790  1.0000
  C   C730      1.0  0.69439  0.18730  0.09930  1.0000
  H   H1276     1.0  0.70342  0.18641  0.07305  1.0000
  C   C731      1.0  0.66961  0.12259  0.07180  1.0000
  N   N40       1.0  0.50180  0.19150  0.47389  1.0000
  H   H1277     1.0  0.53866  0.04077  0.59129  1.0000
  H   H1278     1.0  0.64992  0.11448  0.19954  1.0000
  C   C732      1.0  0.51811  0.23687  0.41200  1.0000
  H   H1279     1.0  0.52804  0.04175  0.09082  1.0000
  H   H1280     1.0  0.51139  0.20254  0.52810  1.0000
  H   H1281     1.0  0.65190  0.11337  0.27467  1.0000
  H   H1282     1.0  0.68343  0.18920  0.08669  1.0000
  H   H1283     1.0  0.55339  0.04961  0.87574  1.0000
  H   H1284     1.0  0.66885  0.08753  0.56149  1.0000
  C   C733      1.0  0.51477  0.04126  0.09211  1.0000
  H   H1285     1.0  0.67966  0.11699  0.07187  1.0000
  C   C734      1.0  0.51066  0.02097  0.98981  1.0000
  H   H1286     1.0  0.52635  0.18526  0.52150  1.0000
  C   C735      1.0  0.67926  0.15570  0.11077  1.0000
  C   C736      1.0  0.73039  0.24758  0.31358  1.0000
  C   C737      1.0  0.60804  0.18327  0.14197  1.0000
  C   C738      1.0  0.68144  0.20690  0.41409  1.0000
  H   H1287     1.0  0.55607  0.11287  0.11293  1.0000
  C   C739      1.0  0.52870  0.04307  0.57487  1.0000
  H   H1288     1.0  0.54813  0.11309  0.51100  1.0000
  H   H1289     1.0  0.69980  0.17005  0.14381  1.0000
  H   H1290     1.0  0.52305  0.06522  0.55152  1.0000
  H   H1291     1.0  0.64968  0.09827  0.07545  1.0000
  N   N41       1.0  0.57766  0.13719  0.39939  1.0000
  C   C740      1.0  0.56665  0.13601  0.44010  1.0000
  C   C741      1.0  0.59281  0.15294  0.39528  1.0000
  C   C742      1.0  0.58495  0.11236  0.43652  1.0000
  C   C743      1.0  0.54894  0.12247  0.44549  1.0000
  C   C744      1.0  0.60451  0.15416  0.42934  1.0000
  C   C745      1.0  0.61765  0.17171  0.42500  1.0000
  C   C746      1.0  0.54081  0.11856  0.49131  1.0000
  H   H1292     1.0  0.56480  0.14827  0.44343  1.0000
  H   H1293     1.0  0.57275  0.13370  0.46755  1.0000
  H   H1294     1.0  0.60101  0.15448  0.36509  1.0000
  H   H1295     1.0  0.58878  0.16419  0.39434  1.0000
  H   H1296     1.0  0.56302  0.14971  0.36743  1.0000
  H   H1297     1.0  0.57278  0.10649  0.45696  1.0000
  H   H1298     1.0  0.59364  0.12077  0.45479  1.0000
  H   H1299     1.0  0.54067  0.12710  0.42708  1.0000
  H   H1300     1.0  0.54938  0.11060  0.43422  1.0000
  H   H1301     1.0  0.59765  0.15168  0.46151  1.0000
  H   H1302     1.0  0.61135  0.14518  0.42554  1.0000
  H   H1303     1.0  0.62584  0.17433  0.39446  1.0000
  H   H1304     1.0  0.66107  0.11294  0.13586  1.0000
  H   H1305     1.0  0.62552  0.17252  0.45053  1.0000
  H   H1306     1.0  0.60395  0.10331  0.40672  1.0000
  H   H1307     1.0  0.63991  0.08645  0.63359  1.0000
  S   S188      1.0  0.55772  0.03362  0.00263  1.0000
  H   H1308     1.0  0.64349  0.10604  0.57150  1.0000
  C   C747      1.0  0.65740  0.09018  0.55481  1.0000
  H   H1309     1.0  0.65892  0.09476  0.52090  1.0000
  C   C748      1.0  0.55697  0.02104  0.52218  1.0000
  C   C749      1.0  0.59165  0.09822  0.42693  1.0000
  C   C750      1.0  0.65467  0.10354  0.58081  1.0000
  H   H1310     1.0  0.64644  0.07839  0.56167  1.0000
  H   H1311     1.0  0.57483  0.17218  0.13472  1.0000
  H   H1312     1.0  0.59472  0.12525  0.37379  1.0000
  H   H1313     1.0  0.57999  0.10317  0.11361  1.0000
  H   H1314     1.0  0.64683  0.15621  0.61485  1.0000
  H   H1315     1.0  0.66558  0.11520  0.57198  1.0000
  H   H1316     1.0  0.63539  0.15904  0.66215  1.0000
  H   H1317     1.0  0.65222  0.12991  0.60981  1.0000
  H   H1318     1.0  0.68483  0.12173  0.61461  1.0000
  C   C751      1.0  0.67525  0.22972  0.36954  1.0000
  H   H1319     1.0  0.57690  0.12835  0.05836  1.0000
  H   H1320     1.0  0.55674  0.12771  0.36486  1.0000
  H   H1321     1.0  0.58653  0.15530  0.31228  1.0000
  C   C752      1.0  0.63699  0.14963  0.64171  1.0000
  H   H1322     1.0  0.63179  0.11636  0.62941  1.0000
  C   C753      1.0  0.66237  0.24945  0.40161  1.0000
  H   H1323     1.0  0.73238  0.24960  0.10372  1.0000
  H   H1324     1.0  0.67239  0.10844  0.68621  1.0000
  H   H1325     1.0  0.70765  0.14574  0.63127  1.0000
  C   C754      1.0  0.57762  0.14224  0.31886  1.0000
  C   C755      1.0  0.64418  0.12292  0.63915  1.0000
  C   C756      1.0  0.65177  0.09744  0.62856  1.0000
  C   C757      1.0  0.54585  0.02973  0.72871  1.0000
  H   H1326     1.0  0.64517  0.11579  0.05023  1.0000
  H   H1327     1.0  0.51254  0.17629  0.43825  1.0000
  H   H1328     1.0  0.62499  0.14378  0.62952  1.0000
  H   H1329     1.0  0.67810  0.13953  0.62216  1.0000
  C   C758      1.0  0.68173  0.12945  0.63809  1.0000
  H   H1330     1.0  0.70218  0.12839  0.67231  1.0000
  H   H1331     1.0  0.62096  0.18826  0.12485  1.0000
  H   H1332     1.0  0.55183  0.10936  0.16922  1.0000
  H   H1333     1.0  0.57343  0.11227  0.38075  1.0000
  C   C759      1.0  0.51037  0.23858  0.29785  1.0000
  H   H1334     1.0  0.66170  0.09210  0.63484  1.0000
  N   N42       1.0  0.65091  0.11009  0.65863  1.0000
  C   C760      1.0  0.64185  0.13631  0.66687  1.0000
  H   H1335     1.0  0.59331  0.09173  0.45657  1.0000
  H   H1336     1.0  0.62597  0.09577  0.68828  1.0000
  H   H1337     1.0  0.58480  0.13358  0.31469  1.0000
  C   C761      1.0  0.66769  0.11820  0.67256  1.0000
  H   H1338     1.0  0.69544  0.14622  0.67979  1.0000
  H   H1339     1.0  0.65353  0.14292  0.67937  1.0000
  H   H1340     1.0  0.63166  0.13049  0.69341  1.0000
  C   C762      1.0  0.69770  0.13793  0.65669  1.0000
  H   H1341     1.0  0.54501  0.06838  0.55032  1.0000
  C   C763      1.0  0.56197  0.11336  0.14208  1.0000
  H   H1342     1.0  0.67768  0.14861  0.19636  1.0000
  C   C764      1.0  0.63879  0.10076  0.69707  1.0000
  C   C765      1.0  0.52763  0.18307  0.48814  1.0000
  H   H1343     1.0  0.55385  0.02554  0.80930  1.0000
  H   H1344     1.0  0.57310  0.14371  0.25398  1.0000
  H   H1345     1.0  0.66652  0.12566  0.69874  1.0000
  H   H1346     1.0  0.63091  0.07444  0.72449  1.0000
  H   H1347     1.0  0.63779  0.10940  0.72048  1.0000
  S   S189      1.0  0.57320  0.05444  0.52537  1.0000
  H   H1348     1.0  0.55097  0.02165  0.66867  1.0000
  C   C766      1.0  0.72064  0.13499  0.10630  1.0000
  H   H1349     1.0  0.51272  0.12239  0.85392  1.0000
  H   H1350     1.0  0.50782  0.01239  0.14793  1.0000
  H   H1351     1.0  0.65223  0.08210  0.70232  1.0000
  C   C767      1.0  0.64243  0.08571  0.72019  1.0000
  C   C768      1.0  0.56575  0.13985  0.28576  1.0000
  H   H1352     1.0  0.54715  0.09487  0.80051  1.0000
  C   C769      1.0  0.51064  0.03346  0.78462  1.0000
  H   H1353     1.0  0.53277  0.06475  0.79020  1.0000
  H   H1354     1.0  0.54025  0.05286  0.73151  1.0000
  C   C770      1.0  0.57404  0.13130  0.14531  1.0000
  H   H1355     1.0  0.57619  0.13171  0.17873  1.0000
  C   C771      1.0  0.64741  0.08904  0.76366  1.0000
  H   H1356     1.0  0.63729  0.09149  0.78372  1.0000
  H   H1357     1.0  0.67401  0.13439  0.04996  1.0000
  H   H1358     1.0  0.54057  0.02781  0.87919  1.0000
  C   C772      1.0  0.55574  0.09065  0.81856  1.0000
  H   H1359     1.0  0.56353  0.07818  0.76949  1.0000
  H   H1360     1.0  0.56806  0.10092  0.81428  1.0000
  H   H1361     1.0  0.52534  0.01794  0.80302  1.0000
  C   C773      1.0  0.55803  0.07492  0.80302  1.0000
  H   H1362     1.0  0.55462  0.13875  0.07768  1.0000
  H   H1363     1.0  0.55072  0.08819  0.85249  1.0000
  H   H1364     1.0  0.56784  0.14329  0.99981  1.0000
  H   H1365     1.0  0.59298  0.14749  0.06319  1.0000
  C   C774      1.0  0.58014  0.14221  0.05542  1.0000
  H   H1366     1.0  0.65909  0.09999  0.76130  1.0000
  H   H1367     1.0  0.55771  0.12646  0.28797  1.0000
  C   C775      1.0  0.58048  0.14834  0.00940  1.0000
  C   C776      1.0  0.54112  0.06024  0.80852  1.0000
  C   C777      1.0  0.54724  0.04610  0.74860  1.0000
  H   H1368     1.0  0.53530  0.05848  0.84182  1.0000
  H   H1369     1.0  0.56048  0.05444  0.74076  1.0000
  H   H1370     1.0  0.52237  0.06780  0.72574  1.0000
  C   C778      1.0  0.56705  0.14694  0.08430  1.0000
  C   C779      1.0  0.55081  0.14194  0.15462  1.0000
  H   H1371     1.0  0.55105  0.13985  0.18909  1.0000
  N   N43       1.0  0.56805  0.14543  0.13088  1.0000
  H   H1372     1.0  0.64947  0.07785  0.77911  1.0000
  H   H1373     1.0  0.56741  0.04652  0.80366  1.0000
  H   H1374     1.0  0.56782  0.15995  0.07285  1.0000
  H   H1375     1.0  0.55763  0.14764  0.28995  1.0000
  C   C780      1.0  0.56642  0.03300  0.54552  1.0000
  H   H1376     1.0  0.55402  0.02508  0.49223  1.0000
  H   H1377     1.0  0.57787  0.03680  0.60182  1.0000
  H   H1378     1.0  0.56710  0.07171  0.82119  1.0000
  C   C781      1.0  0.50364  0.08053  0.64829  1.0000
  C   C782      1.0  0.52464  0.14965  0.16828  1.0000
  C   C783      1.0  0.59779  0.16791  0.12298  1.0000
  N   N44       1.0  0.54188  0.04383  0.79534  1.0000
  H   H1379     1.0  0.58489  0.16228  0.00414  1.0000
  H   H1380     1.0  0.53709  0.07133  0.10952  1.0000
  C   C784      1.0  0.55225  0.03355  0.68196  1.0000
  H   H1381     1.0  0.68593  0.15658  0.07894  1.0000
  C   C785      1.0  0.52482  0.03064  0.80750  1.0000
  H   H1382     1.0  0.57901  0.16050  0.17800  1.0000
  H   H1383     1.0  0.54272  0.15886  0.11287  1.0000
  C   C786      1.0  0.54271  0.15563  0.14686  1.0000
  C   C787      1.0  0.57931  0.16163  0.14326  1.0000
  H   H1384     1.0  0.60357  0.15817  0.12786  1.0000
  S   S190      1.0  0.50494  0.14129  0.42991  1.0000
  H   H1385     1.0  0.54489  0.04005  0.66548  1.0000
  H   H1386     1.0  0.60246  0.19338  0.13958  1.0000
  H   H1387     1.0  0.52063  0.02988  0.84161  1.0000
  C   C788      1.0  0.66166  0.12275  0.20921  1.0000
  H   H1388     1.0  0.57355  0.03073  0.07775  1.0000
  H   H1389     1.0  0.70214  0.13937  0.07143  1.0000
  H   H1390     1.0  0.54681  0.17205  0.49802  1.0000
  C   C789      1.0  0.55603  0.01653  0.03985  1.0000
  C   C790      1.0  0.51532  0.05948  0.07903  1.0000
  H   H1391     1.0  0.68575  0.20224  0.38541  1.0000
  H   H1392     1.0  0.65181  0.22488  0.44057  1.0000
  C   C791      1.0  0.56502  0.01847  0.07398  1.0000
  C   C792      1.0  0.65513  0.11029  0.05426  1.0000
  H   H1393     1.0  0.66793  0.19980  0.42413  1.0000
  H   H1394     1.0  0.55342  0.02295  0.74309  1.0000
  H   H1395     1.0  0.53270  0.02116  0.73228  1.0000
  H   H1396     1.0  0.71587  0.12114  0.10640  1.0000
  H   H1397     1.0  0.67090  0.11611  0.20864  1.0000
  C   C793      1.0  0.71638  0.23657  0.29860  1.0000
  H   H1398     1.0  0.51402  0.03570  0.75007  1.0000
  C   C794      1.0  0.57040  0.02766  0.58391  1.0000
  H   H1399     1.0  0.71221  0.15608  0.10002  1.0000
  C   C795      1.0  0.70662  0.14222  0.10176  1.0000
  H   H1400     1.0  0.52578  0.04166  0.01689  1.0000
  C   C796      1.0  0.66856  0.13960  0.17984  1.0000
  H   H1401     1.0  0.61160  0.18143  0.42719  1.0000
  H   H1402     1.0  0.65212  0.12786  0.11741  1.0000
  H   H1403     1.0  0.65000  0.22474  0.32168  1.0000
  H   H1404     1.0  0.68027  0.17341  0.15691  1.0000
  C   C797      1.0  0.55263  0.03735  0.86493  1.0000
  C   C798      1.0  0.51212  0.03431  0.02060  1.0000
  H   H1405     1.0  0.66702  0.15692  0.10521  1.0000
  H   H1406     1.0  0.51714  0.06786  0.14099  1.0000
  H   H1407     1.0  0.52965  0.24220  0.42647  1.0000
  C   C799      1.0  0.52416  0.07144  0.10881  1.0000
  H   H1408     1.0  0.50260  0.06019  0.07920  1.0000
  H   H1409     1.0  0.66279  0.21986  0.37328  1.0000
  H   H1410     1.0  0.64808  0.13222  0.25645  1.0000
  C   C800      1.0  0.64734  0.23376  0.42211  1.0000
  C   C801      1.0  0.69242  0.13522  0.13950  1.0000
  H   H1411     1.0  0.73649  0.24262  0.33653  1.0000
  C   C802      1.0  0.50609  0.00811  0.56509  1.0000
  H   H1412     1.0  0.51178  0.00861  0.47950  1.0000
  H   H1413     1.0  0.52963  0.03892  0.54335  1.0000
  C   C803      1.0  0.51110  0.11857  0.92076  1.0000
  C   C804      1.0  0.63515  0.23864  0.45210  1.0000
  H   H1414     1.0  0.53686  0.16646  0.45222  1.0000
  H   H1415     1.0  0.68193  0.22776  0.33997  1.0000
  C   C805      1.0  0.70849  0.24271  0.26844  1.0000
  H   H1416     1.0  0.68851  0.20448  0.43943  1.0000
  C   C806      1.0  0.51122  0.03396  0.60084  1.0000
  H   H1417     1.0  0.52594  0.15698  0.50392  1.0000
  C   C807      1.0  0.55149  0.00383  0.53709  1.0000
  H   H1418     1.0  0.50382  0.18338  0.16271  1.0000
  C   C808      1.0  0.50563  0.22177  0.44054  1.0000
  H   H1419     1.0  0.62482  0.22715  0.46704  1.0000
  N   N45       1.0  0.67383  0.24702  0.36561  1.0000
  C   C809      1.0  0.50546  0.07129  0.68426  1.0000
  H   H1420     1.0  0.51179  0.03882  0.63181  1.0000
  H   H1421     1.0  0.51922  0.15973  0.16277  1.0000
  H   H1422     1.0  0.52237  0.06425  0.04718  1.0000
  H   H1423     1.0  0.52001  0.01472  0.99446  1.0000
  H   H1424     1.0  0.52683  0.03891  0.93821  1.0000
  H   H1425     1.0  0.51655  0.20439  0.41474  1.0000
  C   C810      1.0  0.50899  0.01219  0.07931  1.0000
  H   H1426     1.0  0.52975  0.01387  0.61583  1.0000
  H   H1427     1.0  0.50867  0.10231  0.72025  1.0000
  S   S191      1.0  0.50640  0.14473  0.30722  1.0000
  H   H1428     1.0  0.64020  0.22679  0.39875  1.0000
  H   H1429     1.0  0.64160  0.24522  0.47716  1.0000
  H   H1430     1.0  0.52485  0.21288  0.45962  1.0000
  H   H1431     1.0  0.52275  0.01477  0.07465  1.0000
  H   H1432     1.0  0.53235  0.06694  0.59950  1.0000
  H   H1433     1.0  0.50309  0.19073  0.60286  1.0000
  H   H1434     1.0  0.52407  0.14670  0.20269  1.0000
  H   H1435     1.0  0.51758  0.01527  0.66210  1.0000
  H   H1436     1.0  0.50929  0.03804  0.12573  1.0000
  H   H1437     1.0  0.52492  0.08444  0.09773  1.0000
  H   H1438     1.0  0.50167  0.12022  0.72068  1.0000
  H   H1439     1.0  0.50467  0.03473  0.93741  1.0000
  H   H1440     1.0  0.50769  0.04445  0.79491  1.0000
  C   C811      1.0  0.65083  0.23805  0.31661  1.0000
  H   H1441     1.0  0.50567  0.12464  0.51045  1.0000
  H   H1442     1.0  0.64063  0.23996  0.33750  1.0000
  H   H1443     1.0  0.50408  0.09644  0.79998  1.0000
  H   H1444     1.0  0.50273  0.02827  0.52316  1.0000
  H   H1445     1.0  0.63525  0.23249  0.26710  1.0000
  C   C812      1.0  0.64761  0.24142  0.27161  1.0000
  H   H1446     1.0  0.65738  0.23956  0.24895  1.0000
  C   C813      1.0  0.50210  0.00393  0.12512  1.0000
  H   H1447     1.0  0.49982  0.11548  0.79789  1.0000
  H   H1448     1.0  0.50709  0.07531  0.49444  1.0000
  C   C814      1.0  0.66800  0.25020  0.32411  1.0000
  H   H1449     1.0  0.50394  0.00231  0.05911  1.0000
  H   H1450     1.0  0.53011  0.00634  0.22094  1.0000
  H   H1451     1.0  0.50209  0.09201  0.87415  1.0000
  C   C815      1.0  0.50270  0.11705  0.88105  1.0000
  C   C816      1.0  0.50214  0.07197  0.96653  1.0000
  Fe  Fe96      1.0  0.50131  0.15417  0.36840  1.0000
  H   H1452     1.0  0.67753  0.25010  0.29790  1.0000
  S   S192      1.0  0.50107  0.17850  0.26045  1.0000
  C   C817      1.0  0.50087  0.08157  0.99909  1.0000
  C   C818      1.0  0.49847  0.00635  0.49154  1.0000
  H   H1453     1.0  0.50283  0.22621  0.47083  1.0000
  C   C819      1.0  0.49917  0.19571  0.51795  1.0000
  H   H1454     1.0  0.60006  0.00238  0.21418  1.0000
  H   H1455     1.0  0.62396  0.49595  0.99218  1.0000
  H   H1456     1.0  0.70031  0.39692  0.40358  1.0000
  C   C820      1.0  0.74097  0.26635  0.15075  1.0000
  S   S193      1.0  0.51745  0.41940  0.63219  1.0000
  H   H1457     1.0  0.64578  0.50083  0.11494  1.0000
  Fe  Fe97      1.0  0.52729  0.35090  0.30521  1.0000
  S   S194      1.0  0.52412  0.32912  0.35365  1.0000
  S   S195      1.0  0.54792  0.37651  0.28837  1.0000
  Fe  Fe98      1.0  0.56573  0.49416  0.02122  1.0000
  H   H1458     1.0  0.58479  0.49005  0.48611  1.0000
  C   C821      1.0  0.62400  0.47260  0.48307  1.0000
  H   H1459     1.0  0.68325  0.28154  0.37299  1.0000
  H   H1460     1.0  0.51648  0.40479  0.40750  1.0000
  Fe  Fe99      1.0  0.50987  0.31224  0.30923  1.0000
  S   S196      1.0  0.51610  0.28872  0.29222  1.0000
  N   N46       1.0  0.73426  0.41037  0.36484  1.0000
  S   S197      1.0  0.51517  0.33423  0.25817  1.0000
  H   H1461     1.0  0.70696  0.38064  0.35259  1.0000
  C   C822      1.0  0.69119  0.25959  0.36473  1.0000
  H   H1462     1.0  0.50903  0.38567  0.46937  1.0000
  Fe  Fe100     1.0  0.66610  0.45793  0.32605  1.0000
  S   S198      1.0  0.64915  0.45056  0.38797  1.0000
  S   S199      1.0  0.69376  0.45992  0.30964  1.0000
  Fe  Fe101     1.0  0.63765  0.46287  0.27839  1.0000
  S   S200      1.0  0.61897  0.45632  0.33693  1.0000
  S   S201      1.0  0.63131  0.46606  0.21194  1.0000
  Fe  Fe102     1.0  0.64034  0.47189  0.36782  1.0000
  H   H1463     1.0  0.54172  0.44643  0.49515  1.0000
  Fe  Fe103     1.0  0.62899  0.43551  0.35237  1.0000
  S   S202      1.0  0.61224  0.40863  0.37542  1.0000
  S   S203      1.0  0.65834  0.48021  0.30755  1.0000
  S   S204      1.0  0.64654  0.44105  0.29223  1.0000
  C   C823      1.0  0.56009  0.48598  0.52318  1.0000
  H   H1464     1.0  0.51632  0.39150  0.01459  1.0000
  H   H1465     1.0  0.62584  0.46224  0.46832  1.0000
  C   C824      1.0  0.72734  0.46291  0.39398  1.0000
  C   C825      1.0  0.71225  0.46067  0.37690  1.0000
  C   C826      1.0  0.71237  0.46258  0.33339  1.0000
  C   C827      1.0  0.72776  0.46640  0.30742  1.0000
  C   C828      1.0  0.51006  0.46246  0.58975  1.0000
  C   C829      1.0  0.51515  0.39687  0.34653  1.0000
  H   H1466     1.0  0.70052  0.45733  0.39736  1.0000
  H   H1467     1.0  0.72807  0.46781  0.27372  1.0000
  C   C830      1.0  0.57549  0.43536  0.56857  1.0000
  C   C831      1.0  0.56376  0.38478  0.31979  1.0000
  C   C832      1.0  0.56994  0.40222  0.32110  1.0000
  C   C833      1.0  0.58468  0.40969  0.33845  1.0000
  C   C834      1.0  0.59308  0.39969  0.35585  1.0000
  C   C835      1.0  0.58612  0.38214  0.35761  1.0000
  C   C836      1.0  0.57163  0.37471  0.33920  1.0000
  H   H1468     1.0  0.56364  0.41006  0.30735  1.0000
  H   H1469     1.0  0.58967  0.42318  0.33783  1.0000
  H   H1470     1.0  0.59240  0.37429  0.37161  1.0000
  H   H1471     1.0  0.56698  0.36125  0.33853  1.0000
  H   H1472     1.0  0.51061  0.37354  0.05420  1.0000
  H   H1473     1.0  0.72705  0.46143  0.42765  1.0000
  C   C837      1.0  0.52110  0.38472  0.03836  1.0000
  H   H1474     1.0  0.73211  0.31115  0.20573  1.0000
  C   C838      1.0  0.54338  0.44175  0.13974  1.0000
  C   C839      1.0  0.53829  0.46115  0.56173  1.0000
  C   C840      1.0  0.61924  0.49937  0.52203  1.0000
  C   C841      1.0  0.62877  0.48848  0.45997  1.0000
  H   H1475     1.0  0.51392  0.40871  0.33252  1.0000
  H   H1476     1.0  0.74122  0.40628  0.30141  1.0000
  H   H1477     1.0  0.56874  0.47680  0.44117  1.0000
  S   S205      1.0  0.50341  0.35427  0.33062  1.0000
  C   C842      1.0  0.57905  0.45414  0.79508  1.0000
  C   C843      1.0  0.53583  0.46134  0.71294  1.0000
  C   C844      1.0  0.54733  0.45627  0.68832  1.0000
  C   C845      1.0  0.54166  0.44281  0.66505  1.0000
  C   C846      1.0  0.52450  0.43461  0.66587  1.0000
  C   C847      1.0  0.51313  0.43915  0.69228  1.0000
  C   C848      1.0  0.51873  0.45267  0.71534  1.0000
  H   H1478     1.0  0.56062  0.46275  0.68707  1.0000
  H   H1479     1.0  0.55060  0.43903  0.64584  1.0000
  H   H1480     1.0  0.53071  0.38033  0.02211  1.0000
  H   H1481     1.0  0.50415  0.48456  0.01572  1.0000
  C   C849      1.0  0.53184  0.46256  0.02236  1.0000
  H   H1482     1.0  0.50980  0.45640  0.73484  1.0000
  C   C850      1.0  0.50670  0.46920  0.84173  1.0000
  H   H1483     1.0  0.61765  0.46940  0.13568  1.0000
  H   H1484     1.0  0.70868  0.35895  0.40731  1.0000
  C   C851      1.0  0.52620  0.46550  0.06223  1.0000
  H   H1485     1.0  0.60313  0.48827  0.10863  1.0000
  C   C852      1.0  0.67781  0.47960  0.44894  1.0000
  H   H1486     1.0  0.51478  0.46751  0.61840  1.0000
  H   H1487     1.0  0.53504  0.47121  0.08277  1.0000
  C   C853      1.0  0.61498  0.47820  0.15513  1.0000
  H   H1488     1.0  0.72596  0.38039  0.32332  1.0000
  C   C854      1.0  0.62003  0.47905  0.19521  1.0000
  C   C855      1.0  0.71582  0.36117  0.37538  1.0000
  H   H1489     1.0  0.53677  0.40076  0.15281  1.0000
  S   S206      1.0  0.60474  0.47946  0.59799  1.0000
  H   H1490     1.0  0.55014  0.43458  0.57487  1.0000
  H   H1491     1.0  0.55387  0.49077  0.49886  1.0000
  H   H1492     1.0  0.52806  0.37376  0.20086  1.0000
  C   C856      1.0  0.50794  0.42086  0.14227  1.0000
  H   H1493     1.0  0.73286  0.28437  0.25884  1.0000
  H   H1494     1.0  0.69243  0.42628  0.35873  1.0000
  H   H1495     1.0  0.73489  0.27164  0.17519  1.0000
  H   H1496     1.0  0.65926  0.44500  0.52597  1.0000
  Fe  Fe104     1.0  0.49935  0.33177  0.37627  1.0000
  H   H1497     1.0  0.68101  0.47184  0.42555  1.0000
  H   H1498     1.0  0.55943  0.46110  0.09028  1.0000
  H   H1499     1.0  0.51995  0.46169  0.88790  1.0000
  H   H1500     1.0  0.51850  0.46290  0.52481  1.0000
  H   H1501     1.0  0.52235  0.39232  0.32257  1.0000
  S   S207      1.0  0.55318  0.46832  0.00496  1.0000
  H   H1502     1.0  0.61383  0.45798  0.54351  1.0000
  H   H1503     1.0  0.64592  0.50150  0.97207  1.0000
  H   H1504     1.0  0.57365  0.45910  0.46367  1.0000
  C   C857      1.0  0.51629  0.25629  0.28800  1.0000
  H   H1505     1.0  0.50722  0.36583  0.22872  1.0000
  H   H1506     1.0  0.66461  0.44473  0.47063  1.0000
  H   H1507     1.0  0.51749  0.49961  0.08393  1.0000
  C   C858      1.0  0.70432  0.41018  0.38932  1.0000
  H   H1508     1.0  0.74257  0.43428  0.38956  1.0000
  H   H1509     1.0  0.51972  0.44879  0.80136  1.0000
  C   C859      1.0  0.71920  0.41445  0.35357  1.0000
  C   C860      1.0  0.52033  0.45485  0.99626  1.0000
  H   H1510     1.0  0.51690  0.48344  0.94351  1.0000
  H   H1511     1.0  0.50470  0.46219  0.10761  1.0000
  C   C861      1.0  0.69316  0.27835  0.35414  1.0000
  H   H1512     1.0  0.53270  0.38863  0.09411  1.0000
  H   H1513     1.0  0.52844  0.48186  0.54700  1.0000
  H   H1514     1.0  0.54971  0.43696  0.96129  1.0000
  N   N47       1.0  0.55375  0.46692  0.52940  1.0000
  C   C862      1.0  0.72853  0.27107  0.26951  1.0000
  H   H1515     1.0  0.70950  0.48493  0.42768  1.0000
  H   H1516     1.0  0.73055  0.32526  0.16273  1.0000
  C   C863      1.0  0.51138  0.38685  0.18114  1.0000
  H   H1517     1.0  0.55240  0.43995  0.42683  1.0000
  C   C864      1.0  0.67491  0.46919  0.49256  1.0000
  H   H1518     1.0  0.73268  0.41689  0.42803  1.0000
  H   H1519     1.0  0.68464  0.40458  0.34910  1.0000
  C   C865      1.0  0.69613  0.49787  0.36263  1.0000
  H   H1520     1.0  0.56424  0.46456  0.14233  1.0000
  C   C866      1.0  0.74683  0.41391  0.32590  1.0000
  H   H1521     1.0  0.67109  0.47576  0.51795  1.0000
  H   H1522     1.0  0.57002  0.44882  0.11669  1.0000
  C   C867      1.0  0.52403  0.46795  0.55260  1.0000
  H   H1523     1.0  0.70027  0.25688  0.34160  1.0000
  C   C868      1.0  0.56028  0.45479  0.12100  1.0000
  C   C869      1.0  0.56639  0.46014  0.54673  1.0000
  H   H1524     1.0  0.64751  0.25442  0.26498  1.0000
  C   C870      1.0  0.71923  0.37912  0.35532  1.0000
  H   H1525     1.0  0.70852  0.26500  0.23129  1.0000
  H   H1526     1.0  0.50972  0.38843  0.58405  1.0000
  H   H1527     1.0  0.57873  0.46509  0.52679  1.0000
  H   H1528     1.0  0.56889  0.46462  0.57774  1.0000
  H   H1529     1.0  0.52758  0.26230  0.26608  1.0000
  C   C871      1.0  0.71016  0.28988  0.36266  1.0000
  C   C872      1.0  0.60679  0.48893  0.13966  1.0000
  C   C873      1.0  0.72713  0.25562  0.12825  1.0000
  H   H1530     1.0  0.49881  0.39159  0.54107  1.0000
  H   H1531     1.0  0.71139  0.28823  0.39650  1.0000
  Fe  Fe105     1.0  0.56664  0.49511  0.70118  1.0000
  H   H1532     1.0  0.50382  0.38398  0.91526  1.0000
  N   N48       1.0  0.59457  0.40944  0.19744  1.0000
  C   C874      1.0  0.58237  0.41811  0.21099  1.0000
  C   C875      1.0  0.58528  0.39221  0.18560  1.0000
  C   C876      1.0  0.60332  0.40686  0.23445  1.0000
  C   C877      1.0  0.60779  0.41990  0.16214  1.0000
  C   C878      1.0  0.60151  0.42639  0.12323  1.0000
  C   C879      1.0  0.58993  0.43559  0.22578  1.0000
  C   C880      1.0  0.61621  0.39769  0.22707  1.0000
  C   C881      1.0  0.56853  0.38976  0.16776  1.0000
  C   C882      1.0  0.56163  0.37237  0.15351  1.0000
  C   C883      1.0  0.61621  0.43684  0.09025  1.0000
  C   C884      1.0  0.57672  0.44391  0.23407  1.0000
  C   C885      1.0  0.62179  0.39291  0.26829  1.0000
  H   H1533     1.0  0.57281  0.40993  0.23673  1.0000
  H   H1534     1.0  0.57522  0.41991  0.18531  1.0000
  H   H1535     1.0  0.59354  0.38823  0.16289  1.0000
  H   H1536     1.0  0.58177  0.38249  0.21362  1.0000
  H   H1537     1.0  0.59392  0.39964  0.26160  1.0000
  H   H1538     1.0  0.61040  0.41903  0.24488  1.0000
  H   H1539     1.0  0.61662  0.43098  0.17376  1.0000
  H   H1540     1.0  0.61571  0.41263  0.15055  1.0000
  H   H1541     1.0  0.59411  0.43452  0.13156  1.0000
  H   H1542     1.0  0.59387  0.41573  0.10837  1.0000
  H   H1543     1.0  0.59531  0.43469  0.25533  1.0000
  H   H1544     1.0  0.59975  0.44403  0.20132  1.0000
  H   H1545     1.0  0.62753  0.40606  0.20615  1.0000
  H   H1546     1.0  0.61100  0.38600  0.21266  1.0000
  H   H1547     1.0  0.55895  0.39072  0.19251  1.0000
  H   H1548     1.0  0.56990  0.39924  0.14082  1.0000
  H   H1549     1.0  0.54964  0.37093  0.14118  1.0000
  H   H1550     1.0  0.57057  0.37063  0.12830  1.0000
  H   H1551     1.0  0.55918  0.36242  0.18038  1.0000
  H   H1552     1.0  0.61147  0.44193  0.06330  1.0000
  H   H1553     1.0  0.62469  0.44755  0.10359  1.0000
  H   H1554     1.0  0.62345  0.42898  0.07858  1.0000
  H   H1555     1.0  0.58255  0.45619  0.24560  1.0000
  H   H1556     1.0  0.57172  0.44628  0.20473  1.0000
  H   H1557     1.0  0.56633  0.43591  0.25822  1.0000
  H   H1558     1.0  0.61112  0.38353  0.28925  1.0000
  H   H1559     1.0  0.63173  0.38731  0.26199  1.0000
  H   H1560     1.0  0.62686  0.40414  0.28462  1.0000
  N   N49       1.0  0.53355  0.38490  0.44616  1.0000
  C   C886      1.0  0.53334  0.36758  0.46193  1.0000
  C   C887      1.0  0.52219  0.39044  0.47643  1.0000
  C   C888      1.0  0.52663  0.38384  0.40480  1.0000
  C   C889      1.0  0.55105  0.39751  0.43852  1.0000
  C   C890      1.0  0.56053  0.40038  0.47702  1.0000
  C   C891      1.0  0.54392  0.35984  0.43353  1.0000
  C   C892      1.0  0.52409  0.40004  0.38517  1.0000
  C   C893      1.0  0.52074  0.38449  0.52389  1.0000
  C   C894      1.0  0.51137  0.39351  0.55047  1.0000
  C   C895      1.0  0.57867  0.41186  0.46420  1.0000
  C   C896      1.0  0.54255  0.34236  0.45316  1.0000
  H   H1561     1.0  0.71149  0.30320  0.35351  1.0000
  H   H1562     1.0  0.52024  0.35872  0.46722  1.0000
  H   H1563     1.0  0.53772  0.36731  0.49299  1.0000
  H   H1564     1.0  0.52589  0.40439  0.47233  1.0000
  N   N50       1.0  0.69109  0.49676  0.44353  1.0000
  H   H1565     1.0  0.51440  0.37335  0.40837  1.0000
  H   H1566     1.0  0.53500  0.38079  0.38050  1.0000
  H   H1567     1.0  0.55882  0.39414  0.41329  1.0000
  H   H1568     1.0  0.55090  0.41005  0.42640  1.0000
  H   H1569     1.0  0.56077  0.38844  0.49311  1.0000
  H   H1570     1.0  0.55463  0.40670  0.49934  1.0000
  H   H1571     1.0  0.53956  0.35835  0.40250  1.0000
  H   H1572     1.0  0.55733  0.36773  0.42903  1.0000
  H   H1573     1.0  0.53634  0.41010  0.37483  1.0000
  H   H1574     1.0  0.58983  0.44986  0.79886  1.0000
  H   H1575     1.0  0.51362  0.37081  0.53049  1.0000
  H   H1576     1.0  0.53304  0.38664  0.53475  1.0000
  C   C897      1.0  0.51752  0.37744  0.21465  1.0000
  H   H1577     1.0  0.57895  0.44100  0.59764  1.0000
  H   H1578     1.0  0.53440  0.44853  0.14562  1.0000
  H   H1579     1.0  0.57933  0.42403  0.44722  1.0000
  H   H1580     1.0  0.58498  0.41441  0.49253  1.0000
  H   H1581     1.0  0.58553  0.40568  0.44379  1.0000
  H   H1582     1.0  0.55009  0.33705  0.43203  1.0000
  H   H1583     1.0  0.54731  0.34298  0.48392  1.0000
  H   H1584     1.0  0.52933  0.33380  0.45756  1.0000
  C   C898      1.0  0.54892  0.46014  0.48912  1.0000
  H   H1585     1.0  0.56814  0.45626  0.39127  1.0000
  H   H1586     1.0  0.51852  0.40718  0.54699  1.0000
  H   H1587     1.0  0.71465  0.40831  0.32586  1.0000
  S   S208      1.0  0.54288  0.47870  0.74000  1.0000
  H   H1588     1.0  0.50004  0.43207  0.69574  1.0000
  H   H1589     1.0  0.66562  0.48053  0.44192  1.0000
  C   C899      1.0  0.71464  0.26004  0.25419  1.0000
  H   H1590     1.0  0.70833  0.48978  0.47957  1.0000
  H   H1591     1.0  0.72048  0.28716  0.34415  1.0000
  N   N51       1.0  0.52126  0.41370  0.12681  1.0000
  C   C900      1.0  0.74285  0.46867  0.32447  1.0000
  H   H1592     1.0  0.72266  0.42817  0.34359  1.0000
  H   H1593     1.0  0.57634  0.45321  0.76225  1.0000
  C   C901      1.0  0.66114  0.45217  0.49446  1.0000
  H   H1594     1.0  0.70827  0.49589  0.36374  1.0000
  S   S209      1.0  0.59221  0.49381  0.70490  1.0000
  H   H1595     1.0  0.54765  0.45776  0.40378  1.0000
  H   H1596     1.0  0.50909  0.42386  0.17498  1.0000
  N   N52       1.0  0.53211  0.43819  0.84563  1.0000
  C   C902      1.0  0.52668  0.42088  0.83162  1.0000
  C   C903      1.0  0.53228  0.43694  0.89261  1.0000
  C   C904      1.0  0.51926  0.44614  0.83570  1.0000
  C   C905      1.0  0.54881  0.44934  0.82234  1.0000
  C   C906      1.0  0.56382  0.44324  0.82606  1.0000
  C   C907      1.0  0.52616  0.42019  0.78391  1.0000
  C   C908      1.0  0.61441  0.48347  0.54511  1.0000
  C   C909      1.0  0.53756  0.42266  0.91335  1.0000
  C   C910      1.0  0.53994  0.42475  0.95908  1.0000
  H   H1597     1.0  0.69246  0.28115  0.32030  1.0000
  C   C911      1.0  0.51959  0.40208  0.77404  1.0000
  H   H1598     1.0  0.51400  0.41334  0.84846  1.0000
  H   H1599     1.0  0.53497  0.41385  0.84023  1.0000
  H   H1600     1.0  0.54039  0.44911  0.90125  1.0000
  H   H1601     1.0  0.66690  0.26290  0.32008  1.0000
  C   C912      1.0  0.74279  0.46706  0.36795  1.0000
  C   C913      1.0  0.52871  0.39620  0.07046  1.0000
  H   H1602     1.0  0.53540  0.43485  0.08022  1.0000
  C   C914      1.0  0.57921  0.49504  0.51219  1.0000
  H   H1603     1.0  0.56101  0.43010  0.81933  1.0000
  H   H1604     1.0  0.56741  0.44439  0.85801  1.0000
  H   H1605     1.0  0.51773  0.42645  0.77234  1.0000
  H   H1606     1.0  0.53883  0.42628  0.76583  1.0000
  H   H1607     1.0  0.58524  0.49344  0.54029  1.0000
  H   H1608     1.0  0.50414  0.39288  0.10117  1.0000
  H   H1609     1.0  0.52763  0.41034  0.91317  1.0000
  H   H1610     1.0  0.54932  0.42210  0.89683  1.0000
  H   H1611     1.0  0.72776  0.35876  0.37744  1.0000
  H   H1612     1.0  0.54400  0.41454  0.97271  1.0000
  H   H1613     1.0  0.53277  0.47295  0.83985  1.0000
  C   C915      1.0  0.73667  0.26488  0.29895  1.0000
  H   H1614     1.0  0.58260  0.46752  0.80081  1.0000
  C   C916      1.0  0.56350  0.46324  0.45329  1.0000
  H   H1615     1.0  0.51915  0.40205  0.73976  1.0000
  H   H1616     1.0  0.62031  0.49126  0.25103  1.0000
  H   H1617     1.0  0.50672  0.39559  0.79070  1.0000
  C   C917      1.0  0.50904  0.46035  0.07633  1.0000
  H   H1618     1.0  0.53990  0.40636  0.05359  1.0000
  H   H1619     1.0  0.55248  0.46199  0.83309  1.0000
  H   H1620     1.0  0.50794  0.48125  0.85439  1.0000
  C   C918      1.0  0.68918  0.41306  0.37298  1.0000
  H   H1621     1.0  0.53249  0.44726  0.56573  1.0000
  H   H1622     1.0  0.54788  0.45168  0.78848  1.0000
  H   H1623     1.0  0.68642  0.46672  0.49926  1.0000
  C   C919      1.0  0.61649  0.49048  0.22013  1.0000
  H   H1624     1.0  0.55957  0.43561  0.52199  1.0000
  C   C920      1.0  0.61708  0.47019  0.52558  1.0000
  H   H1625     1.0  0.67887  0.41047  0.39927  1.0000
  H   H1626     1.0  0.52152  0.38523  0.24018  1.0000
  H   H1627     1.0  0.54760  0.42359  0.10134  1.0000
  H   H1628     1.0  0.53046  0.49034  0.65604  1.0000
  H   H1629     1.0  0.52802  0.42410  0.97774  1.0000
  H   H1630     1.0  0.68652  0.48555  0.36076  1.0000
  C   C921      1.0  0.53708  0.42822  0.10985  1.0000
  H   H1631     1.0  0.50506  0.44858  0.59615  1.0000
  H   H1632     1.0  0.54508  0.43610  0.17032  1.0000
  H   H1633     1.0  0.58667  0.43931  0.54438  1.0000
  C   C922      1.0  0.72968  0.39208  0.38184  1.0000
  H   H1634     1.0  0.57116  0.42147  0.57579  1.0000
  H   H1635     1.0  0.51946  0.43469  0.90919  1.0000
  H   H1636     1.0  0.50130  0.48801  0.66368  1.0000
  C   C923      1.0  0.55747  0.45368  0.41662  1.0000
  H   H1637     1.0  0.74668  0.25774  0.16570  1.0000
  H   H1638     1.0  0.50164  0.36220  0.93011  1.0000
  H   H1639     1.0  0.52791  0.39513  0.78333  1.0000
  C   C924      1.0  0.56162  0.44071  0.55224  1.0000
  C   C925      1.0  0.52517  0.40356  0.16240  1.0000
  H   H1640     1.0  0.54014  0.46580  0.47621  1.0000
  H   H1641     1.0  0.64915  0.45386  0.48891  1.0000
  H   H1642     1.0  0.52468  0.45308  0.96505  1.0000
  H   H1643     1.0  0.72046  0.26340  0.11367  1.0000
  H   H1644     1.0  0.52793  0.41093  0.18923  1.0000
  H   H1645     1.0  0.66028  0.49610  0.49147  1.0000
  H   H1646     1.0  0.54175  0.46462  0.59298  1.0000
  C   C926      1.0  0.51593  0.40360  0.09115  1.0000
  H   H1647     1.0  0.70783  0.41840  0.41430  1.0000
  H   H1648     1.0  0.70837  0.35212  0.35589  1.0000
  S   S210      1.0  0.63861  0.49239  0.40736  1.0000
  C   C927      1.0  0.51976  0.49725  0.93859  1.0000
  H   H1649     1.0  0.50218  0.48524  0.15395  1.0000
  C   C928      1.0  0.52078  0.46302  0.85323  1.0000
  H   H1650     1.0  0.55663  0.49101  0.55222  1.0000
  H   H1651     1.0  0.72284  0.38951  0.41428  1.0000
  H   H1652     1.0  0.74369  0.43622  0.29290  1.0000
  H   H1653     1.0  0.51296  0.41153  0.06592  1.0000
  C   C929      1.0  0.73922  0.32001  0.17760  1.0000
  H   H1654     1.0  0.50036  0.38925  0.19676  1.0000
  C   C930      1.0  0.50783  0.26632  0.30624  1.0000
  C   C931      1.0  0.50554  0.49901  0.14569  1.0000
  H   H1655     1.0  0.50982  0.43300  0.12324  1.0000
  H   H1656     1.0  0.50734  0.47134  0.80708  1.0000
  H   H1657     1.0  0.74117  0.38886  0.38485  1.0000
  C   C932      1.0  0.74143  0.42097  0.39814  1.0000
  H   H1658     1.0  0.65735  0.25949  0.39151  1.0000
  H   H1659     1.0  0.66947  0.25416  0.42774  1.0000
  H   H1660     1.0  0.66362  0.49953  0.16811  1.0000
  C   C933      1.0  0.70780  0.49466  0.44690  1.0000
  H   H1661     1.0  0.74079  0.49797  0.41530  1.0000
  H   H1662     1.0  0.69570  0.25842  0.39558  1.0000
  H   H1663     1.0  0.50643  0.43729  0.84735  1.0000
  C   C934      1.0  0.74680  0.31106  0.14624  1.0000
  C   C935      1.0  0.51014  0.49931  0.64364  1.0000
  C   C936      1.0  0.50428  0.49767  0.00948  1.0000
  H   H1664     1.0  0.51088  0.49682  0.61050  1.0000
  H   H1665     1.0  0.50240  0.38744  0.35535  1.0000
  H   H1666     1.0  0.49975  0.46703  0.58264  1.0000
  H   H1667     1.0  0.50759  0.37847  0.15679  1.0000
  C   C937      1.0  0.50319  0.44985  0.01014  1.0000
  C   C938      1.0  0.60370  0.50072  0.16411  1.0000
  Fe  Fe106     1.0  0.59527  0.49737  0.63397  1.0000
  H   H1668     1.0  0.73965  0.50123  0.47008  1.0000
  S   S211      1.0  0.56880  0.49634  0.63132  1.0000
  H   H1669     1.0  0.73631  0.30136  0.13541  1.0000
  H   H1670     1.0  0.74796  0.28585  0.09772  1.0000
  C   C939      1.0  0.62640  0.50185  0.47967  1.0000
  C   C940      1.0  0.60848  0.50136  0.20447  1.0000
  H   H1671     1.0  0.52120  0.50130  0.90444  1.0000
  H   H1672     1.0  0.53783  0.58887  0.01532  1.0000
  H   H1673     1.0  0.61749  0.50976  0.53685  1.0000
  H   H1674     1.0  0.50304  0.51536  0.68381  1.0000
  Fe  Fe107     1.0  0.59278  0.52680  0.98672  1.0000
  N   N53       1.0  0.64738  0.53318  0.06666  1.0000
  S   S212      1.0  0.61366  0.54143  0.93495  1.0000
  Fe  Fe108     1.0  0.56029  0.52694  0.03564  1.0000
  S   S213      1.0  0.53975  0.53835  0.03468  1.0000
  C   C941      1.0  0.63913  0.52188  0.99686  1.0000
  S   S214      1.0  0.58729  0.53951  0.04232  1.0000
  H   H1675     1.0  0.57068  0.61719  0.67055  1.0000
  C   C942      1.0  0.66333  0.54639  0.04498  1.0000
  H   H1676     1.0  0.53582  0.57440  0.36859  1.0000
  S   S215      1.0  0.53051  0.58483  0.17251  1.0000
  C   C943      1.0  0.50619  0.63793  0.91072  1.0000
  C   C944      1.0  0.58346  0.51390  0.50010  1.0000
  H   H1677     1.0  0.51639  0.53708  0.49394  1.0000
  H   H1678     1.0  0.51634  0.50579  0.01791  1.0000
  H   H1679     1.0  0.51773  0.50538  0.15650  1.0000
  Fe  Fe109     1.0  0.57833  0.52419  0.63208  1.0000
  S   S216      1.0  0.60520  0.52555  0.62934  1.0000
  S   S217      1.0  0.56953  0.54075  0.58838  1.0000
  H   H1680     1.0  0.63289  0.54652  0.03675  1.0000
  C   C945      1.0  0.56454  0.59406  0.71335  1.0000
  Fe  Fe110     1.0  0.59986  0.52193  0.70018  1.0000
  S   S218      1.0  0.61761  0.53925  0.73742  1.0000
  H   H1681     1.0  0.59013  0.51937  0.88491  1.0000
  C   C946      1.0  0.59323  0.56837  0.68482  1.0000
  S   S219      1.0  0.57393  0.52276  0.70188  1.0000
  C   C947      1.0  0.62177  0.59542  0.77967  1.0000
  H   H1682     1.0  0.53139  0.62189  0.31748  1.0000
  C   C948      1.0  0.53013  0.58596  0.28640  1.0000
  H   H1683     1.0  0.56233  0.55539  0.72808  1.0000
  H   H1684     1.0  0.62596  0.60893  0.76708  1.0000
  H   H1685     1.0  0.68904  0.55731  0.97657  1.0000
  H   H1686     1.0  0.54409  0.59334  0.42350  1.0000
  H   H1687     1.0  0.51831  0.61966  0.90372  1.0000
  S   S220      1.0  0.51720  0.57334  0.66126  1.0000
  S   S221      1.0  0.51588  0.60810  0.56978  1.0000
  H   H1688     1.0  0.56019  0.61041  0.34025  1.0000
  C   C949      1.0  0.55957  0.60621  0.68428  1.0000
  H   H1689     1.0  0.59059  0.58608  0.26387  1.0000
  H   H1690     1.0  0.52620  0.64362  0.27100  1.0000
  H   H1691     1.0  0.67153  0.52210  0.16613  1.0000
  H   H1692     1.0  0.53980  0.63510  0.02206  1.0000
  H   H1693     1.0  0.55898  0.59248  0.23527  1.0000
  H   H1694     1.0  0.52059  0.58626  0.31195  1.0000
  C   C950      1.0  0.59168  0.59852  0.24760  1.0000
  H   H1695     1.0  0.52321  0.59740  0.93613  1.0000
  S   S222      1.0  0.51121  0.62015  0.18247  1.0000
  C   C951      1.0  0.55441  0.54915  0.60870  1.0000
  C   C952      1.0  0.54830  0.54635  0.65148  1.0000
  C   C953      1.0  0.53687  0.55382  0.66726  1.0000
  C   C954      1.0  0.53118  0.56385  0.64019  1.0000
  C   C955      1.0  0.53680  0.56622  0.59719  1.0000
  C   C956      1.0  0.54849  0.55898  0.58155  1.0000
  H   H1696     1.0  0.55241  0.53848  0.67247  1.0000
  H   H1697     1.0  0.53238  0.55179  0.70049  1.0000
  H   H1698     1.0  0.53242  0.57391  0.57607  1.0000
  H   H1699     1.0  0.55307  0.56113  0.54835  1.0000
  C   C957      1.0  0.63567  0.55516  0.09722  1.0000
  H   H1700     1.0  0.58590  0.59722  0.66787  1.0000
  H   H1701     1.0  0.55983  0.62523  0.27659  1.0000
  H   H1702     1.0  0.57054  0.60090  0.73856  1.0000
  H   H1703     1.0  0.60919  0.55200  0.10961  1.0000
  Fe  Fe111     1.0  0.50785  0.59311  0.17679  1.0000
  H   H1704     1.0  0.55613  0.59153  0.94806  1.0000
  H   H1705     1.0  0.52781  0.50552  0.68924  1.0000
  C   C958      1.0  0.53718  0.63967  0.26264  1.0000
  N   N54       1.0  0.54703  0.59836  0.29118  1.0000
  C   C959      1.0  0.61335  0.54003  0.88049  1.0000
  C   C960      1.0  0.62681  0.55129  0.85296  1.0000
  C   C961      1.0  0.62771  0.55077  0.80960  1.0000
  C   C962      1.0  0.61522  0.53891  0.79273  1.0000
  C   C963      1.0  0.60154  0.52758  0.81998  1.0000
  C   C964      1.0  0.60058  0.52817  0.86393  1.0000
  H   H1706     1.0  0.63672  0.56048  0.86528  1.0000
  H   H1707     1.0  0.63829  0.55956  0.78896  1.0000
  C   C965      1.0  0.63377  0.54098  0.06853  1.0000
  H   H1708     1.0  0.64992  0.51041  0.18655  1.0000
  H   H1709     1.0  0.56898  0.57839  0.66739  1.0000
  H   H1710     1.0  0.63292  0.59208  0.78577  1.0000
  H   H1711     1.0  0.55276  0.58392  0.72744  1.0000
  H   H1712     1.0  0.55547  0.53027  0.78061  1.0000
  H   H1713     1.0  0.72419  0.51649  0.40237  1.0000
  C   C966      1.0  0.53723  0.55094  0.07382  1.0000
  C   C967      1.0  0.54882  0.55578  0.10190  1.0000
  C   C968      1.0  0.54661  0.56615  0.13217  1.0000
  C   C969      1.0  0.53275  0.57160  0.13471  1.0000
  C   C970      1.0  0.52102  0.56653  0.10702  1.0000
  C   C971      1.0  0.52330  0.55629  0.07660  1.0000
  H   H1714     1.0  0.55958  0.55168  0.10002  1.0000
  H   H1715     1.0  0.55571  0.57000  0.15356  1.0000
  H   H1716     1.0  0.66756  0.51455  0.45348  1.0000
  S   S223      1.0  0.55760  0.50391  0.07907  1.0000
  H   H1717     1.0  0.50326  0.62072  0.44019  1.0000
  H   H1718     1.0  0.58433  0.56051  0.79934  1.0000
  C   C972      1.0  0.53360  0.62175  0.28315  1.0000
  C   C973      1.0  0.64184  0.51815  0.04288  1.0000
  H   H1719     1.0  0.52044  0.57482  0.99493  1.0000
  S   S224      1.0  0.50882  0.58891  0.45867  1.0000
  H   H1720     1.0  0.53955  0.64042  0.22796  1.0000
  H   H1721     1.0  0.61373  0.59167  0.65677  1.0000
  H   H1722     1.0  0.56037  0.58079  0.28174  1.0000
  N   N55       1.0  0.58496  0.57699  0.71468  1.0000
  H   H1723     1.0  0.62990  0.50891  0.05974  1.0000
  C   C974      1.0  0.54412  0.58094  0.95666  1.0000
  H   H1724     1.0  0.50110  0.62667  0.68033  1.0000
  H   H1725     1.0  0.59725  0.52007  0.49348  1.0000
  C   C975      1.0  0.64918  0.52767  0.11122  1.0000
  H   H1726     1.0  0.60938  0.57127  0.76175  1.0000
  H   H1727     1.0  0.58112  0.61797  0.25282  1.0000
  H   H1728     1.0  0.62180  0.58641  0.71967  1.0000
  C   C976      1.0  0.57897  0.60535  0.26954  1.0000
  H   H1729     1.0  0.53994  0.61166  0.95618  1.0000
  H   H1730     1.0  0.58578  0.54692  0.76010  1.0000
  H   H1731     1.0  0.57868  0.51957  0.52620  1.0000
  H   H1732     1.0  0.50296  0.55682  0.31540  1.0000
  C   C977      1.0  0.57642  0.58655  0.68878  1.0000
  C   C978      1.0  0.51060  0.55604  0.28615  1.0000
  S   S225      1.0  0.59308  0.50389  0.02656  1.0000
  S   S226      1.0  0.56603  0.51605  0.97724  1.0000
  H   H1733     1.0  0.53568  0.56611  0.25450  1.0000
  H   H1734     1.0  0.63021  0.51422  0.46213  1.0000
  C   C979      1.0  0.50448  0.51461  0.64948  1.0000
  C   C980      1.0  0.53866  0.62229  0.03574  1.0000
  H   H1735     1.0  0.55195  0.57611  0.42731  1.0000
  H   H1736     1.0  0.51953  0.59777  0.05410  1.0000
  H   H1737     1.0  0.59182  0.51834  0.80726  1.0000
  H   H1738     1.0  0.61345  0.59322  0.80992  1.0000
  H   H1739     1.0  0.53182  0.50354  0.95003  1.0000
  Fe  Fe112     1.0  0.50423  0.58460  0.61555  1.0000
  H   H1740     1.0  0.69675  0.56614  0.02277  1.0000
  H   H1741     1.0  0.52760  0.63263  0.96518  1.0000
  C   C981      1.0  0.66833  0.51929  0.51751  1.0000
  H   H1742     1.0  0.68340  0.53812  0.06473  1.0000
  C   C982      1.0  0.69092  0.50567  0.40129  1.0000
  H   H1743     1.0  0.60012  0.56134  0.70127  1.0000
  H   H1744     1.0  0.70835  0.52120  0.32088  1.0000
  H   H1745     1.0  0.72311  0.52025  0.45645  1.0000
  H   H1746     1.0  0.66107  0.55240  0.01527  1.0000
  C   C983      1.0  0.52079  0.60978  0.03510  1.0000
  C   C984      1.0  0.69785  0.50920  0.32196  1.0000
  Fe  Fe113     1.0  0.58516  0.51541  0.08150  1.0000
  H   H1747     1.0  0.54819  0.64851  0.27393  1.0000
  C   C985      1.0  0.62122  0.56200  0.09666  1.0000
  H   H1748     1.0  0.53827  0.60322  0.35261  1.0000
  H   H1749     1.0  0.50241  0.63705  0.87882  1.0000
  H   H1750     1.0  0.60455  0.60731  0.24805  1.0000
  H   H1751     1.0  0.58357  0.55862  0.67133  1.0000
  H   H1752     1.0  0.54201  0.61099  0.09584  1.0000
  C   C986      1.0  0.50563  0.52807  0.55881  1.0000
  H   H1753     1.0  0.60252  0.60182  0.71891  1.0000
  H   H1754     1.0  0.54678  0.57013  0.97233  1.0000
  H   H1755     1.0  0.55350  0.59977  0.65854  1.0000
  H   H1756     1.0  0.62487  0.58009  0.59847  1.0000
  H   H1757     1.0  0.67555  0.52938  0.01857  1.0000
  C   C987      1.0  0.69289  0.55449  0.00737  1.0000
  C   C988      1.0  0.72340  0.51077  0.43496  1.0000
  H   H1758     1.0  0.55771  0.57850  0.34997  1.0000
  C   C989      1.0  0.56084  0.59346  0.26882  1.0000
  H   H1759     1.0  0.50614  0.72050  0.90141  1.0000
  H   H1760     1.0  0.55049  0.61081  0.70225  1.0000
  H   H1761     1.0  0.69684  0.52019  0.47025  1.0000
  H   H1762     1.0  0.62314  0.57240  0.11641  1.0000
  H   H1763     1.0  0.50560  0.54077  0.56411  1.0000
  Fe  Fe114     1.0  0.50040  0.59301  0.52463  1.0000
  H   H1764     1.0  0.63679  0.52349  0.13144  1.0000
  C   C990      1.0  0.67860  0.54068  0.03522  1.0000
  H   H1765     1.0  0.64738  0.56587  0.08658  1.0000
  C   C991      1.0  0.52795  0.60108  0.96598  1.0000
  H   H1766     1.0  0.59066  0.59116  0.76711  1.0000
  H   H1767     1.0  0.58167  0.60665  0.30220  1.0000
  H   H1768     1.0  0.57799  0.51633  0.47155  1.0000
  H   H1769     1.0  0.50138  0.54784  0.97406  1.0000
  C   C992      1.0  0.55291  0.58785  0.40770  1.0000
  C   C993      1.0  0.54857  0.58392  0.36408  1.0000
  H   H1770     1.0  0.65040  0.53138  0.97838  1.0000
  H   H1771     1.0  0.62049  0.56690  0.06421  1.0000
  H   H1772     1.0  0.53399  0.56241  0.31051  1.0000
  H   H1773     1.0  0.66677  0.51387  0.09578  1.0000
  H   H1774     1.0  0.50886  0.51577  0.95359  1.0000
  H   H1775     1.0  0.52584  0.58966  0.25693  1.0000
  C   C994      1.0  0.66048  0.51116  0.16249  1.0000
  H   H1776     1.0  0.50033  0.63435  0.75301  1.0000
  H   H1777     1.0  0.52188  0.61371  0.27313  1.0000
  H   H1778     1.0  0.63572  0.55053  0.13033  1.0000
  H   H1779     1.0  0.54942  0.61547  0.23542  1.0000
  H   H1780     1.0  0.65727  0.53848  0.12518  1.0000
  H   H1781     1.0  0.58970  0.59724  0.21439  1.0000
  H   H1782     1.0  0.56588  0.59681  0.40559  1.0000
  N   N56       1.0  0.51563  0.60670  0.99237  1.0000
  H   H1783     1.0  0.51217  0.61482  0.05323  1.0000
  H   H1784     1.0  0.62310  0.56653  0.64601  1.0000
  H   H1785     1.0  0.62847  0.52651  0.99589  1.0000
  H   H1786     1.0  0.51760  0.52689  0.56647  1.0000
  H   H1787     1.0  0.55428  0.54399  0.82004  1.0000
  C   C995      1.0  0.65573  0.51275  0.11838  1.0000
  C   C996      1.0  0.50223  0.59772  0.41524  1.0000
  C   C997      1.0  0.54873  0.59984  0.33690  1.0000
  C   C998      1.0  0.59727  0.58915  0.73750  1.0000
  H   H1788     1.0  0.51788  0.64887  0.90884  1.0000
  H   H1789     1.0  0.60776  0.56052  0.61010  1.0000
  H   H1790     1.0  0.59798  0.58374  0.62372  1.0000
  C   C999      1.0  0.57160  0.56383  0.74539  1.0000
  C   C1000     1.0  0.60528  0.58004  0.64692  1.0000
  H   H1791     1.0  0.56730  0.53114  0.82389  1.0000
  C   C1001     1.0  0.61591  0.57120  0.62416  1.0000
  C   C1002     1.0  0.68782  0.50713  0.47702  1.0000
  C   C1003     1.0  0.61269  0.58450  0.74829  1.0000
  C   C1004     1.0  0.54832  0.61542  0.27019  1.0000
  H   H1792     1.0  0.56451  0.56974  0.76598  1.0000
  C   C1005     1.0  0.57754  0.55281  0.77639  1.0000
  C   C1006     1.0  0.56268  0.53872  0.80167  1.0000
  C   C1007     1.0  0.52877  0.56733  0.28450  1.0000
  H   H1793     1.0  0.66751  0.55684  0.06436  1.0000
  H   H1794     1.0  0.62135  0.53114  0.07922  1.0000
  H   H1795     1.0  0.70385  0.55027  0.00168  1.0000
  C   C1008     1.0  0.51497  0.62284  0.97058  1.0000
  H   H1796     1.0  0.67761  0.53218  0.51002  1.0000
  H   H1797     1.0  0.69890  0.51914  0.39826  1.0000
  H   H1798     1.0  0.53368  0.62799  0.09927  1.0000
  H   H1799     1.0  0.50591  0.51465  0.50405  1.0000
  H   H1800     1.0  0.54833  0.61839  0.01815  1.0000
  H   H1801     1.0  0.50532  0.55979  0.25853  1.0000
  H   H1802     1.0  0.51424  0.55252  0.05519  1.0000
  H   H1803     1.0  0.55546  0.63244  0.08049  1.0000
  C   C1009     1.0  0.54264  0.62345  0.08065  1.0000
  H   H1804     1.0  0.51023  0.57049  0.10900  1.0000
  H   H1805     1.0  0.53864  0.57714  0.92779  1.0000
  H   H1806     1.0  0.50999  0.54280  0.28535  1.0000
  C   C1010     1.0  0.53197  0.58592  0.98652  1.0000
  C   C1011     1.0  0.50538  0.52698  0.51189  1.0000
  S   S227      1.0  0.59470  0.51541  0.14475  1.0000
  C   C1012     1.0  0.50884  0.62170  0.92692  1.0000
  H   H1807     1.0  0.51496  0.52624  0.63606  1.0000
  H   H1808     1.0  0.50716  0.62816  0.99108  1.0000
  H   H1809     1.0  0.60614  0.51045  0.22360  1.0000
  H   H1810     1.0  0.53711  0.51209  0.63485  1.0000
  H   H1811     1.0  0.67005  0.51346  0.54799  1.0000
  C   C1013     1.0  0.50712  0.50342  0.09828  1.0000
  H   H1812     1.0  0.68612  0.51193  0.31919  1.0000
  H   H1813     1.0  0.51054  0.51723  0.09173  1.0000
  H   H1814     1.0  0.65561  0.52023  0.52073  1.0000
  H   H1815     1.0  0.65085  0.51127  0.04189  1.0000
  H   H1816     1.0  0.50045  0.57653  0.38142  1.0000
  C   C1014     1.0  0.73951  0.50682  0.43786  1.0000
  H   H1817     1.0  0.67812  0.50586  0.39811  1.0000
  H   H1818     1.0  0.50402  0.52625  0.02699  1.0000
  C   C1015     1.0  0.67010  0.50859  0.48269  1.0000
  C   C1016     1.0  0.49943  0.58892  0.38030  1.0000
  C   C1017     1.0  0.63511  0.50605  0.97480  1.0000
  C   C1018     1.0  0.50570  0.50202  0.96149  1.0000
  C   C1019     1.0  0.49872  0.59300  0.99822  1.0000
  C   C1020     1.0  0.52742  0.50207  0.65682  1.0000
  H   H1819     1.0  0.63235  0.50898  0.94274  1.0000
  C   C1021     1.0  0.50091  0.61374  0.41359  1.0000
  H   H1820     1.0  0.49879  0.58213  0.01987  1.0000
  H   H1821     1.0  0.70048  0.50278  0.29478  1.0000
  H   H1822     1.0  0.69013  0.50223  0.50800  1.0000
  Fe  Fe115     1.0  0.52633  0.94823  0.14099  1.0000
  C   C1022     1.0  0.50843  0.93994  0.38337  1.0000
  C   C1023     1.0  0.57237  0.97925  0.26554  1.0000
  Fe  Fe116     1.0  0.50207  0.92339  0.57595  1.0000
  S   S228      1.0  0.54970  0.97114  0.13560  1.0000
  C   C1024     1.0  0.54809  0.92301  0.26676  1.0000
  Fe  Fe117     1.0  0.50669  0.91401  0.11480  1.0000
  S   S229      1.0  0.54884  0.97686  0.59486  1.0000
  N   N57       1.0  0.55452  0.96972  0.28543  1.0000
  S   S230      1.0  0.50098  0.90757  0.27514  1.0000
  C   C1025     1.0  0.51633  0.85875  0.66710  1.0000
  H   H1823     1.0  0.52715  0.83633  0.78081  1.0000
  C   C1026     1.0  0.50162  0.88946  0.72111  1.0000
  H   H1824     1.0  0.56730  0.99479  0.38917  1.0000
  C   C1027     1.0  0.50314  0.91992  0.31706  1.0000
  C   C1028     1.0  0.50625  0.95724  0.92612  1.0000
  H   H1825     1.0  0.51011  0.91827  0.41963  1.0000
  Fe  Fe118     1.0  0.52692  0.95909  0.56941  1.0000
  H   H1826     1.0  0.51875  0.97198  0.68214  1.0000
  C   C1029     1.0  0.50860  0.92444  0.97462  1.0000
  H   H1827     1.0  0.50719  0.89881  0.92059  1.0000
  C   C1030     1.0  0.51838  0.84960  0.70785  1.0000
  C   C1031     1.0  0.55145  0.94169  0.25400  1.0000
  H   H1828     1.0  0.53389  0.99215  0.28634  1.0000
  H   H1829     1.0  0.54161  0.94267  0.23506  1.0000
  C   C1032     1.0  0.54287  0.98664  0.06467  1.0000
  H   H1830     1.0  0.50959  0.87701  0.99773  1.0000
  H   H1831     1.0  0.56383  0.94658  0.23443  1.0000
  C   C1033     1.0  0.50794  0.92328  0.38970  1.0000
  H   H1832     1.0  0.52753  0.78584  0.70438  1.0000
  H   H1833     1.0  0.53439  0.97441  0.06072  1.0000
  H   H1834     1.0  0.53819  0.99891  0.00867  1.0000
  H   H1835     1.0  0.55473  0.98943  0.32432  1.0000
  H   H1836     1.0  0.52703  0.92357  0.92173  1.0000
  H   H1837     1.0  0.54377  0.96942  0.22726  1.0000
  H   H1838     1.0  0.50556  0.91150  0.99040  1.0000
  H   H1839     1.0  0.54804  0.97857  0.41300  1.0000
  C   C1034     1.0  0.53132  0.99372  0.22098  1.0000
  C   C1035     1.0  0.54176  0.97259  0.25956  1.0000
  H   H1840     1.0  0.51861  0.98413  0.22483  1.0000
  H   H1841     1.0  0.57086  0.97120  0.20185  1.0000
  H   H1842     1.0  0.53616  0.91727  0.28820  1.0000
  H   H1843     1.0  0.52562  0.87168  0.66153  1.0000
  C   C1036     1.0  0.55146  0.95108  0.29310  1.0000
  H   H1844     1.0  0.58089  0.97268  0.27602  1.0000
  C   C1037     1.0  0.50140  0.89668  0.68040  1.0000
  H   H1845     1.0  0.50580  0.95911  0.33949  1.0000
  C   C1038     1.0  0.50595  0.98771  0.13389  1.0000
  S   S231      1.0  0.52589  0.92191  0.15925  1.0000
  H   H1846     1.0  0.53158  0.94352  0.94091  1.0000
  C   C1039     1.0  0.56179  0.97126  0.36152  1.0000
  H   H1847     1.0  0.50366  0.85970  0.66881  1.0000
  H   H1848     1.0  0.54634  0.80201  0.71391  1.0000
  S   S232      1.0  0.51366  0.95377  0.42158  1.0000
  H   H1849     1.0  0.51522  0.98463  0.61450  1.0000
  H   H1850     1.0  0.51370  0.80747  0.83139  1.0000
  H   H1851     1.0  0.53921  0.94463  0.31328  1.0000
  H   H1852     1.0  0.51105  0.90835  0.66692  1.0000
  H   H1853     1.0  0.51568  0.80872  0.70108  1.0000
  H   H1854     1.0  0.56107  0.94862  0.31086  1.0000
  H   H1855     1.0  0.53785  0.78255  0.74851  1.0000
  C   C1040     1.0  0.52657  0.92976  0.95041  1.0000
  H   H1856     1.0  0.54717  0.91635  0.23842  1.0000
  C   C1041     1.0  0.52177  0.98581  0.67679  1.0000
  H   H1857     1.0  0.51837  0.99022  0.70672  1.0000
  Fe  Fe119     1.0  0.51117  0.94683  0.49208  1.0000
  C   C1042     1.0  0.55194  0.98851  0.09862  1.0000
  H   H1858     1.0  0.57510  0.97418  0.34852  1.0000
  S   S233      1.0  0.50893  0.89623  0.06671  1.0000
  H   H1859     1.0  0.56786  0.97717  0.42337  1.0000
  H   H1860     1.0  0.55637  0.95768  0.37367  1.0000
  H   H1861     1.0  0.53178  0.82371  0.72081  1.0000
  H   H1862     1.0  0.51843  0.85786  0.73284  1.0000
  H   H1863     1.0  0.55840  0.92119  0.28267  1.0000
  H   H1864     1.0  0.50755  0.83904  0.79364  1.0000
  H   H1865     1.0  0.53325  0.83319  0.85435  1.0000
  H   H1866     1.0  0.57701  0.99184  0.27659  1.0000
  H   H1867     1.0  0.52855  0.96764  0.87961  1.0000
  C   C1043     1.0  0.55167  0.97556  0.32770  1.0000
  H   H1868     1.0  0.51633  0.82170  0.89520  1.0000
  C   C1044     1.0  0.51965  0.81344  0.73079  1.0000
  C   C1045     1.0  0.51348  0.82933  0.78844  1.0000
  C   C1046     1.0  0.51206  0.99009  0.64298  1.0000
  H   H1869     1.0  0.53084  0.84821  0.70332  1.0000
  H   H1870     1.0  0.53853  0.93143  0.00728  1.0000
  S   S234      1.0  0.52659  0.93717  0.53370  1.0000
  S   S235      1.0  0.51325  0.96950  0.52538  1.0000
  H   H1871     1.0  0.51832  0.85200  0.64010  1.0000
  H   H1872     1.0  0.53461  0.91160  0.98630  1.0000
  C   C1047     1.0  0.50392  0.83247  0.72027  1.0000
  C   C1048     1.0  0.50563  0.94629  0.34443  1.0000
  H   H1873     1.0  0.52906  0.96383  0.27254  1.0000
  H   H1874     1.0  0.53821  0.97016  0.34119  1.0000
  C   C1049     1.0  0.53846  0.92542  0.97794  1.0000
  C   C1050     1.0  0.50525  0.91329  0.35658  1.0000
  H   H1875     1.0  0.50528  0.90053  0.36124  1.0000
  S   S236      1.0  0.50893  0.94070  0.09303  1.0000
  H   H1876     1.0  0.55138  0.92998  0.96077  1.0000
  C   C1051     1.0  0.51953  0.82929  0.86388  1.0000
  C   C1052     1.0  0.56118  0.98108  0.39893  1.0000
  C   C1053     1.0  0.53456  0.79209  0.72901  1.0000
  C   C1054     1.0  0.51013  0.81882  0.83216  1.0000
  H   H1877     1.0  0.50950  0.93241  0.00064  1.0000
  C   C1055     1.0  0.54075  0.99056  0.25669  1.0000
  H   H1878     1.0  0.56992  0.99172  0.20508  1.0000
  H   H1879     1.0  0.52017  0.98293  0.89910  1.0000
  H   H1880     1.0  0.51093  0.93786  0.89210  1.0000
  S   S237      1.0  0.50624  0.94671  0.19309  1.0000
  H   H1881     1.0  0.50528  0.91245  0.87675  1.0000
  H   H1882     1.0  0.51591  0.84064  0.86655  1.0000
  H   H1883     1.0  0.53824  0.99327  0.19030  1.0000
  H   H1884     1.0  0.59649  0.99295  0.16647  1.0000
  C   C1056     1.0  0.57582  0.98270  0.21685  1.0000
  C   C1057     1.0  0.55549  0.99843  0.57539  1.0000
  H   H1885     1.0  0.50970  0.96966  0.86233  1.0000
  H   H1886     1.0  0.50086  0.94142  0.28174  1.0000
  H   H1887     1.0  0.54466  0.99476  0.51821  1.0000
  H   H1888     1.0  0.51257  0.78909  0.77128  1.0000
  H   H1889     1.0  0.55337  0.00030  0.25182  1.0000
  C   C1058     1.0  0.59454  0.99036  0.20125  1.0000
  H   H1890     1.0  0.60106  0.98152  0.21043  1.0000
  N   N58       1.0  0.50697  0.82010  0.75219  1.0000
  C   C1059     1.0  0.52390  0.79959  0.75666  1.0000
  H   H1891     1.0  0.53544  0.99164  0.66669  1.0000
  C   C1060     1.0  0.51680  0.97011  0.88940  1.0000
  H   H1892     1.0  0.51965  0.99046  0.13165  1.0000
  H   H1893     1.0  0.53139  0.80511  0.78126  1.0000
  Fe  Fe120     1.0  0.50425  0.91987  0.20802  1.0000
  H   H1894     1.0  0.51362  0.95827  0.95274  1.0000
  S   S238      1.0  0.50386  0.94447  0.61484  1.0000
  C   C1061     1.0  0.50294  0.93633  0.31151  1.0000
  H   H1895     1.0  0.50085  0.97878  0.11134  1.0000
  H   H1896     1.0  0.51149  0.89567  0.73873  1.0000
  H   H1897     1.0  0.50008  0.98154  0.16599  1.0000
  H   H1898     1.0  0.50029  0.99417  0.56989  1.0000
  H   H1899     1.0  0.50113  0.82681  0.69083  1.0000
  C   C1062     1.0  0.50056  0.93911  0.91368  1.0000
  C   C1063     1.0  0.54504  0.00056  0.03521  1.0000
  H   H1900     1.0  0.49857  0.98374  0.65427  1.0000
  Fe  Fe121     1.0  0.90938  0.39150  0.54734  1.0000
  S   S239      1.0  0.88575  0.37283  0.58403  1.0000
  S   S240      1.0  0.93413  0.38696  0.53825  1.0000
  Fe  Fe122     1.0  0.89309  0.41697  0.52752  1.0000
  S   S241      1.0  0.86837  0.40089  0.56297  1.0000
  S   S242      1.0  0.89523  0.44199  0.49391  1.0000
  Fe  Fe123     1.0  0.88286  0.39514  0.61293  1.0000
  S   S243      1.0  0.87152  0.39499  0.68023  1.0000
  Fe  Fe124     1.0  0.87288  0.37986  0.53152  1.0000
  S   S244      1.0  0.84911  0.36210  0.51232  1.0000
  S   S245      1.0  0.90730  0.41325  0.58006  1.0000
  S   S246      1.0  0.89678  0.39652  0.49234  1.0000
  Fe  Fe125     1.0  0.87931  0.40551  0.97113  1.0000
  S   S247      1.0  0.88229  0.39130  0.02956  1.0000
  S   S248      1.0  0.87047  0.42754  0.97412  1.0000
  Fe  Fe126     1.0  0.89407  0.38659  0.91256  1.0000
  S   S249      1.0  0.89857  0.37068  0.96663  1.0000
  S   S250      1.0  0.90431  0.38624  0.84462  1.0000
  Fe  Fe127     1.0  0.87282  0.36867  0.99658  1.0000
  S   S251      1.0  0.85580  0.34460  0.03614  1.0000
  Fe  Fe128     1.0  0.90771  0.39459  0.99588  1.0000
  S   S252      1.0  0.92885  0.40112  0.03546  1.0000
  S   S253      1.0  0.86752  0.38259  0.94005  1.0000
  S   S254      1.0  0.90539  0.41058  0.93991  1.0000
  H   H1901     1.0  0.82762  0.42706  0.13094  1.0000
  H   H1902     1.0  0.90750  0.45879  0.93638  1.0000
  S   S255      1.0  0.80361  0.45910  0.39214  1.0000
  C   C1064     1.0  0.92117  0.48439  0.94274  1.0000
  H   H1903     1.0  0.96996  0.39336  0.52242  1.0000
  H   H1904     1.0  0.80357  0.44933  0.22166  1.0000
  Fe  Fe129     1.0  0.82565  0.48347  0.38237  1.0000
  S   S256      1.0  0.83420  0.47919  0.31720  1.0000
  H   H1905     1.0  0.76100  0.27356  0.10003  1.0000
  S   S257      1.0  0.79550  0.46970  0.29733  1.0000
  Fe  Fe130     1.0  0.81133  0.45631  0.32530  1.0000
  S   S258      1.0  0.81530  0.43439  0.29644  1.0000
  C   C1065     1.0  0.94801  0.43546  0.63440  1.0000
  H   H1906     1.0  0.95874  0.41677  0.30703  1.0000
  H   H1907     1.0  0.88393  0.29168  0.72678  1.0000
  Fe  Fe131     1.0  0.80535  0.33136  0.31593  1.0000
  S   S259      1.0  0.80019  0.35257  0.28131  1.0000
  S   S260      1.0  0.83166  0.33916  0.33447  1.0000
  Fe  Fe132     1.0  0.77105  0.30599  0.30337  1.0000
  S   S261      1.0  0.76366  0.32597  0.26880  1.0000
  C   C1066     1.0  0.76318  0.42890  0.44807  1.0000
  Fe  Fe133     1.0  0.79008  0.33496  0.23509  1.0000
  S   S262      1.0  0.79524  0.34572  0.16641  1.0000
  Fe  Fe134     1.0  0.77462  0.34211  0.31767  1.0000
  S   S263      1.0  0.76442  0.36039  0.34855  1.0000
  S   S264      1.0  0.79708  0.31415  0.26647  1.0000
  S   S265      1.0  0.78012  0.32158  0.35553  1.0000
  C   C1067     1.0  0.80031  0.41428  0.31107  1.0000
  C   C1068     1.0  0.79816  0.40254  0.28230  1.0000
  C   C1069     1.0  0.78682  0.38617  0.29340  1.0000
  C   C1070     1.0  0.77793  0.38124  0.33380  1.0000
  C   C1071     1.0  0.78005  0.39299  0.36269  1.0000
  C   C1072     1.0  0.79119  0.40954  0.35131  1.0000
  H   H1908     1.0  0.80526  0.40609  0.25126  1.0000
  H   H1909     1.0  0.78489  0.37737  0.27050  1.0000
  H   H1910     1.0  0.88807  0.44465  0.58918  1.0000
  H   H1911     1.0  0.78974  0.43981  0.18520  1.0000
  C   C1073     1.0  0.98382  0.49266  0.17150  1.0000
  H   H1912     1.0  0.84131  0.44404  0.52370  1.0000
  C   C1074     1.0  0.80253  0.44245  0.19370  1.0000
  H   H1913     1.0  0.86028  0.45986  0.49755  1.0000
  H   H1914     1.0  0.81366  0.44610  0.12919  1.0000
  H   H1915     1.0  0.89329  0.42171  0.41510  1.0000
  H   H1916     1.0  0.83433  0.44619  0.18631  1.0000
  H   H1917     1.0  0.76865  0.42796  0.38214  1.0000
  H   H1918     1.0  0.93295  0.48409  0.15982  1.0000
  C   C1075     1.0  0.97884  0.48173  0.67883  1.0000
  H   H1919     1.0  0.75897  0.40790  0.41358  1.0000
  H   H1920     1.0  0.93783  0.39112  0.38202  1.0000
  H   H1921     1.0  0.97208  0.41962  0.23440  1.0000
  C   C1076     1.0  0.75842  0.30295  0.16664  1.0000
  C   C1077     1.0  0.88327  0.44119  0.00434  1.0000
  C   C1078     1.0  0.89587  0.43693  0.02183  1.0000
  C   C1079     1.0  0.90579  0.44749  0.04710  1.0000
  C   C1080     1.0  0.90346  0.46262  0.05406  1.0000
  C   C1081     1.0  0.89111  0.46710  0.03595  1.0000
  C   C1082     1.0  0.88098  0.45638  0.01109  1.0000
  H   H1922     1.0  0.89816  0.42555  0.01586  1.0000
  H   H1923     1.0  0.91544  0.44400  0.06058  1.0000
  H   H1924     1.0  0.88914  0.47864  0.04181  1.0000
  H   H1925     1.0  0.87135  0.45981  0.99732  1.0000
  C   C1083     1.0  0.83968  0.34560  0.07364  1.0000
  C   C1084     1.0  0.83363  0.35903  0.07071  1.0000
  C   C1085     1.0  0.82006  0.35897  0.09952  1.0000
  C   C1086     1.0  0.81285  0.34583  0.13235  1.0000
  C   C1087     1.0  0.81910  0.33256  0.13578  1.0000
  C   C1088     1.0  0.83234  0.33235  0.10625  1.0000
  H   H1926     1.0  0.83910  0.36923  0.04553  1.0000
  H   H1927     1.0  0.81516  0.36919  0.09631  1.0000
  H   H1928     1.0  0.81354  0.32232  0.16073  1.0000
  H   H1929     1.0  0.83692  0.32189  0.10855  1.0000
  C   C1089     1.0  0.94790  0.41767  0.01839  1.0000
  H   H1930     1.0  0.75076  0.29456  0.19468  1.0000
  C   C1090     1.0  0.95151  0.42624  0.97781  1.0000
  H   H1931     1.0  0.82573  0.39792  0.55561  1.0000
  H   H1932     1.0  0.94249  0.42276  0.95613  1.0000
  C   C1091     1.0  0.91043  0.45800  0.51326  1.0000
  C   C1092     1.0  0.92490  0.45543  0.52397  1.0000
  C   C1093     1.0  0.93616  0.46736  0.54390  1.0000
  C   C1094     1.0  0.93266  0.48159  0.55483  1.0000
  C   C1095     1.0  0.91842  0.48441  0.54280  1.0000
  C   C1096     1.0  0.90757  0.47286  0.52101  1.0000
  H   H1933     1.0  0.92728  0.44413  0.51727  1.0000
  H   H1934     1.0  0.94710  0.46503  0.55234  1.0000
  H   H1935     1.0  0.76163  0.42543  0.24434  1.0000
  H   H1936     1.0  0.89658  0.47511  0.51188  1.0000
  C   C1097     1.0  0.88156  0.39476  0.72553  1.0000
  C   C1098     1.0  0.87223  0.39289  0.76526  1.0000
  C   C1099     1.0  0.87925  0.39100  0.80219  1.0000
  C   C1100     1.0  0.89568  0.39098  0.79965  1.0000
  C   C1101     1.0  0.90521  0.39356  0.75994  1.0000
  C   C1102     1.0  0.89821  0.39550  0.72302  1.0000
  H   H1937     1.0  0.85934  0.39236  0.76753  1.0000
  H   H1938     1.0  0.87177  0.38895  0.83256  1.0000
  H   H1939     1.0  0.91794  0.39359  0.75773  1.0000
  H   H1940     1.0  0.90557  0.39711  0.69267  1.0000
  C   C1103     1.0  0.84468  0.35707  0.46153  1.0000
  C   C1104     1.0  0.85731  0.35928  0.42811  1.0000
  C   C1105     1.0  0.85314  0.35397  0.38918  1.0000
  C   C1106     1.0  0.83633  0.34663  0.38309  1.0000
  C   C1107     1.0  0.82371  0.34505  0.41601  1.0000
  C   C1108     1.0  0.82789  0.35009  0.45510  1.0000
  H   H1941     1.0  0.87028  0.36454  0.43270  1.0000
  H   H1942     1.0  0.86298  0.35522  0.36395  1.0000
  H   H1943     1.0  0.81074  0.33945  0.41178  1.0000
  H   H1944     1.0  0.81803  0.34831  0.48073  1.0000
  C   C1109     1.0  0.95144  0.40558  0.52372  1.0000
  N   N59       1.0  0.97606  0.43732  0.37047  1.0000
  H   H1945     1.0  0.88250  0.42994  0.63567  1.0000
  H   H1946     1.0  0.86384  0.48072  0.16569  1.0000
  C   C1110     1.0  0.85937  0.41618  0.41254  1.0000
  H   H1947     1.0  0.88906  0.41892  0.36183  1.0000
  H   H1948     1.0  0.91554  0.49533  0.55073  1.0000
  H   H1949     1.0  0.98840  0.43853  0.24149  1.0000
  H   H1950     1.0  0.89395  0.40305  0.39316  1.0000
  C   C1111     1.0  0.79983  0.31463  0.03850  1.0000
  C   C1112     1.0  0.95669  0.47296  0.00163  1.0000
  H   H1951     1.0  0.86813  0.39671  0.44169  1.0000
  H   H1952     1.0  0.84536  0.40990  0.49036  1.0000
  C   C1113     1.0  0.85359  0.44063  0.60101  1.0000
  H   H1953     1.0  0.75400  0.42173  0.47564  1.0000
  C   C1114     1.0  0.86889  0.40347  0.41029  1.0000
  H   H1954     1.0  0.82657  0.41757  0.65783  1.0000
  H   H1955     1.0  0.91059  0.46412  0.62570  1.0000
  C   C1115     1.0  0.97517  0.43522  0.03361  1.0000
  H   H1956     1.0  0.86445  0.29174  0.75398  1.0000
  H   H1957     1.0  0.92296  0.48172  0.97580  1.0000
  H   H1958     1.0  0.84839  0.40645  0.33916  1.0000
  C   C1116     1.0  0.98483  0.48871  0.53446  1.0000
  H   H1959     1.0  0.77794  0.43177  0.27736  1.0000
  S   S266      1.0  0.84962  0.49321  0.41321  1.0000
  H   H1960     1.0  0.97597  0.47745  0.52419  1.0000
  H   H1961     1.0  0.86517  0.42519  0.43447  1.0000
  H   H1962     1.0  0.93972  0.44281  0.64230  1.0000
  H   H1963     1.0  0.96700  0.41788  0.42355  1.0000
  C   C1117     1.0  0.96407  0.49192  0.98934  1.0000
  C   C1118     1.0  0.85173  0.46274  0.70131  1.0000
  C   C1119     1.0  0.83271  0.42095  0.68600  1.0000
  C   C1120     1.0  0.95979  0.42219  0.04617  1.0000
  C   C1121     1.0  0.88745  0.44347  0.62378  1.0000
  N   N60       1.0  0.86043  0.35496  0.20207  1.0000
  C   C1122     1.0  0.85206  0.36635  0.18279  1.0000
  C   C1123     1.0  0.87218  0.35179  0.16809  1.0000
  C   C1124     1.0  0.84704  0.33823  0.21822  1.0000
  C   C1125     1.0  0.86938  0.36179  0.23823  1.0000
  C   C1126     1.0  0.87698  0.38118  0.23650  1.0000
  C   C1127     1.0  0.83707  0.36805  0.21117  1.0000
  C   C1128     1.0  0.85322  0.32403  0.23551  1.0000
  C   C1129     1.0  0.88633  0.36729  0.14403  1.0000
  C   C1130     1.0  0.89565  0.36218  0.10740  1.0000
  C   C1131     1.0  0.88720  0.38606  0.27249  1.0000
  C   C1132     1.0  0.83264  0.38327  0.19506  1.0000
  C   C1133     1.0  0.83857  0.30858  0.25597  1.0000
  H   H1964     1.0  0.84735  0.36179  0.15356  1.0000
  H   H1965     1.0  0.86111  0.37914  0.17229  1.0000
  H   H1966     1.0  0.87869  0.34356  0.18125  1.0000
  H   H1967     1.0  0.86488  0.34492  0.14439  1.0000
  H   H1968     1.0  0.83947  0.33342  0.19314  1.0000
  H   H1969     1.0  0.83811  0.33966  0.24402  1.0000
  H   H1970     1.0  0.86074  0.35749  0.26842  1.0000
  H   H1971     1.0  0.87953  0.35649  0.24223  1.0000
  H   H1972     1.0  0.86693  0.38678  0.23972  1.0000
  H   H1973     1.0  0.88518  0.38708  0.20666  1.0000
  H   H1974     1.0  0.82595  0.35670  0.21130  1.0000
  H   H1975     1.0  0.83961  0.36911  0.24403  1.0000
  H   H1976     1.0  0.86166  0.32830  0.25932  1.0000
  H   H1977     1.0  0.85995  0.31985  0.20976  1.0000
  H   H1978     1.0  0.88155  0.37696  0.13063  1.0000
  H   H1979     1.0  0.89560  0.37285  0.16502  1.0000
  H   H1980     1.0  0.90090  0.35249  0.11851  1.0000
  H   H1981     1.0  0.88718  0.35726  0.08400  1.0000
  H   H1982     1.0  0.90614  0.37330  0.09154  1.0000
  H   H1983     1.0  0.89223  0.39996  0.27101  1.0000
  H   H1984     1.0  0.87922  0.38087  0.30322  1.0000
  H   H1985     1.0  0.89787  0.38129  0.27016  1.0000
  H   H1986     1.0  0.82959  0.38232  0.16257  1.0000
  H   H1987     1.0  0.82149  0.38371  0.21530  1.0000
  H   H1988     1.0  0.84317  0.39509  0.19567  1.0000
  H   H1989     1.0  0.83181  0.31163  0.28371  1.0000
  H   H1990     1.0  0.82972  0.30386  0.23327  1.0000
  H   H1991     1.0  0.84331  0.29845  0.26672  1.0000
  H   H1992     1.0  0.90529  0.44751  0.66882  1.0000
  C   C1134     1.0  0.83938  0.43711  0.38847  1.0000
  C   C1135     1.0  0.85215  0.45288  0.40033  1.0000
  C   C1136     1.0  0.82778  0.38536  0.32867  1.0000
  H   H1993     1.0  0.81914  0.41676  0.42440  1.0000
  H   H1994     1.0  0.81848  0.39063  0.40916  1.0000
  H   H1995     1.0  0.82827  0.40937  0.34450  1.0000
  H   H1996     1.0  0.82855  0.44072  0.38062  1.0000
  H   H1997     1.0  0.86384  0.45078  0.40679  1.0000
  H   H1998     1.0  0.85538  0.46316  0.37407  1.0000
  H   H1999     1.0  0.86382  0.39413  0.38870  1.0000
  H   H2000     1.0  0.83473  0.37646  0.33250  1.0000
  H   H2001     1.0  0.82884  0.38955  0.29471  1.0000
  N   N61       1.0  0.84712  0.46376  0.13060  1.0000
  C   C1137     1.0  0.86380  0.47042  0.14640  1.0000
  C   C1138     1.0  0.84712  0.45060  0.10170  1.0000
  C   C1139     1.0  0.84139  0.43200  0.12188  1.0000
  C   C1140     1.0  0.97530  0.44047  0.32409  1.0000
  C   C1141     1.0  0.86940  0.45755  0.17217  1.0000
  C   C1142     1.0  0.98159  0.42028  0.50644  1.0000
  C   C1143     1.0  0.84589  0.42090  0.09105  1.0000
  H   H2002     1.0  0.94407  0.42390  0.65722  1.0000
  H   H2003     1.0  0.87408  0.47603  0.11986  1.0000
  C   C1144     1.0  0.98676  0.48798  0.63272  1.0000
  H   H2004     1.0  0.83893  0.45082  0.07709  1.0000
  H   H2005     1.0  0.85982  0.45368  0.08403  1.0000
  H   H2006     1.0  0.84709  0.43041  0.15043  1.0000
  S   S267      1.0  0.99774  0.46045  0.97628  1.0000
  C   C1145     1.0  0.84209  0.47455  0.71158  1.0000
  H   H2007     1.0  0.85974  0.45027  0.19861  1.0000
  H   H2008     1.0  0.87245  0.44886  0.15140  1.0000
  H   H2009     1.0  0.83983  0.43504  0.60197  1.0000
  N   N62       1.0  0.96934  0.49577  0.15340  1.0000
  C   C1146     1.0  0.78286  0.27097  0.22743  1.0000
  H   H2010     1.0  0.80445  0.43029  0.20161  1.0000
  C   C1147     1.0  0.83496  0.40054  0.35182  1.0000
  N   N63       1.0  0.91351  0.45734  0.84946  1.0000
  C   C1148     1.0  0.91368  0.46355  0.80415  1.0000
  C   C1149     1.0  0.89602  0.44609  0.86867  1.0000
  C   C1150     1.0  0.91831  0.47249  0.87305  1.0000
  C   C1151     1.0  0.92594  0.44838  0.85441  1.0000
  C   C1152     1.0  0.92451  0.43360  0.82840  1.0000
  C   C1153     1.0  0.93071  0.47548  0.78032  1.0000
  S   S268      1.0  0.91628  0.47595  0.08469  1.0000
  C   C1154     1.0  0.88463  0.43553  0.83916  1.0000
  C   C1155     1.0  0.86858  0.42298  0.86386  1.0000
  C   C1156     1.0  0.93862  0.42657  0.83380  1.0000
  H   H2011     1.0  0.92826  0.46624  0.71930  1.0000
  C   C1157     1.0  0.96304  0.48296  0.12386  1.0000
  H   H2012     1.0  0.90449  0.47027  0.80212  1.0000
  H   H2013     1.0  0.90942  0.45293  0.78549  1.0000
  H   H2014     1.0  0.89656  0.43733  0.89562  1.0000
  H   H2015     1.0  0.88873  0.45359  0.88265  1.0000
  H   H2016     1.0  0.82993  0.48818  0.49692  1.0000
  H   H2017     1.0  0.93087  0.48144  0.85982  1.0000
  H   H2018     1.0  0.93896  0.45739  0.84765  1.0000
  H   H2019     1.0  0.92469  0.44299  0.88766  1.0000
  H   H2020     1.0  0.92521  0.43742  0.79445  1.0000
  H   H2021     1.0  0.91260  0.42324  0.83956  1.0000
  Fe  Fe135     1.0  0.81802  0.49287  0.29446  1.0000
  H   H2022     1.0  0.94093  0.47038  0.78418  1.0000
  H   H2023     1.0  0.92985  0.46463  0.92531  1.0000
  C   C1158     1.0  0.75874  0.42084  0.40832  1.0000
  H   H2024     1.0  0.88092  0.44394  0.81694  1.0000
  H   H2025     1.0  0.89092  0.42838  0.82063  1.0000
  H   H2026     1.0  0.86057  0.41585  0.84198  1.0000
  H   H2027     1.0  0.87159  0.41392  0.88564  1.0000
  H   H2028     1.0  0.86148  0.42956  0.88221  1.0000
  H   H2029     1.0  0.93726  0.41592  0.81501  1.0000
  H   H2030     1.0  0.95102  0.43634  0.82294  1.0000
  H   H2031     1.0  0.93803  0.42177  0.86720  1.0000
  H   H2032     1.0  0.91933  0.48249  0.72760  1.0000
  H   H2033     1.0  0.84285  0.48766  0.12756  1.0000
  C   C1159     1.0  0.92676  0.49451  0.21483  1.0000
  N   N64       1.0  0.76685  0.29384  0.13866  1.0000
  H   H2034     1.0  0.75454  0.47181  0.30389  1.0000
  C   C1160     1.0  0.94966  0.45256  0.11166  1.0000
  N   N65       1.0  0.87233  0.34274  0.72464  1.0000
  C   C1161     1.0  0.87829  0.34647  0.76637  1.0000
  C   C1162     1.0  0.88551  0.35324  0.68895  1.0000
  C   C1163     1.0  0.85692  0.34773  0.72302  1.0000
  C   C1164     1.0  0.86743  0.32430  0.71982  1.0000
  C   C1165     1.0  0.88112  0.31624  0.72337  1.0000
  C   C1166     1.0  0.86610  0.33655  0.80604  1.0000
  C   C1167     1.0  0.85012  0.34753  0.68015  1.0000
  C   C1168     1.0  0.90418  0.35702  0.69463  1.0000
  C   C1169     1.0  0.91574  0.36573  0.65399  1.0000
  C   C1170     1.0  0.83481  0.35314  0.68258  1.0000
  H   H2035     1.0  0.88124  0.36009  0.76902  1.0000
  H   H2036     1.0  0.88343  0.34744  0.65936  1.0000
  H   H2037     1.0  0.88434  0.36587  0.68265  1.0000
  H   H2038     1.0  0.85936  0.36060  0.73214  1.0000
  H   H2039     1.0  0.84632  0.33931  0.74608  1.0000
  H   H2040     1.0  0.85626  0.31694  0.74279  1.0000
  H   H2041     1.0  0.86341  0.32201  0.68856  1.0000
  H   H2042     1.0  0.88725  0.31907  0.75178  1.0000
  H   H2043     1.0  0.89066  0.32074  0.69507  1.0000
  H   H2044     1.0  0.85404  0.33888  0.80773  1.0000
  H   H2045     1.0  0.86367  0.32287  0.80647  1.0000
  H   H2046     1.0  0.84629  0.33475  0.67035  1.0000
  H   H2047     1.0  0.85959  0.35620  0.65516  1.0000
  H   H2048     1.0  0.90697  0.34558  0.70452  1.0000
  H   H2049     1.0  0.91396  0.37778  0.64380  1.0000
  H   H2050     1.0  0.92899  0.36853  0.65903  1.0000
  H   H2051     1.0  0.83038  0.35312  0.65142  1.0000
  H   H2052     1.0  0.82450  0.34449  0.70594  1.0000
  H   H2053     1.0  0.83806  0.36610  0.69133  1.0000
  C   C1171     1.0  0.96450  0.42022  0.39077  1.0000
  H   H2054     1.0  0.96693  0.41003  0.37479  1.0000
  C   C1172     1.0  0.96624  0.44583  0.63645  1.0000
  C   C1173     1.0  0.81882  0.38743  0.53889  1.0000
  C   C1174     1.0  0.81962  0.39352  0.49260  1.0000
  H   H2055     1.0  0.82429  0.37726  0.54217  1.0000
  H   H2056     1.0  0.95544  0.46640  0.97320  1.0000
  H   H2057     1.0  0.84088  0.40755  0.10515  1.0000
  H   H2058     1.0  0.85970  0.42455  0.08340  1.0000
  C   C1175     1.0  0.96787  0.40524  0.51799  1.0000
  H   H2059     1.0  0.83505  0.46695  0.19014  1.0000
  H   H2060     1.0  0.77340  0.38911  0.39417  1.0000
  H   H2061     1.0  0.86123  0.47950  0.04870  1.0000
  H   H2062     1.0  0.84050  0.42201  0.06153  1.0000
  H   H2063     1.0  0.81434  0.37875  0.34078  1.0000
  C   C1176     1.0  0.96696  0.43915  0.96511  1.0000
  H   H2064     1.0  0.96974  0.44566  0.93362  1.0000
  H   H2065     1.0  0.93628  0.42121  0.52077  1.0000
  Fe  Fe136     1.0  0.78875  0.47409  0.36333  1.0000
  H   H2066     1.0  0.81236  0.38260  0.47772  1.0000
  H   H2067     1.0  0.89020  0.34415  0.76892  1.0000
  C   C1177     1.0  0.84811  0.49489  0.54035  1.0000
  H   H2068     1.0  0.97195  0.47768  0.43459  1.0000
  H   H2069     1.0  0.85868  0.43074  0.59167  1.0000
  C   C1178     1.0  0.83286  0.42242  0.42505  1.0000
  H   H2070     1.0  0.81333  0.40305  0.49125  1.0000
  H   H2071     1.0  0.86486  0.33407  0.87393  1.0000
  H   H2072     1.0  0.90755  0.36560  0.71892  1.0000
  C   C1179     1.0  0.94884  0.42091  0.51765  1.0000
  H   H2073     1.0  0.87315  0.46177  0.56146  1.0000
  H   H2074     1.0  0.81253  0.46476  0.14997  1.0000
  C   C1180     1.0  0.83227  0.39532  0.39970  1.0000
  H   H2075     1.0  0.91328  0.35756  0.62854  1.0000
  C   C1181     1.0  0.87343  0.34182  0.84601  1.0000
  H   H2076     1.0  0.79314  0.41846  0.37393  1.0000
  H   H2077     1.0  0.96551  0.47384  0.68013  1.0000
  H   H2078     1.0  0.94434  0.46256  0.16797  1.0000
  H   H2079     1.0  0.77828  0.26647  0.26121  1.0000
  H   H2080     1.0  0.87494  0.35519  0.84858  1.0000
  H   H2081     1.0  0.83605  0.38408  0.40581  1.0000
  C   C1182     1.0  0.79073  0.30118  0.07548  1.0000
  H   H2082     1.0  0.84679  0.45712  0.42833  1.0000
  H   H2083     1.0  0.88579  0.34015  0.84628  1.0000
  H   H2084     1.0  0.83404  0.40750  0.74539  1.0000
  H   H2085     1.0  0.82713  0.42935  0.70180  1.0000
  N   N66       1.0  0.84069  0.40877  0.42582  1.0000
  C   C1183     1.0  0.96243  0.43586  0.50721  1.0000
  H   H2086     1.0  0.96014  0.44764  0.50278  1.0000
  H   H2087     1.0  0.91506  0.49547  0.20462  1.0000
  C   C1184     1.0  0.83348  0.45738  0.16773  1.0000
  H   H2088     1.0  0.80972  0.31101  0.02084  1.0000
  C   C1185     1.0  0.81537  0.45302  0.15699  1.0000
  C   C1186     1.0  0.82849  0.40478  0.71601  1.0000
  H   H2089     1.0  0.78095  0.27696  0.14624  1.0000
  C   C1187     1.0  0.83802  0.40074  0.47070  1.0000
  H   H2090     1.0  0.83378  0.42824  0.45483  1.0000
  H   H2091     1.0  0.84278  0.39008  0.47277  1.0000
  H   H2092     1.0  0.80559  0.38234  0.55388  1.0000
  H   H2093     1.0  0.86249  0.42364  0.38127  1.0000
  H   H2094     1.0  0.80040  0.29933  0.09390  1.0000
  H   H2095     1.0  0.97861  0.49430  0.61899  1.0000
  H   H2096     1.0  0.93766  0.39424  0.43690  1.0000
  H   H2097     1.0  0.87952  0.45502  0.67502  1.0000
  H   H2098     1.0  0.97933  0.48073  0.19314  1.0000
  C   C1188     1.0  0.85948  0.45533  0.56484  1.0000
  H   H2099     1.0  0.91333  0.44448  0.61746  1.0000
  H   H2100     1.0  0.84450  0.43379  0.35894  1.0000
  H   H2101     1.0  0.94177  0.42438  0.41821  1.0000
  C   C1189     1.0  0.95537  0.46441  0.14441  1.0000
  S   S269      1.0  0.76144  0.46979  0.39153  1.0000
  C   C1190     1.0  0.90524  0.45035  0.63467  1.0000
  C   C1191     1.0  0.88744  0.41241  0.39404  1.0000
  C   C1192     1.0  0.77784  0.30664  0.10299  1.0000
  C   C1193     1.0  0.85509  0.44916  0.52298  1.0000
  H   H2102     1.0  0.85493  0.46952  0.63518  1.0000
  C   C1194     1.0  0.97883  0.43563  0.50117  1.0000
  H   H2103     1.0  0.76808  0.31301  0.17932  1.0000
  H   H2104     1.0  0.86051  0.43932  0.51578  1.0000
  C   C1195     1.0  0.84964  0.45757  0.65666  1.0000
  H   H2105     1.0  0.83243  0.47401  0.09258  1.0000
  C   C1196     1.0  0.88525  0.46638  0.19079  1.0000
  C   C1197     1.0  0.93898  0.49496  0.17633  1.0000
  H   H2106     1.0  0.76340  0.44208  0.44473  1.0000
  C   C1198     1.0  0.93506  0.39885  0.40600  1.0000
  H   H2107     1.0  0.92155  0.39725  0.40870  1.0000
  H   H2108     1.0  0.94230  0.42175  0.36336  1.0000
  H   H2109     1.0  0.93227  0.49501  0.92715  1.0000
  H   H2110     1.0  0.78263  0.25995  0.21090  1.0000
  H   H2111     1.0  0.95325  0.48282  0.21104  1.0000
  H   H2112     1.0  0.75761  0.40990  0.33239  1.0000
  C   C1199     1.0  0.94551  0.41738  0.39361  1.0000
  C   C1200     1.0  0.98247  0.49757  0.96775  1.0000
  H   H2113     1.0  0.93401  0.48800  0.79160  1.0000
  C   C1201     1.0  0.75444  0.28023  0.11975  1.0000
  S   S270      1.0  0.90534  0.49478  0.65494  1.0000
  H   H2114     1.0  0.96404  0.48546  0.82847  1.0000
  H   H2115     1.0  0.84153  0.49320  0.02650  1.0000
  C   C1202     1.0  0.97196  0.42515  0.29892  1.0000
  H   H2116     1.0  0.96722  0.44896  0.66884  1.0000
  H   H2117     1.0  0.77173  0.29018  0.22825  1.0000
  H   H2118     1.0  0.96528  0.44580  0.31865  1.0000
  C   C1203     1.0  0.87378  0.29713  0.72544  1.0000
  H   H2119     1.0  0.96987  0.44747  0.42662  1.0000
  H   H2120     1.0  0.94645  0.43167  0.60254  1.0000
  H   H2121     1.0  0.95709  0.41556  0.07753  1.0000
  H   H2122     1.0  0.86771  0.29352  0.69718  1.0000
  H   H2123     1.0  0.98336  0.49395  0.39238  1.0000
  C   C1204     1.0  0.77794  0.28687  0.16264  1.0000
  C   C1205     1.0  0.92990  0.47812  0.73327  1.0000
  C   C1206     1.0  0.97880  0.44373  0.99302  1.0000
  S   S271      1.0  0.99499  0.45499  0.48484  1.0000
  H   H2124     1.0  0.97278  0.45638  0.57286  1.0000
  H   H2125     1.0  0.79096  0.31607  0.01686  1.0000
  H   H2126     1.0  0.84670  0.48611  0.68857  1.0000
  S   S272      1.0  0.75453  0.27810  0.31877  1.0000
  C   C1207     1.0  0.97459  0.48082  0.39991  1.0000
  C   C1208     1.0  0.76688  0.43425  0.26699  1.0000
  S   S273      1.0  0.94531  0.49501  0.58622  1.0000
  H   H2127     1.0  0.79592  0.27978  0.22460  1.0000
  S   S274      1.0  0.81034  0.49867  0.35869  1.0000
  C   C1209     1.0  0.87650  0.45321  0.64267  1.0000
  H   H2128     1.0  0.75871  0.27077  0.21466  1.0000
  H   H2129     1.0  0.92365  0.48256  0.23582  1.0000
  H   H2130     1.0  0.79013  0.29694  0.16339  1.0000
  C   C1210     1.0  0.98248  0.46890  0.38044  1.0000
  H   H2131     1.0  0.78461  0.28934  0.06258  1.0000
  H   H2132     1.0  0.85325  0.46466  0.57055  1.0000
  H   H2133     1.0  0.80589  0.32693  0.04966  1.0000
  H   H2134     1.0  0.98493  0.47237  0.34594  1.0000
  H   H2135     1.0  0.96244  0.46746  0.60401  1.0000
  H   H2136     1.0  0.77010  0.31050  0.08124  1.0000
  H   H2137     1.0  0.78507  0.31834  0.11526  1.0000
  H   H2138     1.0  0.75969  0.44114  0.32668  1.0000
  H   H2139     1.0  0.83609  0.45289  0.65343  1.0000
  C   C1211     1.0  0.97092  0.45035  0.39217  1.0000
  H   H2140     1.0  0.86507  0.46960  0.70352  1.0000
  H   H2141     1.0  0.96703  0.43820  0.24316  1.0000
  H   H2142     1.0  0.82849  0.46826  0.71105  1.0000
  H   H2143     1.0  0.99276  0.49074  0.14647  1.0000
  H   H2144     1.0  0.88105  0.46608  0.62513  1.0000
  H   H2145     1.0  0.90949  0.47956  0.86948  1.0000
  C   C1212     1.0  0.85804  0.48819  0.06913  1.0000
  H   H2146     1.0  0.96470  0.46045  0.15995  1.0000
  H   H2147     1.0  0.97342  0.48343  0.09939  1.0000
  C   C1213     1.0  0.97237  0.46164  0.60326  1.0000
  H   H2148     1.0  0.81472  0.39895  0.72415  1.0000
  C   C1214     1.0  0.85192  0.42933  0.67421  1.0000
  H   H2149     1.0  0.94031  0.45592  0.09479  1.0000
  N   N67       1.0  0.85788  0.44520  0.64362  1.0000
  H   H2150     1.0  0.99455  0.47106  0.39284  1.0000
  C   C1215     1.0  0.84433  0.47839  0.10625  1.0000
  H   H2151     1.0  0.77096  0.44724  0.25062  1.0000
  H   H2152     1.0  0.97992  0.41754  0.30537  1.0000
  H   H2153     1.0  0.97387  0.43768  0.63011  1.0000
  C   C1216     1.0  0.91902  0.46876  0.92061  1.0000
  H   H2154     1.0  0.85636  0.41960  0.66122  1.0000
  C   C1217     1.0  0.97505  0.43079  0.25168  1.0000
  H   H2155     1.0  0.96481  0.46864  0.02110  1.0000
  C   C1218     1.0  0.95588  0.49445  0.18902  1.0000
  H   H2156     1.0  0.83337  0.39565  0.70114  1.0000
  H   H2157     1.0  0.96262  0.48729  0.90404  1.0000
  C   C1219     1.0  0.77160  0.27978  0.20949  1.0000
  H   H2158     1.0  0.84715  0.45170  0.72571  1.0000
  C   C1220     1.0  0.88175  0.48513  0.30168  1.0000
  H   H2159     1.0  0.85752  0.43151  0.70379  1.0000
  H   H2160     1.0  0.97306  0.49171  0.73605  1.0000
  C   C1221     1.0  0.86516  0.50054  0.54561  1.0000
  H   H2161     1.0  0.95363  0.48600  0.10623  1.0000
  H   H2162     1.0  0.88284  0.47491  0.21292  1.0000
  H   H2163     1.0  0.95826  0.44994  0.38575  1.0000
  H   H2164     1.0  0.98424  0.43863  0.05526  1.0000
  H   H2165     1.0  0.89550  0.47376  0.16555  1.0000
  H   H2166     1.0  0.84397  0.47830  0.74333  1.0000
  H   H2167     1.0  0.83872  0.49258  0.56740  1.0000
  H   H2168     1.0  0.94381  0.43943  0.12709  1.0000
  C   C1222     1.0  0.99365  0.43917  0.37854  1.0000
  H   H2169     1.0  0.96051  0.45312  0.08882  1.0000
  H   H2170     1.0  0.88937  0.45692  0.20803  1.0000
  H   H2171     1.0  0.97752  0.49539  0.55124  1.0000
  H   H2172     1.0  0.94162  0.48780  0.71724  1.0000
  H   H2173     1.0  0.90982  0.48805  0.94279  1.0000
  H   H2174     1.0  0.75376  0.32060  0.11930  1.0000
  H   H2175     1.0  0.94406  0.46963  0.01988  1.0000
  H   H2176     1.0  0.99407  0.43775  0.41293  1.0000
  C   C1223     1.0  0.84307  0.49235  0.50036  1.0000
  H   H2177     1.0  0.77578  0.42893  0.45381  1.0000
  H   H2178     1.0  0.86877  0.47832  0.29620  1.0000
  N   N68       1.0  0.98901  0.47489  0.60606  1.0000
  H   H2179     1.0  0.96275  0.47998  0.38738  1.0000
  H   H2180     1.0  0.99420  0.41997  0.50162  1.0000
  H   H2181     1.0  0.98710  0.45031  0.30868  1.0000
  C   C1224     1.0  0.85505  0.49552  0.46491  1.0000
  C   C1225     1.0  0.99476  0.50011  0.49470  1.0000
  C   C1226     1.0  0.75378  0.43234  0.30473  1.0000
  H   H2182     1.0  0.99343  0.41385  0.36572  1.0000
  H   H2183     1.0  0.98340  0.49001  0.88110  1.0000
  H   H2184     1.0  0.98560  0.47448  0.69494  1.0000
  H   H2185     1.0  0.86954  0.49591  0.08085  1.0000
  H   H2186     1.0  0.96366  0.49795  0.01846  1.0000
  C   C1227     1.0  0.97375  0.49607  0.88324  1.0000
  H   H2187     1.0  0.98418  0.48730  0.95073  1.0000
  H   H2188     1.0  0.88992  0.47821  0.28973  1.0000
  C   C1228     1.0  0.97917  0.49650  0.70329  1.0000
  H   H2189     1.0  0.88210  0.48535  0.33594  1.0000
  H   H2190     1.0  0.95591  0.49566  0.96890  1.0000
  H   H2191     1.0  0.99047  0.49820  0.99323  1.0000
  H   H2192     1.0  0.85444  0.50112  0.21357  1.0000
  C   C1229     1.0  0.85226  0.50025  0.04199  1.0000
  C   C1230     1.0  0.96870  0.49798  0.83957  1.0000
  C   C1231     1.0  0.99663  0.48379  0.56250  1.0000
  H   H2193     1.0  0.99611  0.45991  0.65378  1.0000
  H   H2194     1.0  0.74924  0.33056  0.18742  1.0000
  C   C1232     1.0  0.87210  0.50098  0.47024  1.0000
  S   S275      1.0  0.92141  0.52689  0.57980  1.0000
  C   C1233     1.0  0.95459  0.57801  0.50915  1.0000
  S   S276      1.0  0.90188  0.53073  0.66896  1.0000
  H   H2195     1.0  0.93388  0.62184  0.70649  1.0000
  H   H2196     1.0  0.98377  0.55365  0.18163  1.0000
  Fe  Fe137     1.0  0.92769  0.54246  0.63276  1.0000
  S   S277      1.0  0.93872  0.57069  0.62372  1.0000
  S   S278      1.0  0.93897  0.52591  0.66772  1.0000
  H   H2197     1.0  0.83667  0.53960  0.29322  1.0000
  H   H2198     1.0  0.99225  0.50471  0.70408  1.0000
  Fe  Fe138     1.0  0.94058  0.53747  0.08148  1.0000
  S   S279      1.0  0.92967  0.55025  0.03405  1.0000
  S   S280      1.0  0.95790  0.54579  0.13014  1.0000
  Fe  Fe139     1.0  0.90501  0.53056  0.06237  1.0000
  C   C1234     1.0  0.98724  0.56369  0.15597  1.0000
  Fe  Fe140     1.0  0.93197  0.53076  0.99196  1.0000
  S   S281      1.0  0.94386  0.53519  0.92303  1.0000
  S   S282      1.0  0.91568  0.51929  0.11218  1.0000
  S   S283      1.0  0.94489  0.51972  0.03777  1.0000
  Fe  Fe141     1.0  0.91288  0.51329  0.70160  1.0000
  H   H2199     1.0  0.95546  0.60572  0.61028  1.0000
  C   C1235     1.0  0.85556  0.53221  0.32237  1.0000
  C   C1236     1.0  0.91077  0.53726  0.31779  1.0000
  S   S284      1.0  0.90550  0.50504  0.77215  1.0000
  C   C1237     1.0  0.99630  0.58990  0.09059  1.0000
  C   C1238     1.0  0.98150  0.57603  0.09167  1.0000
  C   C1239     1.0  0.97680  0.56302  0.12490  1.0000
  H   H2200     1.0  0.86113  0.53425  0.35176  1.0000
  C   C1240     1.0  0.99403  0.50647  0.19637  1.0000
  C   C1241     1.0  0.90742  0.51235  0.85325  1.0000
  H   H2201     1.0  0.97353  0.57566  0.06759  1.0000
  H   H2202     1.0  0.98144  0.59271  0.85605  1.0000
  H   H2203     1.0  0.97051  0.55256  0.97041  1.0000
  Fe  Fe142     1.0  0.89651  0.51332  0.61899  1.0000
  C   C1242     1.0  0.93374  0.52203  0.80741  1.0000
  C   C1243     1.0  0.94196  0.52832  0.84142  1.0000
  C   C1244     1.0  0.93294  0.52685  0.88137  1.0000
  H   H2204     1.0  0.84844  0.51860  0.32388  1.0000
  H   H2205     1.0  0.91855  0.53910  0.28697  1.0000
  H   H2206     1.0  0.94081  0.52312  0.77692  1.0000
  H   H2207     1.0  0.95540  0.53431  0.83682  1.0000
  Fe  Fe143     1.0  0.93039  0.50914  0.61802  1.0000
  H   H2208     1.0  0.86228  0.53440  0.25535  1.0000
  C   C1245     1.0  0.94090  0.61323  0.69942  1.0000
  C   C1246     1.0  0.96019  0.58243  0.62043  1.0000
  C   C1247     1.0  0.97249  0.57505  0.62505  1.0000
  C   C1248     1.0  0.98947  0.58528  0.62268  1.0000
  C   C1249     1.0  0.99396  0.60286  0.61684  1.0000
  C   C1250     1.0  0.98155  0.61004  0.61267  1.0000
  C   C1251     1.0  0.96485  0.59991  0.61403  1.0000
  H   H2209     1.0  0.96887  0.56157  0.63111  1.0000
  C   C1252     1.0  0.93973  0.60148  0.73896  1.0000
  H   H2210     1.0  0.98490  0.62357  0.60817  1.0000
  H   H2211     1.0  0.97352  0.52180  0.51417  1.0000
  C   C1253     1.0  0.87702  0.51329  0.29541  1.0000
  H   H2212     1.0  0.97229  0.50407  0.68867  1.0000
  H   H2213     1.0  0.98312  0.52256  0.57398  1.0000
  H   H2214     1.0  0.95862  0.50356  0.84040  1.0000
  C   C1254     1.0  0.89441  0.54100  0.31386  1.0000
  H   H2215     1.0  0.97800  0.55368  0.69698  1.0000
  H   H2216     1.0  0.96959  0.57609  0.89714  1.0000
  H   H2217     1.0  0.87333  0.55225  0.27873  1.0000
  H   H2218     1.0  0.97985  0.58313  0.71007  1.0000
  H   H2219     1.0  0.94875  0.55167  0.50578  1.0000
  C   C1255     1.0  0.84175  0.53068  0.16395  1.0000
  C   C1256     1.0  0.98454  0.54871  0.55718  1.0000
  H   H2220     1.0  0.96013  0.54111  0.44965  1.0000
  C   C1257     1.0  0.90925  0.55707  0.17576  1.0000
  H   H2221     1.0  0.96167  0.59267  0.88268  1.0000
  H   H2222     1.0  0.99779  0.56592  0.71131  1.0000
  H   H2223     1.0  0.91977  0.56684  0.72496  1.0000
  H   H2224     1.0  0.92629  0.59428  0.74906  1.0000
  H   H2225     1.0  0.97720  0.56620  0.46529  1.0000
  H   H2226     1.0  0.96990  0.59508  0.78795  1.0000
  C   C1258     1.0  0.85402  0.53604  0.12880  1.0000
  C   C1259     1.0  0.99433  0.53601  0.07571  1.0000
  H   H2227     1.0  0.88476  0.52906  0.21711  1.0000
  H   H2228     1.0  0.94460  0.60938  0.76362  1.0000
  H   H2229     1.0  0.90124  0.50875  0.28245  1.0000
  H   H2230     1.0  0.97477  0.53027  0.43962  1.0000
  H   H2231     1.0  0.92522  0.56217  0.33189  1.0000
  C   C1260     1.0  0.94956  0.51425  0.46144  1.0000
  H   H2232     1.0  0.92430  0.54799  0.73893  1.0000
  C   C1261     1.0  0.96862  0.58466  0.87037  1.0000
  H   H2233     1.0  0.96311  0.59801  0.71993  1.0000
  H   H2234     1.0  0.87409  0.51041  0.33025  1.0000
  C   C1262     1.0  0.92139  0.54883  0.34581  1.0000
  C   C1263     1.0  0.99427  0.53719  0.62055  1.0000
  N   N69       1.0  0.98833  0.51408  0.93956  1.0000
  C   C1264     1.0  0.97459  0.51308  0.12950  1.0000
  C   C1265     1.0  0.98423  0.55981  0.72281  1.0000
  C   C1266     1.0  0.90184  0.54931  0.77265  1.0000
  H   H2235     1.0  0.94592  0.58355  0.70225  1.0000
  S   S285      1.0  0.90647  0.51235  0.01649  1.0000
  H   H2236     1.0  0.94649  0.51295  0.42904  1.0000
  H   H2237     1.0  0.92500  0.57426  0.80057  1.0000
  C   C1267     1.0  0.85434  0.51083  0.18990  1.0000
  H   H2238     1.0  0.85370  0.54575  0.10535  1.0000
  H   H2239     1.0  0.91432  0.54727  0.37762  1.0000
  C   C1268     1.0  0.84298  0.54151  0.32170  1.0000
  C   C1269     1.0  0.84174  0.51811  0.19469  1.0000
  C   C1270     1.0  0.97621  0.56349  0.49996  1.0000
  C   C1271     1.0  0.89965  0.55484  0.21977  1.0000
  C   C1272     1.0  0.93118  0.56651  0.78360  1.0000
  H   H2240     1.0  0.93535  0.60585  0.67441  1.0000
  H   H2241     1.0  0.91376  0.57053  0.16258  1.0000
  H   H2242     1.0  0.94703  0.56605  0.85486  1.0000
  C   C1273     1.0  0.98434  0.55679  0.96821  1.0000
  H   H2243     1.0  0.98268  0.55009  0.74954  1.0000
  H   H2244     1.0  0.96663  0.56621  0.82812  1.0000
  H   H2245     1.0  0.90829  0.56264  0.23940  1.0000
  C   C1274     1.0  0.95941  0.57427  0.83830  1.0000
  H   H2246     1.0  0.95229  0.55989  0.72202  1.0000
  H   H2247     1.0  0.90392  0.53175  0.23617  1.0000
  H   H2248     1.0  0.98587  0.50952  0.22105  1.0000
  H   H2249     1.0  0.89399  0.54272  0.74981  1.0000
  S   S286      1.0  0.82592  0.51289  0.23847  1.0000
  H   H2250     1.0  0.88920  0.55971  0.21673  1.0000
  C   C1275     1.0  0.96405  0.53059  0.46172  1.0000
  C   C1276     1.0  0.96899  0.53238  0.50640  1.0000
  C   C1277     1.0  0.95768  0.56515  0.74995  1.0000
  C   C1278     1.0  0.87714  0.50343  0.51025  1.0000
  H   H2251     1.0  0.87681  0.51112  0.15080  1.0000
  H   H2252     1.0  0.83214  0.53640  0.16730  1.0000
  C   C1279     1.0  0.94993  0.58971  0.73025  1.0000
  C   C1280     1.0  0.98936  0.51754  0.09356  1.0000
  C   C1281     1.0  0.97975  0.51329  0.90062  1.0000
  C   C1282     1.0  0.86694  0.51645  0.15445  1.0000
  H   H2253     1.0  0.93825  0.51427  0.48178  1.0000
  H   H2254     1.0  0.95528  0.55410  0.77352  1.0000
  H   H2255     1.0  0.93287  0.54565  0.34895  1.0000
  S   S287      1.0  0.87070  0.50338  0.59704  1.0000
  H   H2256     1.0  0.98342  0.57847  0.76271  1.0000
  H   H2257     1.0  0.75049  0.51856  0.42998  1.0000
  H   H2258     1.0  0.84932  0.55517  0.32234  1.0000
  H   H2259     1.0  0.98464  0.57519  0.50990  1.0000
  H   H2260     1.0  0.95414  0.62088  0.68773  1.0000
  C   C1283     1.0  0.91991  0.55781  0.75160  1.0000
  N   N70       1.0  0.94905  0.57678  0.76614  1.0000
  H   H2261     1.0  0.92028  0.55290  0.17666  1.0000
  H   H2262     1.0  0.83330  0.53662  0.34970  1.0000
  H   H2263     1.0  0.88730  0.53770  0.34598  1.0000
  H   H2264     1.0  0.95614  0.55860  0.55338  1.0000
  H   H2265     1.0  0.90101  0.54977  0.15449  1.0000
  C   C1284     1.0  0.89302  0.53611  0.23868  1.0000
  H   H2266     1.0  0.99272  0.56131  0.56315  1.0000
  C   C1285     1.0  0.97687  0.57303  0.73663  1.0000
  C   C1286     1.0  0.95739  0.58573  0.80066  1.0000
  C   C1287     1.0  0.86672  0.52911  0.12378  1.0000
  C   C1288     1.0  0.86898  0.53828  0.28269  1.0000
  H   H2267     1.0  0.96324  0.58838  0.52318  1.0000
  H   H2268     1.0  0.88721  0.50213  0.24496  1.0000
  H   H2269     1.0  0.89759  0.55484  0.30707  1.0000
  C   C1289     1.0  0.98451  0.52700  0.96456  1.0000
  S   S288      1.0  0.88155  0.53677  0.07797  1.0000
  H   H2270     1.0  0.97243  0.54617  0.57731  1.0000
  H   H2271     1.0  0.93079  0.55623  0.80780  1.0000
  H   H2272     1.0  0.95011  0.59327  0.81413  1.0000
  N   N71       1.0  0.88371  0.53211  0.28273  1.0000
  H   H2273     1.0  0.90846  0.51765  0.91751  1.0000
  H   H2274     1.0  0.94159  0.57633  0.52292  1.0000
  H   H2275     1.0  0.90776  0.52421  0.33289  1.0000
  H   H2276     1.0  0.98574  0.50983  0.06773  1.0000
  H   H2277     1.0  0.96407  0.51480  0.11442  1.0000
  H   H2278     1.0  0.98206  0.53464  0.64028  1.0000
  H   H2279     1.0  0.93217  0.50531  0.23233  1.0000
  C   C1290     1.0  0.91560  0.51885  0.88705  1.0000
  N   N72       1.0  0.98192  0.54886  0.51172  1.0000
  H   H2280     1.0  0.95746  0.52975  0.52922  1.0000
  H   H2281     1.0  0.86490  0.50768  0.28334  1.0000
  C   C1291     1.0  0.99141  0.54547  0.94331  1.0000
  H   H2282     1.0  0.94073  0.50662  0.15556  1.0000
  H   H2283     1.0  0.97078  0.52392  0.97189  1.0000
  H   H2284     1.0  0.98948  0.56988  0.95233  1.0000
  C   C1292     1.0  0.88791  0.50300  0.27892  1.0000
  H   H2285     1.0  0.98344  0.53873  0.06509  1.0000
  H   H2286     1.0  0.98797  0.52287  0.87488  1.0000
  H   H2287     1.0  0.98780  0.55674  0.00038  1.0000
  H   H2288     1.0  0.98809  0.54636  0.91108  1.0000
  C   C1293     1.0  0.95816  0.56170  0.51888  1.0000
  H   H2289     1.0  0.95594  0.58151  0.47475  1.0000
  C   C1294     1.0  0.91638  0.51404  0.81317  1.0000
  H   H2290     1.0  0.89661  0.55877  0.78414  1.0000
  H   H2291     1.0  0.97765  0.52286  0.15125  1.0000
  Fe  Fe144     1.0  0.91928  0.50271  0.06473  1.0000
  H   H2292     1.0  0.90114  0.53990  0.79939  1.0000
  H   H2293     1.0  0.89028  0.50763  0.51369  1.0000
  H   H2294     1.0  0.86268  0.50781  0.01734  1.0000
  H   H2295     1.0  0.98928  0.52672  0.99524  1.0000
  H   H2296     1.0  0.84853  0.50902  0.06127  1.0000
  H   H2297     1.0  0.96028  0.50497  0.20810  1.0000
  H   H2298     1.0  0.97962  0.50610  0.81697  1.0000
  C   C1295     1.0  0.99791  0.55104  0.48360  1.0000
  H   H2299     1.0  0.96833  0.51688  0.90615  1.0000
  H   H2300     1.0  0.89400  0.50608  0.85818  1.0000
  H   H2301     1.0  0.99619  0.55306  0.45012  1.0000
  C   C1296     1.0  0.99182  0.53544  0.57474  1.0000
  H   H2302     1.0  0.88150  0.50341  0.44318  1.0000
  H   H2303     1.0  0.95293  0.50323  0.47283  1.0000
  H   H2304     1.0  0.98605  0.50310  0.47472  1.0000
