data_image0
_chemical_formula_structural       SCSHFeSFeCSCFeS2FeS2FeSFeS3C2H3CHC4H5SHCH2C2H3C6H4C2H4SHC2H3C2HCHCH2FeCH2CH3CH4NC10NCH19CH2NH5FeCH2CH4CH3CH2CH3NCHCH3C2HCHCHNH3CH5CHC2H4CHSH2CSH2C3H4CH2C2H2C3HCH3C2HCH6CHCH4FeS2FeSHFeSFeHS2FeS2FeS2FeSFeS3FeS2FeS2FeSFeS3C3H4C2HC6H4CHCHC4H5C4H2C7H8C2HCH2CH5C2NC5H2C3H24CH6CH5C4HCH4CH2CH6CH2C2H2C2H16C3H3CHCHCH2C2HCH5NCHC4H3C3H3CH11CH7CHCHC2H2NC3H3C2H3C3HC3H12CH8CHCH2SH3C2H5C4HCH2C2H3C2HC2H4CH2CHCH3CH2FeSHFeS2FeSFeS2HFeS2FeS2FeSFeS3NFeS2FeS2FeSFeS3C2H2C5H3C6H4CHC2H2C2HNH2C6H4C6H4CHCH3CHCH5C2H2SH2CH2CH2C3H2NC2NCHCH2CH2C2H2CH2C2NCH4CH2C2HCHCH7CHCH2NC9H19CH3NC11H26CH5CH8CHCH2CH3C2H9CH2C2H3C2H2CH3CNHC4H4SCH2C2H2CH5C3HC2HCH3C2H4NH2CH9C2H2CHCH5CH6CH2C2H3CHC3H2CH5CH7C4HSH3CHCHCH8CHSFeS2FeS2FeSFeS3FeS3FeSFeS2C3H2C2H3C6H5C5H4CH2C5H8C2H2CNH2C2HCHCHC2H3C2HCH3CH2CHC2NHCH4NC11H27C3H3CH7NH4C2H5C2SCHC2H3CNC2HC5H5CH3CH10CFeH6CH5CHCH5C2HCH5CHCH5C4H2C3HC2H7CH4CH4CH10CHC2HCH2CH2CHSCFeSHFeSFeSCHFeS2FeS2FeSFeHS2C3H5CH2CH7C7H4C3H4CH4C3H2CH5C2H2NHNHCHCHCH4C4H3CNCH2CH3C2H5CH3CH5CHSH2C2HCH2CSHCHC2HNC2H2C3H4C2HC4H2CHFeHCH2SH7CH3CH4SHC2H3CHCH8CH5FeS2FeS2FeSFeS3FeS2FeS2FeSFeS3HFeS2FeS2FeSFeS3H2C4H2C3HC3H4C6H6CH2CNHCHC6H4C4H3C3H3CHCH2C3SH2CNH2C2H2C2HCH5CH5CH6NH3C2HC2H3CH2C2H2NH7CH4C2NCHCH6CHC3HCH2C2H4C2H2CH3CSH6C2H4CH2CH3CNH2C2HCH2CH2CHCHC2HCH3CH2C2H2C2H7C11NCH2CH20CH2CH5CH2CH2CHCH3CH3C2H4C4H2C2H2CHCH4C2H2CH6CH6CH3FeSHFeSCFeSFeS3FeS2FeS2FeSFeS3NFeS2FeSFeSFeS3C3HCH3C6HSH2C6H4C6H4C6H4C2HC3HC2H2CHNC8NH17CHC2HNC7H3CH8CHNH2CSH2NC6HC4H25CH3CHCH2CH3C2HCHCH3CH4CH3CH4CH3C2H6CH5C2H6CHCH2CH2CH2SCH10C2H4C2H2CH2C2H4CHCHCHNCH2CH9C3H3C2HSC2H8CH4CHCH2CH5C2HCH4C2H6C2H5CH2CH2CHCHNH5C2H3CHCHC2H3CHC2H2C2H2NH3FeSHFeS2FeSFeS3FeSCFeSHFeSFeS2H4C3HCH3C6H4C6H3C2HCH2C2NC12H28CHCHSH4CH3CH3C2H3NHCH2CHSH6C2SH3C2HNC2HC2HC3HNHCH2CH6SH6CH2CH7C2FeS2FeS2FeSFeS3FeS4FeSFeS2FeSCFeSFeS3H4CH2C6H4C2SH4CH2SC2H3CH2NHC6H4C6H12C4H5CHNC12H28NC7H2C3H14C4H2CH8FeNH5CHCH2CHFeC2FeH3CH3CH2CHC2H4CHCHCH2CHC2H3C2FeCSH5CH2SC2H2C2NH2C2HCHSC4H2C2H3SHSHCH2CHCH3C2S2H4C2FeHFeH7CHSCH4CH2CH9SH6CH3CHC3H2CH5C3H2C2H5NCHCH2CHCH2CH7C3HCFeSH2SCFeSHSFeS2FeS2FeHFeS3C3H6C6H5CH3C4HC4H3C2H6C3H5NH8CH3FeCH2C3SHCH11C4H3C3H6CH3CH2CH6SH2CHNCH2C2FeHC3NHCH2NCHFeSCFeS2FeSFeS3HCFeS2FeSH2S2C2HC2NHC2H3C3H6CH3C6H8NC2HC3HC4H5CH4CH6FeHCH6CH3CHCH4SH2CH2CH5CH5CH2C2H3CHC2FeH5CH2CFeS2FeS2FeSFeS3FeSHFeS2FeSFeS3FeS2FeS2FeSFeS5FeS2H5C2HC3H8C2H3C7H4CHC2HC6H4C6H8SH2CHCH2CH4CH6NHNC10H20C3H9CH2NC2HC3HC5H2CH2CH3CNH4C3H5CHCH3CFeC2H5C2HNHCH3CHSHCH3C2H2CFeCSCHCH5CH8CHC2H2CH3C2H4CH4CHCH2CSC5HC3H3C2HCH5CHCH5FeHC2SH2CHCHC2H5C2H2C4HCHC3H3CHC2HNHCH2CH2CH2NHCH2C2H3CH8CHCH5CH5NCHFeS2FeS2FeSFeS3FeSHFeS2FeHFeSHS2FeSFeSHSFeS2FeS2FeSFeS3HC6H2CHC6H4CHNC7H3CHC3H2C6H4C6H5C2H3C3H4SH2CH10NHCHCHCH4NCH3NC12H32CSHCH4CH5CHC2HC2HCH6CH5CHFeH2CHC2H6C3H3CHCHC2H2C2H4FeHSHC2H2CHCNS2H2C2H2C2H8CH15SC3H4CSHC2H4C3H6SC3H2CH2CH3CH2C2H2CHC3H2C3H4C2HCH3CH2CH8CH2N2CHNHCHC2HCHC4H2NHC3H2CH2CHC2H3CHC2H2CHCH3CH6CHCH3C3HFeS2FeSFeS2FeS2FeS2FeSFeS3C2HCH2CH3C2H3C2HC3H4NH2C7H4CH2C2HCHCNHCH3C4H2C2H4CH2C3HCH11CH3NHC4HC4HC2H18C2H3C2H3SH4CHCH2CFeC2H3CSH2CHC2H5CHCH2CH5CH2CNHCH2CH4CH3NHCH10CHCH5CHCSC3H2CH3C2H5CH7C2H3CHCH5C2HC3HCH4CH3C2HC2FeS2FeS2FeSFeS3Fe2S2FeSFeS3C2HCHC2H3CHC2H2C3H4CHC7H4C4H2CSH6NH7C3H2CHCNC6HCHC3H2CNH9CH2CHSH8CH2CHCH2CHC3H5C2H2C3HCH2CH16CH4CH8C3H2C2HC5HCH3CH5CH4CHCHSH3CH2CH6CHC2HCHC2HCH4NCFeS2FeS2FeSFeS3FeSHFeS2FeSFeS3FeS2FeS2FeSFeS3FeS2FeS2FeSFeCS2CHC4HCH2C6H4C2H2CH2CHCNH4C2HCHC6H3C2H3C2HC6H4C6H8CHC2H7CH3CSH11C3H3CH3C2H3C3H10C2H3CH6NC9H2CH8C2H8CHCH9C2HCHCH6CHCH3CHCH2CH2CH2C2HCHC4H2CNC12H31C2HCH2CHC2H2CHC2HC2H4CH2CH2CHNCHCH6CH3CHCH13CH2CH2NHC2H2C2H6CHCH2CH7CHC2H4FeS2FeS2FeSFeS3CFeSFeS2FeSFeS3HC4H4C5HC2HC5H3C6H6CH2C5NH4CH4C2HC6HCHCH2CHCH4C2H2C2H2CH2CHC2H3CHCH4CNC2H2C2NHCHC2H4CH3SH5CH3NC10NCH23CH6C2H2CH5CH7CH2CH2CH2C2SH3CH5C2HC2H3CH3CH3NH10SH4CFeS2FeSHFeSFeS3H2FeS2FeS2FeHFeS3FeSHFeS2FeSFeS3HC2H4C7H4C2HCH2C3H3C7H4CH2NHC6H5C3H8C2H8CHSCHC2HCHC2HCH2CHC2H2CH4SHC2H16CHC2HC2H2CHC4HC3H3CH3C2H6C2HCH2C2H2CH7C4H2CH4CHCH10CH4CHCH2C2H2CH4C2HC2SH4CH5C2HCH2CH3NCHC2HC2HC2HCH5CH3CHNHCH5SCH4C2HNH2NHCHCHCH2NCH6CH3SNH3CH3SCNH3C4H4CH2FeS2FeS2FeSFeS3HCHFeS2FeSFeS3FeS2FeSHFeSFeS3C2HC3HCH2C6H5C6H5C6H4CH4C6H3CH3SHCH2CH7CH3C2HCHCH5CHFeCHNH6CH2CHNCHC5HCHCH6CH2C2H3NC9H18NH2CHCH2CNH6CHCHCSH3SH2C4H3CH2CHCH2CH6CH8C2H2C2HCH4CHCH5CHSHFeS2FeS2FeSFeS3FeS2FeS2FeSFeS2CHC4H4C2HCH5CH5C3H2CH2SHC6H4C6H2CHCH2CH3C2H5NC12H24CH3N2HCHC3H2CH10CH2CH5C3HCH7CH4C2H3CH5CHCH4CH2CH4CH4CHC2HCH2CHCHC2HCH2NCNC2H4CH2C2H4CH3C3SH6C2HFeS2FeSFeSFeS3FeSHFeS2FeSFeHS2HC2H2C2HCH4C6H4C2HCHCH4CH5C2H4C2HC5HCH2CH6SH3C2H3CH8CHCH3SH4NC3NC4HC2H7C2H5CH3CHC3H11C4H8CH2CH3CH4C2HCH3CH10CHC3NC2HFeS2FeS2FeSFeS3H4FeS2FeS2FeSFeS2FeS2FeS2FeCFeS3CH3CH3CHC6H4C3NH2C2H3NHC6H4C6H4C3H7CNC12H30C3H3CH4CH5CH3CH5CH5C4H4CHCH8CH3CNCH3NCH2C3H7C3H6C3H2C2HCH5C2H3CH2CH2C2H3CH4CHCH2C3HCH7C2H2CH2CH3CHCHCHC2H3CHCH9CHCHCHCH2CH6CH6CHC2HCHSH5CFeS2FeS2FeSFeS3H2FeSFeS2FeSFeS3FeS2FeSHFeSFeS2CH3CHC2H2C7H4C6H4C2H3C6H4CHC5H3CH4CH3CH5CHCHCHCNC11H22NC9HCH19SH2CHCH5NH4C3H2CHC2H11C2HCH7SHCNH6C4H6CHC2H3CH7CH3C3SHCH5CH3C2H2FeS2FeSHFeSFeS3FeSHFeS2FeHFeS3C4H2CH4C7H6C3H4CHC2HCH4C3H6C2HCHSC2H4C2H4CH3C3H3CHCHCH2CH3C2HCH6CHC2H7NC2H5CH9NHCH4CHCHCH6NH5CH3C2H2CSC2H2CHCHCH
_chemical_formula_sum              "S512 C2304 H4096 Fe256 N128"
_cell_length_a       65.9806
_cell_length_b       66.6055
_cell_length_c       80.0087
_cell_angle_alpha    81.6957
_cell_angle_beta     81.4808
_cell_angle_gamma    80.6259

_space_group_name_H-M_alt    "P 1"
_space_group_IT_number       1

loop_
  _space_group_symop_operation_xyz
  'x, y, z'

loop_
  _atom_site_type_symbol
  _atom_site_label
  _atom_site_symmetry_multiplicity
  _atom_site_fract_x
  _atom_site_fract_y
  _atom_site_fract_z
  _atom_site_occupancy
  S   S1        1.0  0.25647  0.35644  0.05718  1.0000
  C   C1        1.0  0.15363  0.40643  0.18239  1.0000
  S   S2        1.0  0.24749  0.40590  0.05828  1.0000
  H   H1        1.0  0.26553  0.47013  0.09848  1.0000
  Fe  Fe1       1.0  0.23614  0.37813  0.07398  1.0000
  S   S3        1.0  0.20118  0.37893  0.08070  1.0000
  Fe  Fe2       1.0  0.27000  0.38387  0.04342  1.0000
  C   C2        1.0  0.30013  0.44087  0.02074  1.0000
  S   S4        1.0  0.25893  0.37458  0.09266  1.0000
  C   C3        1.0  0.18076  0.43705  0.09792  1.0000
  Fe  Fe3       1.0  0.11298  0.37146  0.16010  1.0000
  S   S5        1.0  0.10392  0.40102  0.17151  1.0000
  S   S6        1.0  0.14788  0.36217  0.15336  1.0000
  Fe  Fe4       1.0  0.06774  0.36360  0.16472  1.0000
  S   S7        1.0  0.05608  0.39287  0.17574  1.0000
  S   S8        1.0  0.04358  0.34269  0.16547  1.0000
  Fe  Fe5       1.0  0.07837  0.40653  0.15517  1.0000
  S   S9        1.0  0.06991  0.43827  0.14199  1.0000
  Fe  Fe6       1.0  0.08258  0.38466  0.19120  1.0000
  S   S10       1.0  0.07279  0.39158  0.21846  1.0000
  S   S11       1.0  0.08829  0.37791  0.14253  1.0000
  S   S12       1.0  0.09335  0.35433  0.18138  1.0000
  C   C4        1.0  0.08907  0.45221  0.14496  1.0000
  C   C5        1.0  0.10968  0.44279  0.14435  1.0000
  H   H2        1.0  0.01214  0.37079  0.18981  1.0000
  H   H3        1.0  0.11403  0.42763  0.14043  1.0000
  H   H4        1.0  0.12458  0.40759  0.19857  1.0000
  C   C6        1.0  0.22240  0.26589  0.11356  1.0000
  H   H5        1.0  0.19942  0.46970  0.07551  1.0000
  C   C7        1.0  0.01655  0.37266  0.14916  1.0000
  C   C8        1.0  0.01906  0.35376  0.15937  1.0000
  C   C9        1.0  0.00184  0.34337  0.16464  1.0000
  C   C10       1.0  0.12235  0.46694  0.21218  1.0000
  H   H6        1.0  0.21906  0.39643  0.14561  1.0000
  H   H7        1.0  0.02969  0.38078  0.14500  1.0000
  H   H8        1.0  0.00366  0.32873  0.17252  1.0000
  H   H9        1.0  0.15658  0.44164  0.11995  1.0000
  H   H10       1.0  0.21309  0.27086  0.12536  1.0000
  S   S13       1.0  0.29517  0.32149  0.08171  1.0000
  H   H11       1.0  0.14773  0.42069  0.09048  1.0000
  C   C11       1.0  0.12456  0.45264  0.14936  1.0000
  H   H12       1.0  0.11458  0.36894  0.21966  1.0000
  H   H13       1.0  0.20972  0.40878  0.10965  1.0000
  C   C12       1.0  0.28238  0.45156  0.07957  1.0000
  C   C13       1.0  0.29668  0.45135  0.06482  1.0000
  H   H14       1.0  0.03074  0.46550  0.14783  1.0000
  H   H15       1.0  0.16432  0.47538  0.10687  1.0000
  H   H16       1.0  0.02492  0.38661  0.21331  1.0000
  C   C14       1.0  0.18667  0.37534  0.10117  1.0000
  C   C15       1.0  0.19614  0.37024  0.11604  1.0000
  C   C16       1.0  0.18403  0.36659  0.13196  1.0000
  C   C17       1.0  0.16230  0.36854  0.13325  1.0000
  C   C18       1.0  0.15280  0.37434  0.11843  1.0000
  C   C19       1.0  0.16496  0.37741  0.10247  1.0000
  H   H17       1.0  0.21279  0.36885  0.11526  1.0000
  H   H18       1.0  0.19153  0.36213  0.14335  1.0000
  H   H19       1.0  0.13612  0.37579  0.11920  1.0000
  H   H20       1.0  0.15746  0.38131  0.09105  1.0000
  C   C20       1.0  0.10845  0.37316  0.23219  1.0000
  C   C21       1.0  0.25225  0.36951  0.00389  1.0000
  H   H21       1.0  0.24391  0.36932  0.01660  1.0000
  H   H22       1.0  0.24360  0.42028  0.00885  1.0000
  H   H23       1.0  0.01094  0.40810  0.18801  1.0000
  H   H24       1.0  0.08902  0.44808  0.22106  1.0000
  S   S14       1.0  0.28080  0.38916  0.01509  1.0000
  H   H25       1.0  0.14200  0.46901  0.23179  1.0000
  C   C22       1.0  0.14330  0.43086  0.10068  1.0000
  C   C23       1.0  0.08861  0.38427  0.23490  1.0000
  H   H26       1.0  0.19327  0.41777  0.12759  1.0000
  H   H27       1.0  0.03858  0.31627  0.22860  1.0000
  H   H28       1.0  0.12643  0.41651  0.23126  1.0000
  C   C24       1.0  0.22469  0.42262  0.12660  1.0000
  C   C25       1.0  0.28624  0.29988  0.03358  1.0000
  H   H29       1.0  0.06970  0.42889  0.19539  1.0000
  C   C26       1.0  0.17966  0.47826  0.10933  1.0000
  H   H30       1.0  0.29606  0.28571  0.02972  1.0000
  C   C27       1.0  0.21175  0.45638  0.07489  1.0000
  H   H31       1.0  0.13039  0.42506  0.10964  1.0000
  H   H32       1.0  0.18619  0.42444  0.08980  1.0000
  Fe  Fe7       1.0  0.27130  0.40154  0.07625  1.0000
  C   C28       1.0  0.11886  0.47203  0.15475  1.0000
  H   H33       1.0  0.16553  0.31677  0.13616  1.0000
  H   H34       1.0  0.31243  0.43528  0.02908  1.0000
  C   C29       1.0  0.04864  0.32552  0.21928  1.0000
  H   H35       1.0  0.24375  0.45098  0.06279  1.0000
  H   H36       1.0  0.14032  0.44503  0.14949  1.0000
  H   H37       1.0  0.02966  0.34285  0.20062  1.0000
  C   C30       1.0  0.99675  0.33023  0.21746  1.0000
  H   H38       1.0  0.22507  0.24036  0.09870  1.0000
  H   H39       1.0  0.17503  0.45057  0.08917  1.0000
  H   H40       1.0  0.10823  0.47453  0.21953  1.0000
  H   H41       1.0  0.28731  0.28899  0.06050  1.0000
  N   N1        1.0  0.22018  0.30439  0.10179  1.0000
  C   C31       1.0  0.22003  0.28280  0.09814  1.0000
  C   C32       1.0  0.22190  0.31836  0.08515  1.0000
  C   C33       1.0  0.23952  0.30424  0.10991  1.0000
  C   C34       1.0  0.20144  0.31227  0.11368  1.0000
  C   C35       1.0  0.18082  0.30421  0.11291  1.0000
  C   C36       1.0  0.01755  0.42947  0.15073  1.0000
  C   C37       1.0  0.24420  0.32542  0.11281  1.0000
  C   C38       1.0  0.20404  0.32030  0.07417  1.0000
  C   C39       1.0  0.20945  0.33180  0.05650  1.0000
  C   C40       1.0  0.16255  0.31641  0.12289  1.0000
  N   N2        1.0  0.31513  0.31948  0.01678  1.0000
  C   C41       1.0  0.26124  0.32324  0.12426  1.0000
  H   H42       1.0  0.23289  0.27862  0.08795  1.0000
  H   H43       1.0  0.20576  0.28147  0.09289  1.0000
  H   H44       1.0  0.22245  0.33436  0.08739  1.0000
  H   H45       1.0  0.23676  0.31348  0.07723  1.0000
  H   H46       1.0  0.25346  0.29693  0.10206  1.0000
  H   H47       1.0  0.23865  0.29484  0.12261  1.0000
  H   H48       1.0  0.20441  0.30864  0.12723  1.0000
  H   H49       1.0  0.19843  0.32932  0.11150  1.0000
  H   H50       1.0  0.18161  0.28794  0.11861  1.0000
  H   H51       1.0  0.17726  0.30513  0.09972  1.0000
  H   H52       1.0  0.15612  0.46669  0.21099  1.0000
  H   H53       1.0  0.30174  0.43718  0.05934  1.0000
  H   H54       1.0  0.23023  0.33463  0.11883  1.0000
  H   H55       1.0  0.24977  0.33383  0.10044  1.0000
  H   H56       1.0  0.20053  0.30520  0.07217  1.0000
  H   H57       1.0  0.18989  0.32920  0.08034  1.0000
  H   H58       1.0  0.21230  0.34752  0.05752  1.0000
  H   H59       1.0  0.22343  0.32351  0.04956  1.0000
  H   H60       1.0  0.19633  0.33313  0.04898  1.0000
  C   C42       1.0  0.30515  0.46925  0.05767  1.0000
  H   H61       1.0  0.15969  0.33234  0.11651  1.0000
  H   H62       1.0  0.14833  0.30931  0.12338  1.0000
  N   N3        1.0  0.12211  0.44411  0.21341  1.0000
  H   H63       1.0  0.99563  0.39489  0.13524  1.0000
  H   H64       1.0  0.19910  0.24837  0.10877  1.0000
  H   H65       1.0  0.06100  0.32906  0.22598  1.0000
  H   H66       1.0  0.99186  0.47316  0.11523  1.0000
  H   H67       1.0  0.00975  0.31781  0.21487  1.0000
  Fe  Fe8       1.0  0.28050  0.35474  0.07482  1.0000
  C   C43       1.0  0.05898  0.31237  0.20536  1.0000
  H   H68       1.0  0.24510  0.40259  0.14281  1.0000
  H   H69       1.0  0.16942  0.41035  0.18206  1.0000
  C   C44       1.0  0.23179  0.40162  0.13608  1.0000
  H   H70       1.0  0.29721  0.47299  0.02246  1.0000
  H   H71       1.0  0.28786  0.33218  0.03250  1.0000
  H   H72       1.0  0.30618  0.31624  0.04419  1.0000
  H   H73       1.0  0.04770  0.35643  0.20640  1.0000
  C   C45       1.0  0.00402  0.45021  0.14776  1.0000
  H   H74       1.0  0.09900  0.42406  0.21422  1.0000
  H   H75       1.0  0.14696  0.40354  0.20956  1.0000
  H   H76       1.0  0.02774  0.42970  0.16053  1.0000
  C   C46       1.0  0.27070  0.37796  0.00000  1.0000
  H   H77       1.0  0.04714  0.30773  0.19873  1.0000
  H   H78       1.0  0.22058  0.43369  0.13611  1.0000
  C   C47       1.0  0.08355  0.47196  0.14974  1.0000
  H   H79       1.0  0.26608  0.30903  0.05610  1.0000
  H   H80       1.0  0.23690  0.39012  0.12699  1.0000
  H   H81       1.0  0.13503  0.44426  0.18683  1.0000
  N   N4        1.0  0.19857  0.44124  0.10615  1.0000
  C   C48       1.0  0.16166  0.43092  0.11028  1.0000
  H   H82       1.0  0.15486  0.38964  0.18211  1.0000
  C   C49       1.0  0.03621  0.34586  0.21182  1.0000
  H   H83       1.0  0.23804  0.42721  0.11756  1.0000
  H   H84       1.0  0.23890  0.26240  0.11584  1.0000
  H   H85       1.0  0.31676  0.46879  0.04663  1.0000
  C   C50       1.0  0.24678  0.43616  0.00425  1.0000
  C   C51       1.0  0.20578  0.42189  0.11735  1.0000
  H   H86       1.0  0.02454  0.46366  0.12747  1.0000
  C   C52       1.0  0.10059  0.44061  0.21143  1.0000
  H   H87       1.0  0.18289  0.45298  0.12936  1.0000
  C   C53       1.0  0.01741  0.46742  0.14038  1.0000
  H   H88       1.0  0.09372  0.46554  0.19082  1.0000
  N   N5        1.0  0.01960  0.35602  0.22425  1.0000
  H   H89       1.0  0.23623  0.47574  0.07031  1.0000
  H   H90       1.0  0.26487  0.33865  0.12541  1.0000
  H   H91       1.0  0.14690  0.41437  0.17086  1.0000
  C   C54       1.0  0.21581  0.24597  0.11032  1.0000
  H   H92       1.0  0.13771  0.44663  0.09496  1.0000
  H   H93       1.0  0.02725  0.42554  0.13873  1.0000
  H   H94       1.0  0.10294  0.44088  0.18364  1.0000
  H   H95       1.0  0.14403  0.43381  0.23160  1.0000
  H   H96       1.0  0.30149  0.43033  0.01092  1.0000
  C   C55       1.0  0.19221  0.45835  0.11722  1.0000
  H   H97       1.0  0.16529  0.41524  0.11698  1.0000
  C   C56       1.0  0.01191  0.37729  0.21617  1.0000
  C   C57       1.0  0.27559  0.29501  0.05168  1.0000
  H   H98       1.0  0.22703  0.43134  0.09003  1.0000
  H   H99       1.0  0.20612  0.46284  0.12124  1.0000
  H   H100      1.0  0.00760  0.41738  0.15522  1.0000
  H   H101      1.0  0.20658  0.44520  0.06795  1.0000
  C   C58       1.0  0.21665  0.44582  0.09276  1.0000
  H   H102      1.0  0.15364  0.43857  0.20104  1.0000
  S   S15       1.0  0.29504  0.38144  0.06026  1.0000
  H   H103      1.0  0.23215  0.44696  0.00610  1.0000
  H   H104      1.0  0.25615  0.31579  0.13719  1.0000
  C   C59       1.0  0.00186  0.34375  0.23016  1.0000
  S   S16       1.0  0.27248  0.42908  0.08968  1.0000
  H   H105      1.0  0.06940  0.32099  0.19582  1.0000
  H   H106      1.0  0.28492  0.44038  0.02875  1.0000
  C   C60       1.0  0.27635  0.46990  0.08692  1.0000
  C   C61       1.0  0.23091  0.46390  0.06422  1.0000
  C   C62       1.0  0.13983  0.41245  0.19852  1.0000
  H   H107      1.0  0.22673  0.45497  0.09761  1.0000
  H   H108      1.0  0.06573  0.45212  0.18115  1.0000
  H   H109      1.0  0.25783  0.43994  0.01208  1.0000
  H   H110      1.0  0.06831  0.29834  0.21105  1.0000
  C   C63       1.0  0.09317  0.44885  0.19388  1.0000
  H   H111      1.0  0.12161  0.47413  0.19879  1.0000
  H   H112      1.0  0.26539  0.28322  0.05198  1.0000
  C   C64       1.0  0.00177  0.37877  0.19972  1.0000
  C   C65       1.0  0.99658  0.40110  0.19217  1.0000
  H   H113      1.0  0.22980  0.35555  0.99409  1.0000
  H   H114      1.0  0.99988  0.38535  0.22513  1.0000
  C   C66       1.0  0.12756  0.43316  0.23036  1.0000
  C   C67       1.0  0.29910  0.31773  0.03226  1.0000
  C   C68       1.0  0.24427  0.36175  0.99111  1.0000
  H   H115      1.0  0.29048  0.46677  0.00302  1.0000
  C   C69       1.0  0.13791  0.43580  0.19949  1.0000
  H   H116      1.0  0.29894  0.30504  0.00115  1.0000
  H   H117      1.0  0.99450  0.45322  0.15998  1.0000
  H   H118      1.0  0.21839  0.23404  0.12133  1.0000
  C   C70       1.0  0.99722  0.38064  0.14366  1.0000
  C   C71       1.0  0.14146  0.47360  0.21796  1.0000
  H   H119      1.0  0.27560  0.31403  0.11871  1.0000
  C   C72       1.0  0.07084  0.44551  0.19364  1.0000
  H   H120      1.0  0.27398  0.30426  0.02504  1.0000
  H   H121      1.0  0.22719  0.47072  0.05134  1.0000
  H   H122      1.0  0.06026  0.45301  0.20379  1.0000
  H   H123      1.0  0.99331  0.44867  0.13873  1.0000
  H   H124      1.0  0.00639  0.47241  0.17542  1.0000
  H   H125      1.0  0.31402  0.27934  0.08458  1.0000
  C   C73       1.0  0.30182  0.46279  0.01235  1.0000
  H   H126      1.0  0.29004  0.33164  0.00171  1.0000
  C   C74       1.0  0.30431  0.32002  0.00127  1.0000
  H   H127      1.0  0.31039  0.35255  0.01328  1.0000
  H   H128      1.0  0.99382  0.33916  0.20507  1.0000
  H   H129      1.0  0.04393  0.36563  0.23539  1.0000
  H   H130      1.0  0.98831  0.40177  0.18092  1.0000
  Fe  Fe9       1.0  0.27514  0.05116  0.44032  1.0000
  S   S17       1.0  0.24790  0.03438  0.44181  1.0000
  S   S18       1.0  0.28109  0.06499  0.46310  1.0000
  Fe  Fe10      1.0  0.28762  0.04896  0.40196  1.0000
  S   S19       1.0  0.26066  0.03263  0.40090  1.0000
  H   H131      1.0  0.16399  0.42535  0.38026  1.0000
  Fe  Fe11      1.0  0.24156  0.05517  0.41766  1.0000
  S   S20       1.0  0.20931  0.07033  0.41157  1.0000
  Fe  Fe12      1.0  0.26942  0.01353  0.42490  1.0000
  H   H132      1.0  0.17820  0.45512  0.38773  1.0000
  S   S21       1.0  0.26784  0.07290  0.41695  1.0000
  S   S22       1.0  0.29732  0.02897  0.42529  1.0000
  Fe  Fe13      1.0  0.11947  0.40193  0.33098  1.0000
  S   S23       1.0  0.10597  0.40878  0.30633  1.0000
  S   S24       1.0  0.14104  0.42126  0.33860  1.0000
  Fe  Fe14      1.0  0.09958  0.36264  0.34254  1.0000
  S   S25       1.0  0.08404  0.36668  0.31876  1.0000
  S   S26       1.0  0.09250  0.33875  0.36555  1.0000
  Fe  Fe15      1.0  0.11406  0.37510  0.30464  1.0000
  S   S27       1.0  0.12721  0.36410  0.27924  1.0000
  Fe  Fe16      1.0  0.07712  0.40000  0.32205  1.0000
  S   S28       1.0  0.04670  0.41731  0.31561  1.0000
  S   S29       1.0  0.13046  0.36852  0.32811  1.0000
  S   S30       1.0  0.08967  0.39579  0.34704  1.0000
  Fe  Fe17      1.0  0.13117  0.17981  0.42128  1.0000
  S   S31       1.0  0.13379  0.21319  0.42144  1.0000
  S   S32       1.0  0.16129  0.15871  0.42692  1.0000
  Fe  Fe18      1.0  0.08368  0.19034  0.41989  1.0000
  S   S33       1.0  0.08370  0.22404  0.41979  1.0000
  S   S34       1.0  0.05223  0.17943  0.42667  1.0000
  Fe  Fe19      1.0  0.11254  0.21995  0.40109  1.0000
  S   S35       1.0  0.11979  0.24166  0.37683  1.0000
  Fe  Fe20      1.0  0.10479  0.21436  0.44001  1.0000
  S   S36       1.0  0.09660  0.22808  0.46482  1.0000
  S   S37       1.0  0.11147  0.18637  0.39966  1.0000
  S   S38       1.0  0.10330  0.18102  0.44121  1.0000
  C   C75       1.0  0.01222  0.18850  0.41985  1.0000
  C   C76       1.0  0.03277  0.18211  0.41320  1.0000
  C   C77       1.0  0.09265  0.38377  0.26481  1.0000
  H   H133      1.0  0.00904  0.19406  0.43215  1.0000
  H   H134      1.0  0.08293  0.47023  0.31984  1.0000
  H   H135      1.0  0.22506  0.10323  0.35748  1.0000
  H   H136      1.0  0.02752  0.12154  0.39578  1.0000
  C   C78       1.0  0.13595  0.21806  0.47421  1.0000
  C   C79       1.0  0.01090  0.11738  0.46147  1.0000
  H   H137      1.0  0.14147  0.21762  0.46083  1.0000
  C   C80       1.0  0.10107  0.31187  0.36870  1.0000
  C   C81       1.0  0.11649  0.30204  0.35744  1.0000
  C   C82       1.0  0.12201  0.28055  0.36006  1.0000
  C   C83       1.0  0.11232  0.26866  0.37400  1.0000
  C   C84       1.0  0.09695  0.27848  0.38526  1.0000
  C   C85       1.0  0.09158  0.29996  0.38277  1.0000
  H   H138      1.0  0.12420  0.31099  0.34673  1.0000
  H   H139      1.0  0.13396  0.27311  0.35127  1.0000
  H   H140      1.0  0.08911  0.26944  0.39581  1.0000
  H   H141      1.0  0.07987  0.30737  0.39172  1.0000
  C   C86       1.0  0.11235  0.37232  0.26222  1.0000
  H   H142      1.0  0.99910  0.30779  0.30797  1.0000
  C   C87       1.0  0.15773  0.16127  0.47717  1.0000
  H   H143      1.0  0.08643  0.38783  0.27736  1.0000
  C   C88       1.0  0.01493  0.37308  0.34076  1.0000
  C   C89       1.0  0.02919  0.38696  0.33633  1.0000
  C   C90       1.0  0.02938  0.39949  0.32074  1.0000
  C   C91       1.0  0.99958  0.17875  0.39559  1.0000
  H   H144      1.0  0.05217  0.28319  0.44358  1.0000
  H   H145      1.0  0.01416  0.36403  0.35308  1.0000
  H   H146      1.0  0.03977  0.38825  0.34511  1.0000
  H   H147      1.0  0.06554  0.39830  0.25335  1.0000
  H   H148      1.0  0.03405  0.22509  0.40025  1.0000
  C   C92       1.0  0.02197  0.21799  0.47588  1.0000
  C   C93       1.0  0.14101  0.44745  0.33068  1.0000
  C   C94       1.0  0.16006  0.45442  0.32519  1.0000
  C   C95       1.0  0.14599  0.27534  0.48012  1.0000
  H   H149      1.0  0.18893  0.16786  0.44854  1.0000
  H   H150      1.0  0.17412  0.44349  0.32421  1.0000
  C   C96       1.0  0.01560  0.39787  0.30945  1.0000
  C   C97       1.0  0.19633  0.09512  0.41554  1.0000
  C   C98       1.0  0.20490  0.10785  0.42414  1.0000
  C   C99       1.0  0.19410  0.12736  0.42716  1.0000
  C   C100      1.0  0.17447  0.13435  0.42183  1.0000
  C   C101      1.0  0.16591  0.12163  0.41317  1.0000
  C   C102      1.0  0.17682  0.10216  0.41003  1.0000
  H   H151      1.0  0.21970  0.10244  0.42867  1.0000
  H   H152      1.0  0.20091  0.13701  0.43385  1.0000
  H   H153      1.0  0.15085  0.12672  0.40898  1.0000
  H   H154      1.0  0.17001  0.09242  0.40339  1.0000
  H   H155      1.0  0.18749  0.46153  0.36548  1.0000
  H   H156      1.0  0.11341  0.47522  0.36531  1.0000
  H   H157      1.0  0.20343  0.18105  0.45965  1.0000
  H   H158      1.0  0.00145  0.13318  0.39315  1.0000
  C   C103      1.0  0.22778  0.07140  0.36694  1.0000
  C   C104      1.0  0.28564  0.99856  0.37103  1.0000
  H   H159      1.0  0.13993  0.28360  0.40112  1.0000
  C   C105      1.0  0.01098  0.12124  0.40098  1.0000
  H   H160      1.0  0.11931  0.30715  0.41774  1.0000
  H   H161      1.0  0.28163  0.02093  0.47217  1.0000
  C   C106      1.0  0.03689  0.33234  0.37382  1.0000
  H   H162      1.0  0.02134  0.12237  0.45005  1.0000
  H   H163      1.0  0.06984  0.45371  0.29726  1.0000
  H   H164      1.0  0.99460  0.26323  0.35065  1.0000
  H   H165      1.0  0.00206  0.22395  0.38709  1.0000
  H   H166      1.0  0.01426  0.38774  0.24794  1.0000
  C   C107      1.0  0.06169  0.46023  0.27202  1.0000
  C   C108      1.0  0.30836  0.00065  0.37108  1.0000
  N   N6        1.0  0.26041  0.11456  0.37032  1.0000
  C   C109      1.0  0.28366  0.11189  0.37012  1.0000
  C   C110      1.0  0.24935  0.12006  0.38745  1.0000
  C   C111      1.0  0.25494  0.09414  0.36773  1.0000
  C   C112      1.0  0.25314  0.13033  0.35612  1.0000
  C   C113      1.0  0.25938  0.15189  0.35526  1.0000
  H   H167      1.0  0.16128  0.47345  0.42553  1.0000
  H   H168      1.0  0.13797  0.43594  0.26263  1.0000
  C   C114      1.0  0.26029  0.13266  0.39739  1.0000
  C   C115      1.0  0.24635  0.13956  0.41315  1.0000
  C   C116      1.0  0.25323  0.16556  0.33922  1.0000
  H   H169      1.0  0.30917  0.00906  0.38190  1.0000
  H   H170      1.0  0.22487  0.11842  0.45618  1.0000
  H   H171      1.0  0.28843  0.09962  0.38042  1.0000
  H   H172      1.0  0.28875  0.12589  0.37307  1.0000
  H   H173      1.0  0.23346  0.12837  0.38613  1.0000
  H   H174      1.0  0.24668  0.10598  0.39636  1.0000
  H   H175      1.0  0.26118  0.08185  0.37746  1.0000
  H   H176      1.0  0.26233  0.08955  0.35518  1.0000
  H   H177      1.0  0.25835  0.12459  0.34356  1.0000
  H   H178      1.0  0.23593  0.13280  0.35719  1.0000
  H   H179      1.0  0.27631  0.15125  0.35500  1.0000
  H   H180      1.0  0.25113  0.15945  0.36632  1.0000
  H   H181      1.0  0.01246  0.23089  0.48207  1.0000
  H   H182      1.0  0.00691  0.10600  0.39985  1.0000
  H   H183      1.0  0.01967  0.30740  0.33165  1.0000
  H   H184      1.0  0.16654  0.21143  0.48208  1.0000
  H   H185      1.0  0.27437  0.12308  0.40185  1.0000
  H   H186      1.0  0.26506  0.14652  0.38942  1.0000
  H   H187      1.0  0.23147  0.14843  0.40966  1.0000
  H   H188      1.0  0.24325  0.12606  0.42249  1.0000
  H   H189      1.0  0.25423  0.14947  0.41932  1.0000
  H   H190      1.0  0.26146  0.15906  0.32762  1.0000
  H   H191      1.0  0.23624  0.16717  0.33896  1.0000
  H   H192      1.0  0.25747  0.18107  0.33906  1.0000
  C   C117      1.0  0.17285  0.09664  0.46717  1.0000
  H   H193      1.0  0.99133  0.38200  0.30491  1.0000
  H   H194      1.0  0.01346  0.13980  0.42014  1.0000
  H   H195      1.0  0.02654  0.33218  0.32467  1.0000
  H   H196      1.0  0.13551  0.35836  0.24376  1.0000
  H   H197      1.0  0.15843  0.27198  0.42850  1.0000
  H   H198      1.0  0.06943  0.42707  0.27799  1.0000
  C   C118      1.0  0.05834  0.46503  0.29066  1.0000
  H   H199      1.0  0.02654  0.35262  0.27553  1.0000
  H   H200      1.0  0.03482  0.34313  0.24643  1.0000
  H   H201      1.0  0.11460  0.28510  0.46243  1.0000
  H   H202      1.0  0.17641  0.09426  0.45353  1.0000
  H   H203      1.0  0.99129  0.21980  0.35168  1.0000
  C   C119      1.0  0.06685  0.27528  0.43731  1.0000
  C   C120      1.0  0.12254  0.43132  0.26260  1.0000
  C   C121      1.0  0.23753  0.11667  0.46425  1.0000
  C   C122      1.0  0.08515  0.28461  0.44104  1.0000
  H   H204      1.0  0.18699  0.09086  0.47341  1.0000
  C   C123      1.0  0.02571  0.36868  0.26935  1.0000
  H   H205      1.0  0.06827  0.25876  0.44237  1.0000
  H   H206      1.0  0.10628  0.25730  0.43504  1.0000
  H   H207      1.0  0.12301  0.25941  0.45927  1.0000
  H   H208      1.0  0.29261  0.11776  0.34224  1.0000
  C   C124      1.0  0.01591  0.37117  0.25289  1.0000
  H   H209      1.0  0.07785  0.46145  0.26641  1.0000
  H   H210      1.0  0.12408  0.41431  0.26403  1.0000
  C   C125      1.0  0.02021  0.17340  0.38845  1.0000
  H   H211      1.0  0.09336  0.47681  0.29075  1.0000
  H   H212      1.0  0.00124  0.17645  0.46427  1.0000
  H   H213      1.0  0.11028  0.35159  0.44209  1.0000
  H   H214      1.0  0.00025  0.36650  0.25606  1.0000
  H   H215      1.0  0.02240  0.33385  0.38287  1.0000
  H   H216      1.0  0.03759  0.29797  0.30148  1.0000
  C   C126      1.0  0.00905  0.31851  0.30021  1.0000
  H   H217      1.0  0.17696  0.19140  0.45680  1.0000
  H   H218      1.0  0.02338  0.16707  0.37646  1.0000
  C   C127      1.0  0.16606  0.11945  0.46863  1.0000
  C   C128      1.0  0.99573  0.18702  0.41103  1.0000
  H   H219      1.0  0.15910  0.26257  0.45720  1.0000
  H   H220      1.0  0.09806  0.43575  0.24706  1.0000
  C   C129      1.0  0.03189  0.31557  0.32370  1.0000
  C   C130      1.0  0.01895  0.25020  0.38369  1.0000
  H   H221      1.0  0.13922  0.46453  0.40590  1.0000
  H   H222      1.0  0.23504  0.98306  0.42052  1.0000
  H   H223      1.0  0.00517  0.45502  0.34508  1.0000
  H   H224      1.0  0.02513  0.08538  0.46204  1.0000
  H   H225      1.0  0.00240  0.33448  0.30248  1.0000
  H   H226      1.0  0.16784  0.24170  0.40473  1.0000
  H   H227      1.0  0.08751  0.14446  0.46962  1.0000
  H   H228      1.0  0.01200  0.25848  0.39469  1.0000
  H   H229      1.0  0.02205  0.23583  0.45090  1.0000
  H   H230      1.0  0.04568  0.22691  0.37823  1.0000
  H   H231      1.0  0.02414  0.26161  0.37303  1.0000
  H   H232      1.0  0.03736  0.42553  0.37730  1.0000
  H   H233      1.0  0.17658  0.26660  0.39985  1.0000
  H   H234      1.0  0.23205  0.98681  0.46586  1.0000
  H   H235      1.0  0.16028  0.08763  0.47304  1.0000
  H   H236      1.0  0.01151  0.20818  0.47254  1.0000
  C   C131      1.0  0.03136  0.43300  0.36532  1.0000
  C   C132      1.0  0.17603  0.43283  0.37149  1.0000
  C   C133      1.0  0.14783  0.27607  0.46077  1.0000
  H   H237      1.0  0.14326  0.30510  0.42560  1.0000
  H   H238      1.0  0.15286  0.12474  0.46124  1.0000
  H   H239      1.0  0.00870  0.42964  0.33977  1.0000
  C   C134      1.0  0.18063  0.16467  0.47605  1.0000
  H   H240      1.0  0.04218  0.43592  0.27691  1.0000
  C   C135      1.0  0.11472  0.22255  0.47955  1.0000
  H   H241      1.0  0.27930  0.99069  0.38347  1.0000
  C   C136      1.0  0.11352  0.44063  0.24623  1.0000
  H   H242      1.0  0.13570  0.28906  0.48441  1.0000
  H   H243      1.0  0.06017  0.43536  0.25765  1.0000
  C   C137      1.0  0.03119  0.31350  0.30471  1.0000
  C   C138      1.0  0.00014  0.43967  0.34915  1.0000
  H   H244      1.0  0.01697  0.11232  0.42654  1.0000
  C   C139      1.0  0.03821  0.23587  0.38876  1.0000
  H   H245      1.0  0.10206  0.31633  0.44840  1.0000
  H   H246      1.0  0.12106  0.12600  0.47655  1.0000
  H   H247      1.0  0.07155  0.46608  0.35089  1.0000
  H   H248      1.0  0.01591  0.40746  0.29732  1.0000
  H   H249      1.0  0.28387  0.98984  0.36064  1.0000
  N   N7        1.0  0.05250  0.30910  0.33054  1.0000
  C   C140      1.0  0.06993  0.31418  0.31688  1.0000
  H   H250      1.0  0.15115  0.46673  0.35830  1.0000
  C   C141      1.0  0.05263  0.32150  0.34493  1.0000
  C   C142      1.0  0.05523  0.28674  0.33783  1.0000
  C   C143      1.0  0.05961  0.27072  0.32508  1.0000
  C   C144      1.0  0.09192  0.31006  0.32237  1.0000
  H   H251      1.0  0.04961  0.32404  0.38087  1.0000
  H   H252      1.0  0.08253  0.30112  0.43610  1.0000
  H   H253      1.0  0.99931  0.43855  0.31495  1.0000
  C   C145      1.0  0.06438  0.24906  0.33436  1.0000
  C   C146      1.0  0.10849  0.31290  0.30704  1.0000
  C   C147      1.0  0.28352  0.02753  0.48333  1.0000
  H   H254      1.0  0.06702  0.33071  0.31171  1.0000
  H   H255      1.0  0.07053  0.30574  0.30580  1.0000
  H   H256      1.0  0.04033  0.32454  0.29635  1.0000
  C   C148      1.0  0.11637  0.34044  0.43284  1.0000
  H   H257      1.0  0.05305  0.33799  0.33991  1.0000
  H   H258      1.0  0.06687  0.31637  0.35114  1.0000
  H   H259      1.0  0.06793  0.28342  0.34606  1.0000
  H   H260      1.0  0.04115  0.28309  0.34645  1.0000
  H   H261      1.0  0.07314  0.27326  0.31544  1.0000
  H   H262      1.0  0.04578  0.27098  0.31869  1.0000
  H   H263      1.0  0.09335  0.32113  0.33108  1.0000
  H   H264      1.0  0.09541  0.29426  0.32885  1.0000
  H   H265      1.0  0.03294  0.30456  0.36519  1.0000
  H   H266      1.0  0.04716  0.19343  0.48049  1.0000
  H   H267      1.0  0.10840  0.45647  0.33718  1.0000
  C   C149      1.0  0.06614  0.47202  0.32440  1.0000
  H   H268      1.0  0.13465  0.47417  0.43493  1.0000
  H   H269      1.0  0.06722  0.23772  0.32506  1.0000
  H   H270      1.0  0.07850  0.24761  0.34076  1.0000
  H   H271      1.0  0.05117  0.24532  0.34402  1.0000
  H   H272      1.0  0.10567  0.32857  0.30006  1.0000
  H   H273      1.0  0.12397  0.31083  0.31146  1.0000
  H   H274      1.0  0.10867  0.30144  0.29820  1.0000
  C   C150      1.0  0.09420  0.14851  0.48043  1.0000
  H   H275      1.0  0.04281  0.46113  0.29652  1.0000
  C   C151      1.0  0.05813  0.43831  0.27115  1.0000
  H   H276      1.0  0.19105  0.14988  0.47734  1.0000
  C   C152      1.0  0.23148  0.09313  0.36831  1.0000
  C   C153      1.0  0.08086  0.38969  0.25119  1.0000
  H   H277      1.0  0.06074  0.45691  0.32520  1.0000
  H   H278      1.0  0.24993  0.10448  0.45978  1.0000
  N   N8        1.0  0.12552  0.28032  0.43606  1.0000
  C   C154      1.0  0.14348  0.26724  0.42692  1.0000
  C   C155      1.0  0.15350  0.46753  0.37167  1.0000
  C   C156      1.0  0.14330  0.26770  0.40749  1.0000
  H   H279      1.0  0.10573  0.34263  0.42296  1.0000
  H   H280      1.0  0.31329  0.01017  0.35907  1.0000
  H   H281      1.0  0.04387  0.23743  0.46159  1.0000
  C   C157      1.0  0.11774  0.14264  0.47783  1.0000
  C   C158      1.0  0.24567  0.98104  0.47277  1.0000
  H   H282      1.0  0.21090  0.07104  0.36761  1.0000
  H   H283      1.0  0.05088  0.47059  0.26416  1.0000
  H   H284      1.0  0.14181  0.45881  0.37957  1.0000
  C   C159      1.0  0.03341  0.22699  0.45914  1.0000
  C   C160      1.0  0.12296  0.46181  0.33223  1.0000
  C   C161      1.0  0.03678  0.17510  0.39721  1.0000
  H   H285      1.0  0.04271  0.21456  0.45219  1.0000
  C   C162      1.0  0.12026  0.36718  0.24584  1.0000
  C   C163      1.0  0.10582  0.27424  0.43211  1.0000
  C   C164      1.0  0.18785  0.17703  0.45923  1.0000
  H   H286      1.0  0.27650  0.01404  0.36892  1.0000
  H   H287      1.0  0.15496  0.15843  0.46444  1.0000
  H   H288      1.0  0.99726  0.46447  0.25206  1.0000
  H   H289      1.0  0.24384  0.13140  0.46261  1.0000
  H   H290      1.0  0.04154  0.37302  0.26676  1.0000
  H   H291      1.0  0.23566  0.06629  0.35470  1.0000
  H   H292      1.0  0.08478  0.28273  0.45506  1.0000
  H   H293      1.0  0.23358  0.06054  0.37764  1.0000
  H   H294      1.0  0.17907  0.12764  0.46241  1.0000
  H   H295      1.0  0.19147  0.42420  0.37370  1.0000
  H   H296      1.0  0.04073  0.42564  0.35451  1.0000
  H   H297      1.0  0.03319  0.44947  0.36372  1.0000
  C   C165      1.0  0.11772  0.31860  0.44208  1.0000
  H   H298      1.0  0.05255  0.16986  0.39206  1.0000
  H   H299      1.0  0.01934  0.32726  0.35463  1.0000
  H   H300      1.0  0.12373  0.15132  0.46577  1.0000
  H   H301      1.0  0.01109  0.23253  0.36588  1.0000
  H   H302      1.0  0.04068  0.34791  0.36879  1.0000
  H   H303      1.0  0.13132  0.25882  0.40529  1.0000
  H   H304      1.0  0.22250  0.09786  0.38031  1.0000
  H   H305      1.0  0.15424  0.29016  0.45473  1.0000
  C   C166      1.0  0.03420  0.32053  0.35945  1.0000
  H   H306      1.0  0.16287  0.25762  0.38516  1.0000
  C   C167      1.0  0.16398  0.25779  0.39887  1.0000
  H   H307      1.0  0.12778  0.31751  0.45222  1.0000
  H   H308      1.0  0.11141  0.45752  0.24583  1.0000
  S   S39       1.0  0.30660  0.05556  0.37594  1.0000
  H   H309      1.0  0.17371  0.43198  0.35815  1.0000
  H   H310      1.0  0.10453  0.27793  0.41832  1.0000
  H   H311      1.0  0.04960  0.24495  0.39179  1.0000
  C   C168      1.0  0.00342  0.23815  0.37801  1.0000
  C   C169      1.0  0.12663  0.27520  0.45494  1.0000
  H   H312      1.0  0.14424  0.25090  0.43268  1.0000
  H   H313      1.0  0.06607  0.27701  0.42339  1.0000
  H   H314      1.0  0.13192  0.34373  0.42669  1.0000
  H   H315      1.0  0.11209  0.43687  0.27371  1.0000
  H   H316      1.0  0.29545  0.09101  0.35063  1.0000
  C   C170      1.0  0.00757  0.12528  0.41960  1.0000
  C   C171      1.0  0.22909  0.11084  0.48286  1.0000
  C   C172      1.0  0.00163  0.38360  0.31378  1.0000
  C   C173      1.0  0.12684  0.30263  0.42959  1.0000
  H   H317      1.0  0.00902  0.31716  0.28655  1.0000
  C   C174      1.0  0.17500  0.45514  0.37451  1.0000
  H   H318      1.0  0.00911  0.12934  0.47009  1.0000
  H   H319      1.0  0.01612  0.37880  0.27824  1.0000
  C   C175      1.0  0.00852  0.43072  0.36624  1.0000
  C   C176      1.0  0.00135  0.37120  0.32944  1.0000
  H   H320      1.0  0.00023  0.15263  0.44367  1.0000
  H   H321      1.0  0.00483  0.33310  0.24190  1.0000
  H   H322      1.0  0.25301  0.99437  0.47444  1.0000
  C   C177      1.0  0.29702  0.10656  0.35322  1.0000
  C   C178      1.0  0.02962  0.35841  0.23953  1.0000
  H   H323      1.0  0.22245  0.09645  0.48343  1.0000
  C   C179      1.0  0.28397  0.04860  0.48227  1.0000
  C   C180      1.0  0.98939  0.11419  0.45732  1.0000
  H   H324      1.0  0.03691  0.10059  0.47370  1.0000
  H   H325      1.0  0.99989  0.43847  0.37707  1.0000
  H   H326      1.0  0.09005  0.16530  0.48080  1.0000
  H   H327      1.0  0.00743  0.41408  0.36901  1.0000
  C   C181      1.0  0.16122  0.47546  0.32156  1.0000
  H   H328      1.0  0.99325  0.27904  0.36680  1.0000
  H   H329      1.0  0.14803  0.17625  0.47903  1.0000
  C   C182      1.0  0.02191  0.09771  0.47047  1.0000
  H   H330      1.0  0.99116  0.09908  0.45243  1.0000
  C   C183      1.0  0.31998  0.10680  0.35409  1.0000
  H   H331      1.0  0.31924  0.98722  0.40591  1.0000
  H   H332      1.0  0.98835  0.23927  0.41221  1.0000
  H   H333      1.0  0.10989  0.47828  0.38739  1.0000
  C   C184      1.0  0.06291  0.47806  0.34240  1.0000
  H   H334      1.0  0.16153  0.27501  0.48401  1.0000
  H   H335      1.0  0.01231  0.09250  0.48244  1.0000
  Fe  Fe21      1.0  0.30159  0.02603  0.59065  1.0000
  S   S40       1.0  0.26948  0.03808  0.60245  1.0000
  H   H336      1.0  0.20948  0.12255  0.51411  1.0000
  Fe  Fe22      1.0  0.28523  0.02184  0.55697  1.0000
  S   S41       1.0  0.25238  0.03357  0.56652  1.0000
  S   S42       1.0  0.29157  0.00715  0.53253  1.0000
  Fe  Fe23      1.0  0.26579  0.05729  0.57702  1.0000
  S   S43       1.0  0.25298  0.09152  0.57194  1.0000
  Fe  Fe24      1.0  0.25882  0.01345  0.59067  1.0000
  S   S44       1.0  0.29888  0.04675  0.56574  1.0000
  S   S45       1.0  0.29061  0.00029  0.58059  1.0000
  H   H337      1.0  0.08409  0.16317  0.52118  1.0000
  Fe  Fe25      1.0  0.09305  0.35494  0.67899  1.0000
  S   S46       1.0  0.11611  0.32637  0.67610  1.0000
  S   S47       1.0  0.06179  0.35809  0.69451  1.0000
  Fe  Fe26      1.0  0.11892  0.38297  0.65473  1.0000
  S   S48       1.0  0.14441  0.35692  0.64958  1.0000
  S   S49       1.0  0.11592  0.41578  0.64161  1.0000
  Fe  Fe27      1.0  0.11975  0.33768  0.64796  1.0000
  S   S50       1.0  0.11843  0.32161  0.62455  1.0000
  Fe  Fe28      1.0  0.13890  0.34750  0.67792  1.0000
  S   S51       1.0  0.16656  0.33900  0.69222  1.0000
  S   S52       1.0  0.09459  0.36469  0.65103  1.0000
  S   S53       1.0  0.11552  0.37501  0.68303  1.0000
  N   N9        1.0  0.04062  0.43179  0.65890  1.0000
  Fe  Fe29      1.0  0.14640  0.20409  0.54599  1.0000
  S   S54       1.0  0.12764  0.17825  0.55292  1.0000
  S   S55       1.0  0.16094  0.20889  0.51856  1.0000
  Fe  Fe30      1.0  0.14164  0.21437  0.58293  1.0000
  S   S56       1.0  0.12286  0.18861  0.59217  1.0000
  S   S57       1.0  0.14990  0.23095  0.60377  1.0000
  Fe  Fe31      1.0  0.14631  0.16961  0.57501  1.0000
  S   S58       1.0  0.15947  0.13628  0.58337  1.0000
  Fe  Fe32      1.0  0.10633  0.19962  0.56919  1.0000
  S   S59       1.0  0.07172  0.20946  0.56918  1.0000
  S   S60       1.0  0.16614  0.19447  0.56725  1.0000
  S   S61       1.0  0.12399  0.22639  0.56069  1.0000
  C   C185      1.0  0.14305  0.21463  0.50365  1.0000
  C   C186      1.0  0.12183  0.21918  0.50894  1.0000
  H   H338      1.0  0.14877  0.11944  0.52134  1.0000
  H   H339      1.0  0.11626  0.21962  0.52232  1.0000
  C   C187      1.0  0.01728  0.30291  0.61216  1.0000
  C   C188      1.0  0.05258  0.19456  0.56718  1.0000
  C   C189      1.0  0.03346  0.20497  0.56300  1.0000
  C   C190      1.0  0.03865  0.16239  0.57001  1.0000
  C   C191      1.0  0.05525  0.17315  0.57060  1.0000
  H   H340      1.0  0.03134  0.22150  0.56027  1.0000
  H   H341      1.0  0.04070  0.14585  0.57278  1.0000
  H   H342      1.0  0.06992  0.16494  0.57396  1.0000
  C   C192      1.0  0.12690  0.29610  0.61935  1.0000
  C   C193      1.0  0.12380  0.29140  0.60338  1.0000
  C   C194      1.0  0.13046  0.27158  0.59850  1.0000
  C   C195      1.0  0.14041  0.25609  0.60952  1.0000
  C   C196      1.0  0.14356  0.26082  0.62547  1.0000
  C   C197      1.0  0.13679  0.28063  0.63040  1.0000
  H   H343      1.0  0.11653  0.30326  0.59456  1.0000
  H   H344      1.0  0.12834  0.26842  0.58604  1.0000
  H   H345      1.0  0.15137  0.24908  0.63408  1.0000
  H   H346      1.0  0.13941  0.28394  0.64269  1.0000
  C   C198      1.0  0.16454  0.33705  0.71463  1.0000
  H   H347      1.0  0.13161  0.34664  0.71921  1.0000
  C   C199      1.0  0.12323  0.43560  0.65096  1.0000
  C   C200      1.0  0.11715  0.45616  0.64457  1.0000
  H   H348      1.0  0.22734  0.97988  0.49731  1.0000
  H   H349      1.0  0.02861  0.36443  0.65384  1.0000
  C   C201      1.0  0.14100  0.44737  0.67142  1.0000
  C   C202      1.0  0.13510  0.43126  0.66448  1.0000
  H   H350      1.0  0.10796  0.45966  0.63412  1.0000
  N   N10       1.0  0.15269  0.40919  0.72578  1.0000
  H   H351      1.0  0.15045  0.44393  0.68167  1.0000
  H   H352      1.0  0.13997  0.41550  0.66942  1.0000
  C   C203      1.0  0.02264  0.31849  0.67488  1.0000
  C   C204      1.0  0.22401  0.12115  0.51990  1.0000
  C   C205      1.0  0.02518  0.34635  0.69061  1.0000
  C   C206      1.0  0.04672  0.34323  0.68660  1.0000
  C   C207      1.0  0.05622  0.32772  0.67679  1.0000
  C   C208      1.0  0.04421  0.31520  0.67114  1.0000
  H   H353      1.0  0.13290  0.14194  0.52855  1.0000
  H   H354      1.0  0.01781  0.35838  0.69813  1.0000
  H   H355      1.0  0.07285  0.32515  0.67374  1.0000
  H   H356      1.0  0.05163  0.30311  0.66375  1.0000
  C   C209      1.0  0.22661  0.10318  0.57412  1.0000
  C   C210      1.0  0.22174  0.12407  0.56801  1.0000
  C   C211      1.0  0.20117  0.13420  0.57011  1.0000
  C   C212      1.0  0.18522  0.12366  0.57866  1.0000
  C   C213      1.0  0.19002  0.10267  0.58443  1.0000
  C   C214      1.0  0.21055  0.09244  0.58209  1.0000
  H   H357      1.0  0.23402  0.13252  0.56175  1.0000
  H   H358      1.0  0.19766  0.15027  0.56554  1.0000
  H   H359      1.0  0.17783  0.09432  0.59107  1.0000
  H   H360      1.0  0.21400  0.07637  0.58687  1.0000
  C   C215      1.0  0.28833  0.02336  0.51338  1.0000
  H   H361      1.0  0.29093  0.05093  0.52344  1.0000
  C   C216      1.0  0.04639  0.24986  0.66477  1.0000
  H   H362      1.0  0.23834  0.17242  0.66222  1.0000
  H   H363      1.0  0.19726  0.32692  0.71431  1.0000
  H   H364      1.0  0.29865  0.09129  0.53109  1.0000
  C   C217      1.0  0.14897  0.13536  0.52381  1.0000
  H   H365      1.0  0.23800  0.18846  0.55986  1.0000
  C   C218      1.0  0.09524  0.39775  0.73431  1.0000
  H   H366      1.0  0.00746  0.43750  0.66633  1.0000
  H   H367      1.0  0.18844  0.39618  0.62847  1.0000
  H   H368      1.0  0.23996  0.07202  0.51057  1.0000
  H   H369      1.0  0.06608  0.27183  0.65295  1.0000
  H   H370      1.0  0.00962  0.26947  0.57693  1.0000
  C   C219      1.0  0.18269  0.33062  0.72219  1.0000
  C   C220      1.0  0.23122  0.14247  0.51763  1.0000
  H   H371      1.0  0.21079  0.08708  0.54184  1.0000
  H   H372      1.0  0.04106  0.32680  0.71995  1.0000
  S   S62       1.0  0.23669  0.99283  0.60536  1.0000
  H   H373      1.0  0.07543  0.42033  0.69872  1.0000
  H   H374      1.0  0.02342  0.17071  0.49232  1.0000
  C   C221      1.0  0.01317  0.33386  0.68487  1.0000
  H   H375      1.0  0.17279  0.38887  0.58687  1.0000
  H   H376      1.0  0.00054  0.21805  0.50881  1.0000
  C   C222      1.0  0.15699  0.14901  0.50752  1.0000
  H   H377      1.0  0.28815  0.07296  0.49581  1.0000
  H   H378      1.0  0.10172  0.36683  0.60875  1.0000
  C   C223      1.0  0.00243  0.30530  0.59881  1.0000
  C   C224      1.0  0.00856  0.24569  0.52663  1.0000
  C   C225      1.0  0.00167  0.43460  0.70112  1.0000
  H   H379      1.0  0.99531  0.29117  0.59962  1.0000
  H   H380      1.0  0.03258  0.23754  0.50668  1.0000
  N   N11       1.0  0.02830  0.19598  0.50480  1.0000
  C   C226      1.0  0.25822  0.09991  0.52324  1.0000
  C   C227      1.0  0.23329  0.98395  0.52981  1.0000
  N   N12       1.0  0.99654  0.22053  0.61461  1.0000
  C   C228      1.0  0.24056  0.17291  0.64813  1.0000
  H   H381      1.0  0.25455  0.12142  0.49134  1.0000
  C   C229      1.0  0.28862  0.04442  0.51235  1.0000
  H   H382      1.0  0.20180  0.05728  0.53015  1.0000
  H   H383      1.0  0.24258  0.14240  0.52660  1.0000
  C   C230      1.0  0.01928  0.17297  0.56621  1.0000
  H   H384      1.0  0.07277  0.41800  0.65741  1.0000
  H   H385      1.0  0.03624  0.22409  0.52758  1.0000
  C   C231      1.0  0.06852  0.43998  0.67545  1.0000
  C   C232      1.0  0.15901  0.39882  0.70976  1.0000
  H   H386      1.0  0.99609  0.34497  0.72383  1.0000
  H   H387      1.0  0.13293  0.35166  0.59566  1.0000
  C   C233      1.0  0.28603  0.01492  0.49880  1.0000
  H   H388      1.0  0.12073  0.16278  0.49616  1.0000
  H   H389      1.0  0.12121  0.38794  0.71644  1.0000
  C   C234      1.0  0.17984  0.40284  0.69891  1.0000
  C   C235      1.0  0.18617  0.38830  0.68531  1.0000
  N   N13       1.0  0.14131  0.38205  0.59364  1.0000
  C   C236      1.0  0.15897  0.39260  0.59631  1.0000
  H   H390      1.0  0.15218  0.43985  0.71241  1.0000
  H   H391      1.0  0.01660  0.24223  0.60143  1.0000
  H   H392      1.0  0.15932  0.38191  0.71286  1.0000
  H   H393      1.0  0.14726  0.40389  0.70076  1.0000
  C   C237      1.0  0.15942  0.43019  0.72316  1.0000
  H   H394      1.0  0.15618  0.31801  0.59284  1.0000
  H   H395      1.0  0.00228  0.20275  0.55982  1.0000
  C   C238      1.0  0.21315  0.15925  0.52184  1.0000
  C   C239      1.0  0.14554  0.35922  0.59875  1.0000
  H   H396      1.0  0.01761  0.31656  0.72576  1.0000
  C   C240      1.0  0.10171  0.38279  0.60235  1.0000
  H   H397      1.0  0.14508  0.35564  0.61281  1.0000
  C   C241      1.0  0.12998  0.40822  0.56824  1.0000
  H   H398      1.0  0.15042  0.11210  0.49407  1.0000
  H   H399      1.0  0.17819  0.41874  0.69224  1.0000
  H   H400      1.0  0.19269  0.40103  0.70667  1.0000
  H   H401      1.0  0.19029  0.37236  0.69140  1.0000
  H   H402      1.0  0.17342  0.38877  0.67754  1.0000
  H   H403      1.0  0.19996  0.39279  0.67672  1.0000
  H   H404      1.0  0.05707  0.17118  0.61253  1.0000
  C   C242      1.0  0.02485  0.22968  0.51847  1.0000
  H   H405      1.0  0.16817  0.32237  0.61065  1.0000
  C   C243      1.0  0.16600  0.38809  0.61431  1.0000
  H   H406      1.0  0.01194  0.46246  0.64346  1.0000
  H   H407      1.0  0.19741  0.39510  0.60615  1.0000
  N   N14       1.0  0.05244  0.28318  0.62025  1.0000
  C   C244      1.0  0.05676  0.30253  0.62593  1.0000
  C   C245      1.0  0.04323  0.27019  0.63565  1.0000
  C   C246      1.0  0.07240  0.27202  0.61219  1.0000
  C   C247      1.0  0.03717  0.28785  0.60741  1.0000
  C   C248      1.0  0.06447  0.31887  0.61161  1.0000
  C   C249      1.0  0.07066  0.25108  0.60650  1.0000
  C   C250      1.0  0.05814  0.26031  0.64885  1.0000
  C   C251      1.0  0.06356  0.33931  0.61845  1.0000
  C   C252      1.0  0.09189  0.23987  0.60043  1.0000
  H   H408      1.0  0.06894  0.29897  0.63458  1.0000
  H   H409      1.0  0.04277  0.30982  0.63370  1.0000
  H   H410      1.0  0.02991  0.27941  0.64255  1.0000
  H   H411      1.0  0.03648  0.25761  0.63181  1.0000
  H   H412      1.0  0.08459  0.26973  0.62083  1.0000
  H   H413      1.0  0.07877  0.28156  0.60061  1.0000
  H   H414      1.0  0.04470  0.29397  0.59473  1.0000
  H   H415      1.0  0.08078  0.31377  0.60653  1.0000
  H   H416      1.0  0.05514  0.32180  0.60087  1.0000
  H   H417      1.0  0.06128  0.25338  0.59576  1.0000
  H   H418      1.0  0.06343  0.24075  0.61698  1.0000
  H   H419      1.0  0.07018  0.24850  0.64344  1.0000
  H   H420      1.0  0.03844  0.23778  0.66144  1.0000
  H   H421      1.0  0.04724  0.34559  0.62270  1.0000
  H   H422      1.0  0.07266  0.33736  0.62935  1.0000
  H   H423      1.0  0.07009  0.35047  0.60824  1.0000
  H   H424      1.0  0.09948  0.24907  0.58930  1.0000
  H   H425      1.0  0.10188  0.23671  0.61080  1.0000
  H   H426      1.0  0.09007  0.22502  0.59650  1.0000
  C   C253      1.0  0.16232  0.13418  0.53808  1.0000
  H   H427      1.0  0.15487  0.12605  0.54992  1.0000
  H   H428      1.0  0.17788  0.12549  0.53479  1.0000
  H   H429      1.0  0.16407  0.14974  0.54058  1.0000
  N   N15       1.0  0.20593  0.16384  0.61467  1.0000
  C   C254      1.0  0.18515  0.16906  0.62509  1.0000
  C   C255      1.0  0.22286  0.17068  0.62243  1.0000
  C   C256      1.0  0.20491  0.17567  0.59711  1.0000
  C   C257      1.0  0.21074  0.14133  0.61261  1.0000
  C   C258      1.0  0.21160  0.12613  0.62910  1.0000
  C   C259      1.0  0.16624  0.16284  0.61873  1.0000
  C   C260      1.0  0.22576  0.17545  0.58507  1.0000
  C   C261      1.0  0.22065  0.16926  0.64216  1.0000
  C   C262      1.0  0.21315  0.10405  0.62525  1.0000
  C   C263      1.0  0.14629  0.16910  0.63032  1.0000
  C   C264      1.0  0.22279  0.18826  0.56791  1.0000
  H   H430      1.0  0.18193  0.18591  0.62583  1.0000
  H   H431      1.0  0.18509  0.16177  0.63844  1.0000
  H   H432      1.0  0.23822  0.16213  0.61794  1.0000
  H   H433      1.0  0.22387  0.18721  0.61799  1.0000
  H   H434      1.0  0.19831  0.19205  0.59812  1.0000
  H   H435      1.0  0.19424  0.16959  0.59024  1.0000
  H   H436      1.0  0.19943  0.13705  0.60524  1.0000
  H   H437      1.0  0.22601  0.13788  0.60484  1.0000
  H   H438      1.0  0.19762  0.12913  0.63843  1.0000
  H   H439      1.0  0.22563  0.12707  0.63490  1.0000
  H   H440      1.0  0.16413  0.17045  0.60573  1.0000
  H   H441      1.0  0.16799  0.14599  0.61872  1.0000
  H   H442      1.0  0.23244  0.15967  0.58248  1.0000
  H   H443      1.0  0.23735  0.18194  0.59059  1.0000
  H   H444      1.0  0.20804  0.18125  0.64666  1.0000
  H   H445      1.0  0.21690  0.15422  0.64856  1.0000
  H   H446      1.0  0.22692  0.10015  0.61584  1.0000
  H   H447      1.0  0.21465  0.09329  0.63712  1.0000
  H   H448      1.0  0.19900  0.10189  0.62011  1.0000
  H   H449      1.0  0.14304  0.18607  0.62989  1.0000
  H   H450      1.0  0.13312  0.16377  0.62592  1.0000
  H   H451      1.0  0.14744  0.16204  0.64366  1.0000
  H   H452      1.0  0.21254  0.18160  0.56107  1.0000
  H   H453      1.0  0.21596  0.20432  0.56970  1.0000
  H   H454      1.0  0.03197  0.27350  0.60517  1.0000
  H   H455      1.0  0.01819  0.15827  0.52460  1.0000
  C   C265      1.0  0.14572  0.34179  0.72498  1.0000
  H   H456      1.0  0.03975  0.18226  0.52860  1.0000
  H   H457      1.0  0.09974  0.38289  0.58884  1.0000
  H   H458      1.0  0.15471  0.40954  0.59392  1.0000
  H   H459      1.0  0.02105  0.31838  0.61287  1.0000
  H   H460      1.0  0.03473  0.26128  0.67115  1.0000
  C   C266      1.0  0.21547  0.05577  0.53708  1.0000
  H   H461      1.0  0.22789  0.04414  0.53179  1.0000
  H   H462      1.0  0.02275  0.42122  0.64207  1.0000
  H   H463      1.0  0.24465  0.18819  0.64244  1.0000
  H   H464      1.0  0.99110  0.19962  0.59772  1.0000
  H   H465      1.0  0.25357  0.16083  0.64454  1.0000
  H   H466      1.0  0.17780  0.46273  0.72951  1.0000
  H   H467      1.0  0.25799  0.09477  0.49043  1.0000
  H   H468      1.0  0.05740  0.24264  0.67389  1.0000
  C   C267      1.0  0.06638  0.19235  0.51208  1.0000
  H   H469      1.0  0.16661  0.34982  0.57628  1.0000
  C   C268      1.0  0.22338  0.07635  0.53566  1.0000
  H   H470      1.0  0.23667  0.07392  0.54309  1.0000
  H   H471      1.0  0.00874  0.20421  0.52767  1.0000
  C   C269      1.0  0.02060  0.42549  0.68965  1.0000
  H   H472      1.0  0.21081  0.05034  0.55069  1.0000
  H   H473      1.0  0.00984  0.19985  0.63495  1.0000
  H   H474      1.0  0.14442  0.40677  0.54198  1.0000
  C   C270      1.0  0.04951  0.28697  0.71632  1.0000
  C   C271      1.0  0.13499  0.46793  0.66502  1.0000
  H   H475      1.0  0.01946  0.40921  0.68917  1.0000
  H   H476      1.0  0.07533  0.18039  0.53716  1.0000
  H   H477      1.0  0.00103  0.25945  0.62258  1.0000
  H   H478      1.0  0.05562  0.19081  0.62615  1.0000
  H   H479      1.0  0.26499  0.08338  0.52419  1.0000
  H   H480      1.0  0.25332  0.10312  0.53662  1.0000
  H   H481      1.0  0.01048  0.30885  0.58576  1.0000
  H   H482      1.0  0.12239  0.42646  0.54465  1.0000
  H   H483      1.0  0.11844  0.40007  0.54630  1.0000
  C   C272      1.0  0.16869  0.32510  0.59656  1.0000
  H   H484      1.0  0.23521  0.99466  0.51789  1.0000
  H   H485      1.0  0.23828  0.14685  0.50444  1.0000
  C   C273      1.0  0.22951  0.08463  0.51669  1.0000
  C   C274      1.0  0.12751  0.14704  0.49310  1.0000
  H   H486      1.0  0.05583  0.44989  0.68237  1.0000
  H   H487      1.0  0.06013  0.29606  0.70736  1.0000
  H   H488      1.0  0.06449  0.20839  0.51478  1.0000
  C   C275      1.0  0.01689  0.19432  0.56269  1.0000
  C   C276      1.0  0.27681  0.11158  0.51602  1.0000
  H   H489      1.0  0.04833  0.21619  0.48904  1.0000
  H   H490      1.0  0.21497  0.08709  0.51073  1.0000
  C   C277      1.0  0.01475  0.18104  0.50159  1.0000
  H   H491      1.0  0.21927  0.11769  0.53381  1.0000
  H   H492      1.0  0.22956  0.98658  0.55703  1.0000
  H   H493      1.0  0.11411  0.41277  0.57460  1.0000
  C   C278      1.0  0.08276  0.39618  0.61042  1.0000
  N   N16       1.0  0.23964  0.10386  0.51351  1.0000
  H   H494      1.0  0.03914  0.17090  0.63188  1.0000
  C   C279      1.0  0.06007  0.42396  0.66705  1.0000
  C   C280      1.0  0.04639  0.18099  0.62116  1.0000
  C   C281      1.0  0.08144  0.17946  0.52359  1.0000
  C   C282      1.0  0.29286  0.10793  0.52851  1.0000
  H   H495      1.0  0.00363  0.45012  0.70361  1.0000
  H   H496      1.0  0.05797  0.41052  0.67673  1.0000
  H   H497      1.0  0.17971  0.35409  0.59337  1.0000
  H   H498      1.0  0.09642  0.41949  0.68143  1.0000
  S   S63       1.0  0.00779  0.30359  0.66667  1.0000
  C   C283      1.0  0.03320  0.37884  0.64656  1.0000
  H   H499      1.0  0.00101  0.18937  0.49575  1.0000
  H   H500      1.0  0.12257  0.42449  0.71974  1.0000
  C   C284      1.0  0.01472  0.21163  0.51495  1.0000
  C   C285      1.0  0.02206  0.43790  0.67162  1.0000
  H   H501      1.0  0.27204  0.12829  0.51336  1.0000
  H   H502      1.0  0.04747  0.46302  0.65331  1.0000
  C   C286      1.0  0.24640  0.10781  0.49458  1.0000
  H   H503      1.0  0.01676  0.39637  0.66593  1.0000
  H   H504      1.0  0.28635  0.99859  0.49945  1.0000
  H   H505      1.0  0.24608  0.00349  0.54390  1.0000
  H   H506      1.0  0.03427  0.42598  0.69606  1.0000
  H   H507      1.0  0.04393  0.38842  0.66755  1.0000
  C   C287      1.0  0.02987  0.19417  0.61123  1.0000
  C   C288      1.0  0.04529  0.18404  0.51467  1.0000
  C   C289      1.0  0.16618  0.34805  0.59032  1.0000
  H   H508      1.0  0.08119  0.41189  0.60338  1.0000
  C   C290      1.0  0.03659  0.41573  0.64874  1.0000
  C   C291      1.0  0.03247  0.39476  0.65870  1.0000
  H   H509      1.0  0.04983  0.41290  0.63855  1.0000
  C   C292      1.0  0.00437  0.23383  0.59886  1.0000
  H   H510      1.0  0.02234  0.38443  0.63698  1.0000
  H   H511      1.0  0.29506  0.98740  0.63121  1.0000
  H   H512      1.0  0.09653  0.18537  0.52107  1.0000
  C   C293      1.0  0.23179  0.99643  0.54464  1.0000
  C   C294      1.0  0.00581  0.16735  0.51752  1.0000
  H   H513      1.0  0.04913  0.37534  0.63993  1.0000
  H   H514      1.0  0.15388  0.38209  0.56709  1.0000
  H   H515      1.0  0.03530  0.28695  0.71039  1.0000
  H   H516      1.0  0.15318  0.39304  0.62410  1.0000
  N   N17       1.0  0.15086  0.14489  0.49099  1.0000
  H   H517      1.0  0.17633  0.42939  0.71926  1.0000
  H   H518      1.0  0.01216  0.22411  0.58897  1.0000
  C   C295      1.0  0.15011  0.21452  0.48623  1.0000
  H   H519      1.0  0.03810  0.20332  0.60044  1.0000
  H   H520      1.0  0.12380  0.38631  0.61821  1.0000
  H   H521      1.0  0.12162  0.13634  0.50404  1.0000
  H   H522      1.0  0.06853  0.38948  0.60996  1.0000
  H   H523      1.0  0.07056  0.32827  0.73047  1.0000
  H   H524      1.0  0.20223  0.16160  0.51223  1.0000
  H   H525      1.0  0.20471  0.15529  0.53466  1.0000
  H   H526      1.0  0.07393  0.19172  0.49877  1.0000
  H   H527      1.0  0.21908  0.17396  0.52173  1.0000
  C   C296      1.0  0.18379  0.39972  0.61545  1.0000
  C   C297      1.0  0.04474  0.45051  0.64643  1.0000
  H   H528      1.0  0.08413  0.39727  0.62390  1.0000
  H   H529      1.0  0.19150  0.38096  0.73128  1.0000
  C   C298      1.0  0.12878  0.41042  0.54912  1.0000
  H   H530      1.0  0.09025  0.44144  0.69298  1.0000
  C   C299      1.0  0.03751  0.20557  0.48765  1.0000
  H   H531      1.0  0.02465  0.21941  0.62581  1.0000
  H   H532      1.0  0.28465  0.10601  0.50394  1.0000
  H   H533      1.0  0.00894  0.29747  0.62466  1.0000
  H   H534      1.0  0.04932  0.16814  0.51114  1.0000
  H   H535      1.0  0.30620  0.11606  0.52302  1.0000
  C   C300      1.0  0.12203  0.39052  0.60451  1.0000
  H   H536      1.0  0.11971  0.40761  0.60264  1.0000
  H   H537      1.0  0.12872  0.37544  0.57176  1.0000
  H   H538      1.0  0.18380  0.31745  0.59078  1.0000
  H   H539      1.0  0.17885  0.41654  0.61299  1.0000
  H   H540      1.0  0.13996  0.41923  0.57042  1.0000
  H   H541      1.0  0.02614  0.45013  0.62573  1.0000
  C   C301      1.0  0.13872  0.38592  0.57496  1.0000
  H   H542      1.0  0.17145  0.37154  0.61757  1.0000
  H   H543      1.0  0.28599  0.11378  0.54074  1.0000
  C   C302      1.0  0.08357  0.42962  0.68794  1.0000
  C   C303      1.0  0.02718  0.46011  0.63546  1.0000
  H   H544      1.0  0.02142  0.45415  0.67377  1.0000
  H   H545      1.0  0.99790  0.38280  0.71936  1.0000
  H   H546      1.0  0.15165  0.16535  0.50968  1.0000
  C   C304      1.0  0.10778  0.22355  0.49687  1.0000
  H   H547      1.0  0.08782  0.38447  0.73264  1.0000
  C   C305      1.0  0.16062  0.12343  0.48756  1.0000
  C   C306      1.0  0.12287  0.47228  0.65165  1.0000
  C   C307      1.0  0.03220  0.31802  0.73060  1.0000
  H   H548      1.0  0.00558  0.24220  0.64167  1.0000
  H   H549      1.0  0.02762  0.35826  0.72943  1.0000
  C   C308      1.0  0.99368  0.24973  0.63343  1.0000
  H   H550      1.0  0.09146  0.22765  0.50100  1.0000
  H   H551      1.0  0.02161  0.18374  0.60601  1.0000
  H   H552      1.0  0.05738  0.27094  0.71850  1.0000
  H   H553      1.0  0.06012  0.35415  0.73421  1.0000
  H   H554      1.0  0.01620  0.25795  0.53003  1.0000
  C   C309      1.0  0.28685  0.05691  0.49675  1.0000
  H   H555      1.0  0.17413  0.14687  0.50683  1.0000
  H   H556      1.0  0.07703  0.45004  0.66548  1.0000
  H   H557      1.0  0.05921  0.44693  0.63756  1.0000
  H   H558      1.0  0.17540  0.11887  0.49321  1.0000
  H   H559      1.0  0.99665  0.33583  0.68852  1.0000
  H   H560      1.0  0.08846  0.41146  0.72627  1.0000
  H   H561      1.0  0.99984  0.42464  0.71348  1.0000
  C   C310      1.0  0.16102  0.46371  0.73426  1.0000
  C   C311      1.0  0.99734  0.26133  0.57413  1.0000
  C   C312      1.0  0.11861  0.39312  0.72924  1.0000
  C   C313      1.0  0.01495  0.20871  0.62258  1.0000
  H   H562      1.0  0.21836  0.00882  0.54414  1.0000
  S   S64       1.0  0.99847  0.15924  0.56590  1.0000
  H   H563      1.0  0.00411  0.25079  0.56458  1.0000
  H   H564      1.0  0.08729  0.14022  0.49243  1.0000
  H   H565      1.0  0.15197  0.47285  0.72436  1.0000
  C   C314      1.0  0.12929  0.41227  0.72929  1.0000
  H   H566      1.0  0.00328  0.14225  0.50347  1.0000
  C   C315      1.0  0.99341  0.15225  0.51237  1.0000
  H   H567      1.0  0.18232  0.17342  0.48648  1.0000
  C   C316      1.0  0.04407  0.29595  0.73325  1.0000
  H   H568      1.0  0.99516  0.17679  0.52639  1.0000
  H   H569      1.0  0.99996  0.23853  0.53839  1.0000
  H   H570      1.0  0.99201  0.17766  0.62616  1.0000
  H   H571      1.0  0.27786  0.97916  0.64973  1.0000
  H   H572      1.0  0.26868  0.98480  0.62922  1.0000
  H   H573      1.0  0.13967  0.26130  0.48654  1.0000
  H   H574      1.0  0.99733  0.25277  0.51764  1.0000
  H   H575      1.0  0.98973  0.31809  0.60115  1.0000
  C   C317      1.0  0.99586  0.35327  0.73491  1.0000
  H   H576      1.0  0.21656  0.12320  0.48650  1.0000
  S   S65       1.0  0.28511  0.37429  0.92279  1.0000
  Fe  Fe33      1.0  0.14295  0.35063  0.78898  1.0000
  S   S66       1.0  0.12144  0.34092  0.81217  1.0000
  S   S67       1.0  0.16368  0.32896  0.77261  1.0000
  Fe  Fe34      1.0  0.13255  0.39526  0.79381  1.0000
  S   S68       1.0  0.10955  0.38965  0.81693  1.0000
  S   S69       1.0  0.14137  0.42585  0.78282  1.0000
  Fe  Fe35      1.0  0.13438  0.36366  0.82480  1.0000
  S   S70       1.0  0.14342  0.36082  0.85180  1.0000
  Fe  Fe36      1.0  0.09882  0.36774  0.80240  1.0000
  S   S71       1.0  0.06677  0.36717  0.79513  1.0000
  S   S72       1.0  0.15756  0.37090  0.80229  1.0000
  S   S73       1.0  0.12006  0.37583  0.77845  1.0000
  Fe  Fe37      1.0  0.26721  0.39286  0.90264  1.0000
  S   S74       1.0  0.23833  0.37842  0.91129  1.0000
  S   S75       1.0  0.25886  0.42758  0.89757  1.0000
  S   S76       1.0  0.26746  0.33365  0.91334  1.0000
  Fe  Fe38      1.0  0.25129  0.35540  0.89324  1.0000
  S   S77       1.0  0.23612  0.34672  0.87162  1.0000
  Fe  Fe39      1.0  0.25705  0.35855  0.93051  1.0000
  S   S78       1.0  0.24385  0.35319  0.95848  1.0000
  S   S79       1.0  0.27955  0.37076  0.88354  1.0000
  C   C318      1.0  0.25472  0.36226  0.97444  1.0000
  C   C319      1.0  0.27350  0.37013  0.97082  1.0000
  C   C320      1.0  0.30490  0.41800  0.94286  1.0000
  H   H577      1.0  0.09187  0.40034  0.74790  1.0000
  H   H578      1.0  0.24796  0.46971  0.90243  1.0000
  C   C321      1.0  0.27423  0.44591  0.90051  1.0000
  C   C322      1.0  0.26455  0.46599  0.90232  1.0000
  H   H579      1.0  0.25615  0.30014  0.88041  1.0000
  H   H580      1.0  0.05325  0.31534  0.75980  1.0000
  H   H581      1.0  0.23140  0.38923  0.84996  1.0000
  C   C323      1.0  0.16929  0.35712  0.85712  1.0000
  C   C324      1.0  0.18625  0.34910  0.84615  1.0000
  C   C325      1.0  0.20642  0.34587  0.85094  1.0000
  C   C326      1.0  0.21008  0.35078  0.86667  1.0000
  C   C327      1.0  0.19309  0.35861  0.87775  1.0000
  C   C328      1.0  0.17285  0.36165  0.87303  1.0000
  H   H582      1.0  0.18374  0.34495  0.83412  1.0000
  H   H583      1.0  0.21930  0.33939  0.84240  1.0000
  H   H584      1.0  0.19553  0.36233  0.88996  1.0000
  H   H585      1.0  0.15988  0.36767  0.88173  1.0000
  H   H586      1.0  0.15794  0.47179  0.74580  1.0000
  C   C329      1.0  0.01495  0.36969  0.83048  1.0000
  C   C330      1.0  0.03582  0.36920  0.82306  1.0000
  C   C331      1.0  0.04109  0.36787  0.80561  1.0000
  C   C332      1.0  0.02535  0.36738  0.79571  1.0000
  C   C333      1.0  0.00461  0.36799  0.80307  1.0000
  H   H587      1.0  0.01092  0.37063  0.84398  1.0000
  H   H588      1.0  0.04768  0.37005  0.83078  1.0000
  H   H589      1.0  0.02920  0.36664  0.78219  1.0000
  H   H590      1.0  0.02138  0.30316  0.76408  1.0000
  C   C334      1.0  0.04717  0.33057  0.75328  1.0000
  H   H591      1.0  0.26097  0.40553  0.85428  1.0000
  H   H592      1.0  0.99984  0.31518  0.75381  1.0000
  C   C335      1.0  0.14459  0.43891  0.79950  1.0000
  C   C336      1.0  0.14165  0.42980  0.81640  1.0000
  C   C337      1.0  0.14280  0.44086  0.82977  1.0000
  C   C338      1.0  0.20803  0.45849  0.81648  1.0000
  C   C339      1.0  0.08367  0.33965  0.74950  1.0000
  H   H593      1.0  0.13842  0.41426  0.81927  1.0000
  H   H594      1.0  0.13993  0.43394  0.84284  1.0000
  H   H595      1.0  0.28204  0.37010  0.95826  1.0000
  H   H596      1.0  0.99280  0.36738  0.79527  1.0000
  H   H597      1.0  0.06747  0.41931  0.76744  1.0000
  H   H598      1.0  0.26759  0.40870  0.95493  1.0000
  H   H599      1.0  0.23322  0.42856  0.83985  1.0000
  H   H600      1.0  0.13071  0.34313  0.75092  1.0000
  C   C340      1.0  0.30737  0.45677  0.90181  1.0000
  C   C341      1.0  0.23098  0.41752  0.83130  1.0000
  H   H601      1.0  0.99917  0.42810  0.84197  1.0000
  H   H602      1.0  0.20762  0.41081  0.92877  1.0000
  C   C342      1.0  0.02142  0.42763  0.80974  1.0000
  N   N18       1.0  0.24566  0.43660  0.95550  1.0000
  H   H603      1.0  0.20347  0.40224  0.79660  1.0000
  H   H604      1.0  0.29034  0.32517  0.80267  1.0000
  C   C343      1.0  0.05508  0.42943  0.79222  1.0000
  C   C344      1.0  0.22631  0.40781  0.94959  1.0000
  H   H605      1.0  0.25232  0.46236  0.86870  1.0000
  C   C345      1.0  0.29570  0.44129  0.90031  1.0000
  H   H606      1.0  0.18582  0.47514  0.89185  1.0000
  C   C346      1.0  0.99722  0.41464  0.76454  1.0000
  H   H607      1.0  0.24306  0.41406  0.97787  1.0000
  C   C347      1.0  0.02641  0.43670  0.82514  1.0000
  C   C348      1.0  0.00191  0.42391  0.77969  1.0000
  H   H608      1.0  0.13802  0.44432  0.74378  1.0000
  H   H609      1.0  0.31115  0.29658  0.91084  1.0000
  H   H610      1.0  0.05906  0.41302  0.79750  1.0000
  C   C349      1.0  0.28489  0.30829  0.86611  1.0000
  C   C350      1.0  0.20438  0.43669  0.81406  1.0000
  H   H611      1.0  0.27661  0.29897  0.89327  1.0000
  C   C351      1.0  0.16347  0.33306  0.75034  1.0000
  H   H612      1.0  0.03233  0.40655  0.78190  1.0000
  H   H613      1.0  0.29569  0.29980  0.81385  1.0000
  H   H614      1.0  0.22862  0.39815  0.80358  1.0000
  C   C352      1.0  0.25523  0.46812  0.85494  1.0000
  H   H615      1.0  0.27889  0.32472  0.86682  1.0000
  H   H616      1.0  0.22530  0.43676  0.97932  1.0000
  C   C353      1.0  0.18212  0.32843  0.73991  1.0000
  H   H617      1.0  0.24297  0.38506  0.82891  1.0000
  C   C354      1.0  0.15151  0.46955  0.80928  1.0000
  C   C355      1.0  0.99922  0.36907  0.82050  1.0000
  N   N19       1.0  0.03196  0.43489  0.79237  1.0000
  H   H618      1.0  0.04326  0.43470  0.82587  1.0000
  C   C356      1.0  0.27308  0.29585  0.88084  1.0000
  H   H619      1.0  0.03198  0.42858  0.76651  1.0000
  H   H620      1.0  0.19172  0.40606  0.73743  1.0000
  H   H621      1.0  0.19486  0.46577  0.82498  1.0000
  H   H622      1.0  0.09206  0.44661  0.78230  1.0000
  N   N20       1.0  0.09264  0.31811  0.86370  1.0000
  C   C357      1.0  0.07632  0.31221  0.87809  1.0000
  C   C358      1.0  0.08822  0.31097  0.84768  1.0000
  C   C359      1.0  0.11328  0.30651  0.86805  1.0000
  C   C360      1.0  0.09394  0.34087  0.86107  1.0000
  C   C361      1.0  0.07356  0.35564  0.86540  1.0000
  C   C362      1.0  0.08056  0.31507  0.89613  1.0000
  C   C363      1.0  0.13190  0.30786  0.85377  1.0000
  C   C364      1.0  0.06843  0.32201  0.84020  1.0000
  C   C365      1.0  0.06503  0.31254  0.82472  1.0000
  C   C366      1.0  0.07597  0.37786  0.85855  1.0000
  C   C367      1.0  0.06090  0.31524  0.90892  1.0000
  H   H623      1.0  0.07939  0.35052  0.75918  1.0000
  H   H624      1.0  0.07463  0.29574  0.87852  1.0000
  H   H625      1.0  0.06079  0.32058  0.87595  1.0000
  H   H626      1.0  0.10095  0.31314  0.83719  1.0000
  H   H627      1.0  0.08753  0.29416  0.84982  1.0000
  H   H628      1.0  0.11218  0.28990  0.87186  1.0000
  H   H629      1.0  0.11766  0.31211  0.87929  1.0000
  H   H630      1.0  0.10520  0.34454  0.86889  1.0000
  H   H631      1.0  0.10045  0.34562  0.84770  1.0000
  H   H632      1.0  0.06937  0.35494  0.87939  1.0000
  H   H633      1.0  0.06026  0.35188  0.86013  1.0000
  H   H634      1.0  0.09209  0.30216  0.90080  1.0000
  H   H635      1.0  0.08696  0.32949  0.89605  1.0000
  H   H636      1.0  0.13142  0.32347  0.84679  1.0000
  H   H637      1.0  0.13160  0.29703  0.84449  1.0000
  H   H638      1.0  0.05440  0.32121  0.84964  1.0000
  H   H639      1.0  0.07014  0.33826  0.83570  1.0000
  H   H640      1.0  0.06300  0.29617  0.82829  1.0000
  H   H641      1.0  0.05084  0.32093  0.81957  1.0000
  H   H642      1.0  0.31777  0.29405  0.83697  1.0000
  H   H643      1.0  0.06197  0.38823  0.86321  1.0000
  H   H644      1.0  0.08973  0.38230  0.86282  1.0000
  H   H645      1.0  0.07764  0.37989  0.84443  1.0000
  H   H646      1.0  0.06462  0.31661  0.92176  1.0000
  H   H647      1.0  0.04917  0.32850  0.90525  1.0000
  H   H648      1.0  0.05427  0.30080  0.90959  1.0000
  H   H649      1.0  0.04116  0.46937  0.80589  1.0000
  C   C368      1.0  0.20962  0.47240  0.79950  1.0000
  C   C369      1.0  0.09059  0.43329  0.77588  1.0000
  C   C370      1.0  0.28857  0.44294  0.85210  1.0000
  H   H650      1.0  0.01995  0.45321  0.82445  1.0000
  H   H651      1.0  0.00432  0.39829  0.76500  1.0000
  H   H652      1.0  0.31089  0.30687  0.87991  1.0000
  C   C371      1.0  0.01332  0.31847  0.75936  1.0000
  H   H653      1.0  0.19623  0.32298  0.74557  1.0000
  H   H654      1.0  0.21271  0.47148  0.95168  1.0000
  H   H655      1.0  0.30602  0.40469  0.95295  1.0000
  H   H656      1.0  0.28743  0.43870  0.95966  1.0000
  H   H657      1.0  0.18460  0.39213  0.76791  1.0000
  H   H658      1.0  0.20769  0.37835  0.75742  1.0000
  H   H659      1.0  0.15394  0.40232  0.75294  1.0000
  N   N21       1.0  0.02760  0.32952  0.74595  1.0000
  H   H660      1.0  0.15403  0.28653  0.86787  1.0000
  H   H661      1.0  0.21924  0.46257  0.87665  1.0000
  H   H662      1.0  0.25860  0.45409  0.98169  1.0000
  H   H663      1.0  0.99392  0.43996  0.77912  1.0000
  C   C372      1.0  0.30713  0.31972  0.96920  1.0000
  C   C373      1.0  0.14522  0.33990  0.74287  1.0000
  H   H664      1.0  0.15420  0.31337  0.86958  1.0000
  H   H665      1.0  0.22269  0.46601  0.79045  1.0000
  H   H666      1.0  0.01785  0.33148  0.78210  1.0000
  H   H667      1.0  0.19500  0.47422  0.79373  1.0000
  H   H668      1.0  0.01958  0.43326  0.85270  1.0000
  C   C374      1.0  0.19058  0.38174  0.75803  1.0000
  C   C375      1.0  0.14773  0.46079  0.82623  1.0000
  S   S80       1.0  0.14956  0.47462  0.84288  1.0000
  C   C376      1.0  0.15263  0.30226  0.86089  1.0000
  H   H669      1.0  0.24939  0.45729  0.84805  1.0000
  C   C377      1.0  0.00495  0.32947  0.77535  1.0000
  C   C378      1.0  0.03831  0.47271  0.79244  1.0000
  H   H670      1.0  0.00440  0.43135  0.81018  1.0000
  H   H671      1.0  0.99921  0.30199  0.79275  1.0000
  H   H672      1.0  0.28441  0.47265  0.83800  1.0000
  C   C379      1.0  0.31404  0.47827  0.96707  1.0000
  N   N22       1.0  0.20842  0.42004  0.82867  1.0000
  C   C380      1.0  0.20223  0.40076  0.82426  1.0000
  C   C381      1.0  0.19456  0.42662  0.84429  1.0000
  H   H673      1.0  0.26934  0.38039  0.84775  1.0000
  C   C382      1.0  0.21271  0.39413  0.80677  1.0000
  C   C383      1.0  0.24602  0.45931  0.95050  1.0000
  C   C384      1.0  0.19627  0.41205  0.86106  1.0000
  C   C385      1.0  0.17943  0.41906  0.87515  1.0000
  C   C386      1.0  0.21421  0.37110  0.80629  1.0000
  H   H674      1.0  0.18513  0.40269  0.82402  1.0000
  H   H675      1.0  0.20513  0.38768  0.83428  1.0000
  H   H676      1.0  0.19759  0.44162  0.84715  1.0000
  H   H677      1.0  0.17815  0.42903  0.84192  1.0000
  H   H678      1.0  0.31552  0.22894  0.86339  1.0000
  C   C387      1.0  0.24094  0.39583  0.83858  1.0000
  H   H679      1.0  0.24079  0.42158  0.81908  1.0000
  H   H680      1.0  0.27262  0.40275  0.83254  1.0000
  H   H681      1.0  0.15258  0.46569  0.78288  1.0000
  C   C388      1.0  0.26230  0.39629  0.84355  1.0000
  H   H682      1.0  0.19441  0.39631  0.85943  1.0000
  H   H683      1.0  0.21144  0.41193  0.86552  1.0000
  H   H684      1.0  0.16382  0.41882  0.87159  1.0000
  H   H685      1.0  0.18121  0.40849  0.88709  1.0000
  H   H686      1.0  0.18063  0.43481  0.87756  1.0000
  H   H687      1.0  0.22249  0.45795  0.82210  1.0000
  H   H688      1.0  0.19880  0.36611  0.80997  1.0000
  H   H689      1.0  0.22010  0.36737  0.79320  1.0000
  H   H690      1.0  0.16551  0.30294  0.85026  1.0000
  H   H691      1.0  0.15600  0.38047  0.74244  1.0000
  C   C389      1.0  0.27915  0.46557  0.85097  1.0000
  Fe  Fe40      1.0  0.29482  0.35035  0.90468  1.0000
  H   H692      1.0  0.28356  0.43545  0.84220  1.0000
  H   H693      1.0  0.22497  0.36245  0.81511  1.0000
  H   H694      1.0  0.09957  0.43486  0.76301  1.0000
  H   H695      1.0  0.18814  0.43791  0.81124  1.0000
  H   H696      1.0  0.18415  0.36709  0.76180  1.0000
  H   H697      1.0  0.27725  0.27917  0.87990  1.0000
  C   C390      1.0  0.02558  0.42302  0.77972  1.0000
  H   H698      1.0  0.09737  0.41900  0.78326  1.0000
  H   H699      1.0  0.26475  0.42242  0.93461  1.0000
  H   H700      1.0  0.99513  0.41485  0.79135  1.0000
  H   H701      1.0  0.12404  0.41762  0.74196  1.0000
  H   H702      1.0  0.30071  0.34403  0.85169  1.0000
  C   C391      1.0  0.06797  0.43244  0.77442  1.0000
  H   H703      1.0  0.28891  0.32684  0.83334  1.0000
  C   C392      1.0  0.01776  0.35111  0.74047  1.0000
  H   H704      1.0  0.22937  0.43670  0.93384  1.0000
  H   H705      1.0  0.30573  0.44162  0.85008  1.0000
  H   H706      1.0  0.06095  0.43814  0.80083  1.0000
  H   H707      1.0  0.01683  0.36099  0.75073  1.0000
  H   H708      1.0  0.08963  0.32428  0.75578  1.0000
  C   C393      1.0  0.02523  0.45756  0.78747  1.0000
  C   C394      1.0  0.16089  0.39588  0.74095  1.0000
  H   H709      1.0  0.22333  0.47104  0.97129  1.0000
  C   C395      1.0  0.30166  0.31468  0.81004  1.0000
  H   H710      1.0  0.00313  0.42327  0.75233  1.0000
  H   H711      1.0  0.30338  0.42593  0.89869  1.0000
  H   H712      1.0  0.31097  0.46271  0.97278  1.0000
  H   H713      1.0  0.07833  0.31377  0.81451  1.0000
  H   H714      1.0  0.99598  0.34473  0.77195  1.0000
  C   C396      1.0  0.28134  0.37809  0.98348  1.0000
  H   H715      1.0  0.12447  0.38022  0.73842  1.0000
  C   C397      1.0  0.18467  0.39177  0.74065  1.0000
  H   H716      1.0  0.21434  0.43271  0.80219  1.0000
  H   H717      1.0  0.19281  0.41166  0.94969  1.0000
  H   H718      1.0  0.28620  0.44701  0.93745  1.0000
  H   H719      1.0  0.04382  0.34087  0.76342  1.0000
  H   H720      1.0  0.29576  0.38434  0.98047  1.0000
  C   C398      1.0  0.24163  0.43100  0.97455  1.0000
  C   C399      1.0  0.99065  0.31700  0.78800  1.0000
  C   C400      1.0  0.20710  0.40438  0.94241  1.0000
  C   C401      1.0  0.30431  0.32410  0.82576  1.0000
  H   H721      1.0  0.24007  0.39928  0.94261  1.0000
  H   H722      1.0  0.21291  0.43858  0.95352  1.0000
  C   C402      1.0  0.26555  0.42447  0.94808  1.0000
  C   C403      1.0  0.31734  0.32481  0.98373  1.0000
  C   C404      1.0  0.28588  0.43358  0.94744  1.0000
  H   H723      1.0  0.02482  0.41062  0.81227  1.0000
  C   C405      1.0  0.22808  0.43102  0.94774  1.0000
  C   C406      1.0  0.29765  0.47689  0.90368  1.0000
  H   H724      1.0  0.20649  0.38766  0.94350  1.0000
  H   H725      1.0  0.28561  0.47253  0.86047  1.0000
  H   H726      1.0  0.25940  0.46436  0.95472  1.0000
  H   H727      1.0  0.16366  0.43423  0.74912  1.0000
  H   H728      1.0  0.22489  0.40093  0.96309  1.0000
  H   H729      1.0  0.28394  0.43477  0.86484  1.0000
  H   H730      1.0  0.02519  0.46116  0.77344  1.0000
  C   C407      1.0  0.14987  0.45868  0.79594  1.0000
  H   H731      1.0  0.02243  0.40960  0.84354  1.0000
  H   H732      1.0  0.05364  0.47184  0.78451  1.0000
  H   H733      1.0  0.24840  0.46271  0.93636  1.0000
  H   H734      1.0  0.31912  0.42531  0.94158  1.0000
  C   C408      1.0  0.01625  0.42621  0.84183  1.0000
  H   H735      1.0  0.28132  0.30366  0.85424  1.0000
  H   H736      1.0  0.30928  0.33931  0.82127  1.0000
  H   H737      1.0  0.00883  0.46191  0.79284  1.0000
  H   H738      1.0  0.30410  0.41245  0.93057  1.0000
  C   C409      1.0  0.30845  0.30383  0.86709  1.0000
  H   H739      1.0  0.31264  0.28703  0.86683  1.0000
  H   H740      1.0  0.06178  0.44669  0.76668  1.0000
  H   H741      1.0  0.29865  0.47683  0.94515  1.0000
  H   H742      1.0  0.09627  0.34512  0.74000  1.0000
  H   H743      1.0  0.31664  0.31223  0.80167  1.0000
  H   H744      1.0  0.29100  0.32780  0.96942  1.0000
  H   H745      1.0  0.30868  0.37697  0.83585  1.0000
  H   H746      1.0  0.30690  0.30294  0.97022  1.0000
  H   H747      1.0  0.31719  0.37963  0.85585  1.0000
  H   H748      1.0  0.31544  0.34080  0.86862  1.0000
  C   C410      1.0  0.06508  0.33853  0.74049  1.0000
  H   H749      1.0  0.03437  0.28578  0.74202  1.0000
  C   C411      1.0  0.15472  0.44230  0.73880  1.0000
  C   C412      1.0  0.31646  0.33810  0.85509  1.0000
  H   H750      1.0  0.05875  0.29558  0.73853  1.0000
  C   C413      1.0  0.22651  0.47372  0.95720  1.0000
  H   H751      1.0  0.18326  0.47532  0.86969  1.0000
  H   H752      1.0  0.27120  0.42784  0.98461  1.0000
  C   C414      1.0  0.32068  0.31022  0.83608  1.0000
  H   H753      1.0  0.31601  0.32461  0.95677  1.0000
  H   H754      1.0  0.31872  0.34142  0.98128  1.0000
  C   C415      1.0  0.25604  0.43797  0.98550  1.0000
  H   H755      1.0  0.04959  0.50483  0.09754  1.0000
  S   S81       1.0  0.27271  0.59632  0.07453  1.0000
  C   C416      1.0  0.23275  0.59035  0.16562  1.0000
  Fe  Fe41      1.0  0.29745  0.54078  0.06477  1.0000
  S   S82       1.0  0.26329  0.55061  0.06820  1.0000
  H   H756      1.0  0.21570  0.52094  0.03796  1.0000
  Fe  Fe42      1.0  0.27003  0.57986  0.05241  1.0000
  S   S83       1.0  0.25140  0.59277  0.03079  1.0000
  Fe  Fe43      1.0  0.26829  0.56587  0.09018  1.0000
  S   S84       1.0  0.24768  0.55963  0.11546  1.0000
  C   C417      1.0  0.21437  0.53744  0.01306  1.0000
  H   H757      1.0  0.04038  0.52090  0.20612  1.0000
  Fe  Fe44      1.0  0.13027  0.55844  0.14880  1.0000
  S   S85       1.0  0.14690  0.53600  0.16744  1.0000
  S   S86       1.0  0.14892  0.57567  0.12663  1.0000
  Fe  Fe45      1.0  0.08756  0.55006  0.16734  1.0000
  S   S87       1.0  0.10174  0.52653  0.18714  1.0000
  S   S88       1.0  0.05253  0.55642  0.17392  1.0000
  Fe  Fe46      1.0  0.12336  0.54892  0.18775  1.0000
  S   S89       1.0  0.13575  0.55388  0.21146  1.0000
  Fe  Fe47      1.0  0.12390  0.51594  0.16515  1.0000
  H   H758      1.0  0.04240  0.51220  0.13510  1.0000
  S   S90       1.0  0.10814  0.57339  0.16938  1.0000
  S   S91       1.0  0.10823  0.53736  0.14506  1.0000
  C   C418      1.0  0.03242  0.55553  0.16176  1.0000
  C   C419      1.0  0.03556  0.55595  0.14403  1.0000
  C   C420      1.0  0.01230  0.55544  0.17035  1.0000
  H   H759      1.0  0.05099  0.55615  0.13724  1.0000
  H   H760      1.0  0.00974  0.55497  0.18402  1.0000
  H   H761      1.0  0.19721  0.61051  0.07758  1.0000
  H   H762      1.0  0.20231  0.57232  0.07883  1.0000
  H   H763      1.0  0.20087  0.59595  0.19251  1.0000
  C   C421      1.0  0.04034  0.50321  0.12498  1.0000
  H   H764      1.0  0.09396  0.49678  0.15901  1.0000
  H   H765      1.0  0.04172  0.52952  0.10535  1.0000
  C   C422      1.0  0.99806  0.48812  0.17253  1.0000
  H   H766      1.0  0.23094  0.53950  0.01111  1.0000
  H   H767      1.0  0.24335  0.59904  0.99571  1.0000
  H   H768      1.0  0.21832  0.53057  0.16918  1.0000
  H   H769      1.0  0.22347  0.57186  0.06256  1.0000
  H   H770      1.0  0.31267  0.63691  0.08000  1.0000
  H   H771      1.0  0.31439  0.72568  0.09184  1.0000
  H   H772      1.0  0.22485  0.56268  0.20331  1.0000
  C   C423      1.0  0.30113  0.61622  0.01109  1.0000
  C   C424      1.0  0.22024  0.56376  0.11763  1.0000
  C   C425      1.0  0.20928  0.58146  0.10972  1.0000
  C   C426      1.0  0.18745  0.58485  0.11252  1.0000
  C   C427      1.0  0.17636  0.57054  0.12313  1.0000
  C   C428      1.0  0.18733  0.55260  0.13068  1.0000
  C   C429      1.0  0.20915  0.54941  0.12820  1.0000
  H   H773      1.0  0.21768  0.59274  0.10174  1.0000
  H   H774      1.0  0.17910  0.59877  0.10662  1.0000
  H   H775      1.0  0.17902  0.54115  0.13845  1.0000
  H   H776      1.0  0.21749  0.53565  0.13435  1.0000
  C   C430      1.0  0.30920  0.73243  0.10387  1.0000
  C   C431      1.0  0.26824  0.55713  0.01771  1.0000
  C   C432      1.0  0.25762  0.57691  0.01445  1.0000
  H   H777      1.0  0.27240  0.55145  0.03027  1.0000
  H   H778      1.0  0.06009  0.57877  0.21062  1.0000
  H   H779      1.0  0.16745  0.48936  0.13370  1.0000
  H   H780      1.0  0.02094  0.55739  0.12131  1.0000
  C   C433      1.0  0.20661  0.53269  0.18055  1.0000
  H   H781      1.0  0.21295  0.52358  0.00734  1.0000
  H   H782      1.0  0.13666  0.60963  0.15886  1.0000
  H   H783      1.0  0.03739  0.55821  0.20787  1.0000
  H   H784      1.0  0.27915  0.61948  0.99339  1.0000
  C   C434      1.0  0.05004  0.51377  0.10815  1.0000
  C   C435      1.0  0.02919  0.55712  0.22104  1.0000
  C   C436      1.0  0.31763  0.75290  0.10402  1.0000
  H   H785      1.0  0.31360  0.75661  0.11737  1.0000
  H   H786      1.0  0.04382  0.59936  0.19980  1.0000
  C   C437      1.0  0.19658  0.59329  0.05647  1.0000
  H   H787      1.0  0.19892  0.56722  0.03305  1.0000
  H   H788      1.0  0.28094  0.52897  0.00755  1.0000
  H   H789      1.0  0.17013  0.53938  0.08823  1.0000
  H   H790      1.0  0.18899  0.58049  0.22864  1.0000
  H   H791      1.0  0.99236  0.49224  0.19936  1.0000
  C   C438      1.0  0.16654  0.55433  0.08038  1.0000
  C   C439      1.0  0.17756  0.55326  0.06195  1.0000
  H   H792      1.0  0.26263  0.60009  0.15605  1.0000
  H   H793      1.0  0.15956  0.60954  0.14351  1.0000
  N   N23       1.0  0.20066  0.55344  0.05923  1.0000
  H   H794      1.0  0.19262  0.58620  0.15099  1.0000
  N   N24       1.0  0.01678  0.57762  0.22457  1.0000
  H   H795      1.0  0.01625  0.49620  0.11251  1.0000
  C   C440      1.0  0.01706  0.50217  0.12463  1.0000
  H   H796      1.0  0.20628  0.49993  0.18700  1.0000
  C   C441      1.0  0.21525  0.53398  0.08692  1.0000
  H   H797      1.0  0.17094  0.56663  0.08642  1.0000
  C   C442      1.0  0.20310  0.61085  0.06382  1.0000
  H   H798      1.0  0.15763  0.59148  0.18126  1.0000
  H   H799      1.0  0.01481  0.58441  0.19743  1.0000
  H   H800      1.0  0.31461  0.72085  0.11430  1.0000
  H   H801      1.0  0.07669  0.60959  0.20468  1.0000
  C   C443      1.0  0.27326  0.54442  0.00476  1.0000
  C   C444      1.0  0.21198  0.53409  0.06807  1.0000
  C   C445      1.0  0.22230  0.57067  0.16849  1.0000
  C   C446      1.0  0.01851  0.55673  0.13503  1.0000
  H   H802      1.0  0.23223  0.59667  0.17778  1.0000
  H   H803      1.0  0.99146  0.51587  0.18518  1.0000
  H   H804      1.0  0.17943  0.59493  0.05863  1.0000
  C   C447      1.0  0.14302  0.55845  0.08077  1.0000
  N   N25       1.0  0.19984  0.57293  0.17620  1.0000
  C   C448      1.0  0.99832  0.55686  0.14370  1.0000
  H   H805      1.0  0.22507  0.54560  0.08795  1.0000
  H   H806      1.0  0.09102  0.55484  0.21910  1.0000
  C   C449      1.0  0.28554  0.73545  0.10660  1.0000
  H   H807      1.0  0.18629  0.55167  0.16478  1.0000
  H   H808      1.0  0.27957  0.74156  0.11888  1.0000
  H   H809      1.0  0.29763  0.63244  0.01368  1.0000
  C   C450      1.0  0.06385  0.60857  0.21531  1.0000
  C   C451      1.0  0.15368  0.60957  0.15726  1.0000
  H   H810      1.0  0.22026  0.60980  0.06211  1.0000
  H   H811      1.0  0.28001  0.50186  0.08548  1.0000
  H   H812      1.0  0.16977  0.56595  0.05343  1.0000
  H   H813      1.0  0.20059  0.53735  0.09530  1.0000
  H   H814      1.0  0.04156  0.55282  0.22954  1.0000
  C   C452      1.0  0.20563  0.57688  0.22362  1.0000
  H   H815      1.0  0.17385  0.53903  0.05812  1.0000
  H   H816      1.0  0.20108  0.55207  0.21114  1.0000
  H   H817      1.0  0.23205  0.55896  0.17630  1.0000
  C   C453      1.0  0.16387  0.59057  0.16772  1.0000
  H   H818      1.0  0.20181  0.59536  0.04259  1.0000
  H   H819      1.0  0.28000  0.72049  0.10694  1.0000
  H   H820      1.0  0.22513  0.60225  0.15645  1.0000
  H   H821      1.0  0.15681  0.62375  0.16158  1.0000
  H   H822      1.0  0.19073  0.49922  0.12341  1.0000
  C   C454      1.0  0.25192  0.58386  0.99816  1.0000
  H   H823      1.0  0.24194  0.50995  0.08646  1.0000
  S   S92       1.0  0.30401  0.56918  0.04724  1.0000
  H   H824      1.0  0.01610  0.50047  0.18838  1.0000
  H   H825      1.0  0.19662  0.62575  0.05710  1.0000
  C   C455      1.0  0.19670  0.58026  0.19352  1.0000
  C   C456      1.0  0.29597  0.61416  0.99345  1.0000
  H   H826      1.0  0.16628  0.50875  0.11559  1.0000
  C   C457      1.0  0.01757  0.53833  0.22323  1.0000
  H   H827      1.0  0.17739  0.55251  0.18672  1.0000
  H   H828      1.0  0.26424  0.57433  0.16695  1.0000
  C   C458      1.0  0.17586  0.49486  0.12126  1.0000
  S   S93       1.0  0.30265  0.55395  0.08790  1.0000
  H   H829      1.0  0.00877  0.51822  0.12343  1.0000
  C   C459      1.0  0.25549  0.58579  0.15815  1.0000
  H   H830      1.0  0.22794  0.53061  0.06125  1.0000
  C   C460      1.0  0.26843  0.55158  0.98830  1.0000
  C   C461      1.0  0.18788  0.58898  0.16454  1.0000
  H   H831      1.0  0.00608  0.54046  0.21422  1.0000
  N   N26       1.0  0.00656  0.48933  0.13955  1.0000
  C   C462      1.0  0.09703  0.55662  0.23058  1.0000
  C   C463      1.0  0.00532  0.58765  0.20974  1.0000
  H   H832      1.0  0.22388  0.56487  0.15588  1.0000
  H   H833      1.0  0.30770  0.50207  0.01289  1.0000
  C   C464      1.0  0.19521  0.51400  0.18399  1.0000
  C   C465      1.0  0.20791  0.55415  0.04032  1.0000
  C   C466      1.0  0.14071  0.49689  0.21465  1.0000
  H   H834      1.0  0.22439  0.55690  0.03761  1.0000
  H   H835      1.0  0.18003  0.58188  0.19879  1.0000
  H   H836      1.0  0.14183  0.50213  0.20076  1.0000
  H   H837      1.0  0.25682  0.57983  0.14568  1.0000
  C   C467      1.0  0.05000  0.59362  0.21205  1.0000
  C   C468      1.0  0.22652  0.51330  0.09399  1.0000
  H   H838      1.0  0.27922  0.74618  0.09602  1.0000
  C   C469      1.0  0.03210  0.59130  0.22688  1.0000
  C   C470      1.0  0.20637  0.57220  0.06494  1.0000
  C   C471      1.0  0.99536  0.55623  0.16141  1.0000
  C   C472      1.0  0.19147  0.55289  0.17712  1.0000
  H   H839      1.0  0.19006  0.53199  0.03328  1.0000
  H   H840      1.0  0.15882  0.57705  0.16383  1.0000
  C   C473      1.0  0.99962  0.49994  0.18723  1.0000
  H   H841      1.0  0.20414  0.52067  0.06745  1.0000
  Fe  Fe48      1.0  0.30681  0.58350  0.07055  1.0000
  H   H842      1.0  0.18824  0.51222  0.17257  1.0000
  C   C474      1.0  0.20805  0.56641  0.20749  1.0000
  H   H843      1.0  0.19161  0.60448  0.16536  1.0000
  H   H844      1.0  0.05489  0.62410  0.21612  1.0000
  S   S94       1.0  0.31013  0.50975  0.05563  1.0000
  H   H845      1.0  0.21747  0.50079  0.09367  1.0000
  H   H846      1.0  0.29925  0.59764  0.99189  1.0000
  H   H847      1.0  0.18284  0.51550  0.19499  1.0000
  H   H848      1.0  0.18808  0.48463  0.09733  1.0000
  H   H849      1.0  0.02390  0.50573  0.22103  1.0000
  H   H850      1.0  0.21506  0.53263  0.19149  1.0000
  H   H851      1.0  0.29165  0.60701  0.02097  1.0000
  C   C475      1.0  0.29901  0.48762  0.06495  1.0000
  H   H852      1.0  0.00324  0.60466  0.20920  1.0000
  H   H853      1.0  0.21355  0.56647  0.23358  1.0000
  H   H854      1.0  0.20537  0.55096  0.00631  1.0000
  C   C476      1.0  0.00807  0.49852  0.15543  1.0000
  H   H855      1.0  0.07073  0.60311  0.22732  1.0000
  H   H856      1.0  0.31133  0.53632  0.02178  1.0000
  H   H857      1.0  0.02452  0.49815  0.15719  1.0000
  H   H858      1.0  0.21269  0.59125  0.22098  1.0000
  S   S95       1.0  0.13693  0.48325  0.16271  1.0000
  H   H859      1.0  0.13745  0.54631  0.07521  1.0000
  C   C477      1.0  0.03257  0.51898  0.21945  1.0000
  C   C478      1.0  0.20635  0.53481  0.03206  1.0000
  H   H860      1.0  0.22890  0.51376  0.10739  1.0000
  H   H861      1.0  0.31707  0.53007  0.99126  1.0000
  H   H862      1.0  0.13561  0.55856  0.09418  1.0000
  C   C479      1.0  0.28449  0.48790  0.07957  1.0000
  H   H863      1.0  0.13820  0.57365  0.07363  1.0000
  C   C480      1.0  0.11833  0.55635  0.23032  1.0000
  H   H864      1.0  0.00114  0.51497  0.15410  1.0000
  H   H865      1.0  0.15395  0.50142  0.21959  1.0000
  H   H866      1.0  0.12614  0.50478  0.22111  1.0000
  H   H867      1.0  0.02414  0.60709  0.22851  1.0000
  H   H868      1.0  0.29731  0.49586  0.98702  1.0000
  H   H869      1.0  0.06647  0.51483  0.10902  1.0000
  H   H870      1.0  0.30825  0.76529  0.09634  1.0000
  H   H871      1.0  0.32077  0.74739  0.06918  1.0000
  C   C481      1.0  0.09847  0.48190  0.15461  1.0000
  H   H872      1.0  0.31771  0.61041  0.01219  1.0000
  H   H873      1.0  0.04918  0.48762  0.12712  1.0000
  H   H874      1.0  0.04448  0.51560  0.22833  1.0000
  H   H875      1.0  0.32080  0.79244  0.10561  1.0000
  H   H876      1.0  0.06757  0.47906  0.15071  1.0000
  Fe  Fe49      1.0  0.25910  0.84103  0.43316  1.0000
  S   S96       1.0  0.22557  0.85407  0.43714  1.0000
  S   S97       1.0  0.27654  0.82855  0.45551  1.0000
  Fe  Fe50      1.0  0.26204  0.84952  0.39482  1.0000
  S   S98       1.0  0.22836  0.86326  0.39584  1.0000
  S   S99       1.0  0.28181  0.85171  0.36898  1.0000
  Fe  Fe51      1.0  0.23435  0.87947  0.41702  1.0000
  S   S100      1.0  0.22136  0.91295  0.41880  1.0000
  Fe  Fe52      1.0  0.22216  0.83666  0.41582  1.0000
  S   S101      1.0  0.19193  0.82275  0.41998  1.0000
  S   S102      1.0  0.26816  0.86761  0.41460  1.0000
  S   S103      1.0  0.25549  0.82157  0.41324  1.0000
  Fe  Fe53      1.0  0.13601  0.72933  0.40507  1.0000
  S   S104      1.0  0.13764  0.69950  0.42267  1.0000
  S   S105      1.0  0.16602  0.74346  0.39689  1.0000
  Fe  Fe54      1.0  0.08944  0.73054  0.40370  1.0000
  S   S106      1.0  0.08822  0.70154  0.42153  1.0000
  S   S107      1.0  0.05968  0.74779  0.39441  1.0000
  Fe  Fe55      1.0  0.10811  0.71436  0.43642  1.0000
  S   S108      1.0  0.09732  0.71586  0.46439  1.0000
  Fe  Fe56      1.0  0.11750  0.68939  0.40574  1.0000
  S   S109      1.0  0.11852  0.65630  0.40040  1.0000
  S   S110      1.0  0.10738  0.74452  0.41976  1.0000
  S   S111      1.0  0.11801  0.71805  0.38704  1.0000
  H   H877      1.0  0.02364  0.71858  0.33839  1.0000
  Fe  Fe57      1.0  0.10500  0.58751  0.32884  1.0000
  S   S112      1.0  0.07247  0.58454  0.32518  1.0000
  S   S113      1.0  0.11095  0.61956  0.33223  1.0000
  Fe  Fe58      1.0  0.11999  0.54197  0.32391  1.0000
  S   S114      1.0  0.08859  0.53610  0.32067  1.0000
  S   S115      1.0  0.14662  0.51613  0.32126  1.0000
  Fe  Fe59      1.0  0.08692  0.56611  0.30376  1.0000
  S   S116      1.0  0.07353  0.56726  0.27898  1.0000
  Fe  Fe60      1.0  0.07793  0.55492  0.34219  1.0000
  S   S117      1.0  0.05634  0.54455  0.36488  1.0000
  S   S118      1.0  0.11911  0.57133  0.30591  1.0000
  S   S119      1.0  0.10961  0.55855  0.34702  1.0000
  H   H878      1.0  0.11026  0.49406  0.33053  1.0000
  H   H879      1.0  0.10668  0.76192  0.47804  1.0000
  C   C482      1.0  0.03006  0.51609  0.37014  1.0000
  C   C483      1.0  0.03909  0.53088  0.35851  1.0000
  C   C484      1.0  0.03355  0.53544  0.34205  1.0000
  C   C485      1.0  0.01816  0.52589  0.33750  1.0000
  H   H880      1.0  0.05667  0.52871  0.28940  1.0000
  H   H881      1.0  0.04054  0.54688  0.33306  1.0000
  C   C486      1.0  0.32100  0.85732  0.35388  1.0000
  C   C487      1.0  0.03874  0.73385  0.39590  1.0000
  C   C488      1.0  0.01910  0.74392  0.39238  1.0000
  H   H882      1.0  0.04426  0.67822  0.46932  1.0000
  C   C489      1.0  0.30915  0.84604  0.36683  1.0000
  C   C490      1.0  0.02520  0.70148  0.40069  1.0000
  C   C491      1.0  0.04158  0.71261  0.40016  1.0000
  H   H883      1.0  0.01676  0.76038  0.38903  1.0000
  H   H884      1.0  0.04094  0.53879  0.26219  1.0000
  H   H885      1.0  0.02771  0.68505  0.40402  1.0000
  H   H886      1.0  0.05659  0.70459  0.40253  1.0000
  C   C492      1.0  0.11638  0.64652  0.38124  1.0000
  C   C493      1.0  0.11836  0.65834  0.36530  1.0000
  C   C494      1.0  0.11673  0.64980  0.35047  1.0000
  C   C495      1.0  0.11300  0.62942  0.35136  1.0000
  C   C496      1.0  0.11097  0.61762  0.36730  1.0000
  C   C497      1.0  0.11285  0.62608  0.38210  1.0000
  H   H887      1.0  0.12155  0.67391  0.36439  1.0000
  H   H888      1.0  0.11862  0.65898  0.33819  1.0000
  H   H889      1.0  0.10821  0.60191  0.36821  1.0000
  H   H890      1.0  0.11149  0.61673  0.39434  1.0000
  H   H891      1.0  0.17823  0.86509  0.35200  1.0000
  H   H892      1.0  0.05707  0.71462  0.33958  1.0000
  C   C498      1.0  0.30027  0.81970  0.32166  1.0000
  H   H893      1.0  0.02495  0.69637  0.32747  1.0000
  H   H894      1.0  0.18229  0.80668  0.35629  1.0000
  C   C499      1.0  0.14952  0.81357  0.36374  1.0000
  N   N27       1.0  0.05226  0.68487  0.35332  1.0000
  H   H895      1.0  0.05103  0.71447  0.36205  1.0000
  C   C500      1.0  0.99162  0.59491  0.24812  1.0000
  H   H896      1.0  0.02079  0.71609  0.43394  1.0000
  C   C501      1.0  0.18544  0.80026  0.41377  1.0000
  C   C502      1.0  0.19991  0.78657  0.40483  1.0000
  C   C503      1.0  0.19374  0.76919  0.39988  1.0000
  C   C504      1.0  0.17314  0.76518  0.40393  1.0000
  C   C505      1.0  0.15876  0.77879  0.41301  1.0000
  C   C506      1.0  0.16488  0.79623  0.41784  1.0000
  H   H897      1.0  0.21580  0.78938  0.40168  1.0000
  H   H898      1.0  0.20499  0.75876  0.39284  1.0000
  H   H899      1.0  0.14286  0.77598  0.41615  1.0000
  H   H900      1.0  0.15355  0.80672  0.42474  1.0000
  C   C507      1.0  0.26982  0.93989  0.42680  1.0000
  C   C508      1.0  0.25763  0.92511  0.42479  1.0000
  C   C509      1.0  0.23725  0.93116  0.42121  1.0000
  C   C510      1.0  0.22920  0.95214  0.41974  1.0000
  H   H901      1.0  0.28551  0.93508  0.42964  1.0000
  H   H902      1.0  0.26384  0.90904  0.42620  1.0000
  H   H903      1.0  0.21343  0.95697  0.41703  1.0000
  C   C511      1.0  0.08348  0.55962  0.24565  1.0000
  C   C512      1.0  0.27190  0.84439  0.47187  1.0000
  C   C513      1.0  0.26283  0.86485  0.46890  1.0000
  H   H904      1.0  0.05121  0.73327  0.45519  1.0000
  H   H905      1.0  0.02429  0.58229  0.32781  1.0000
  H   H906      1.0  0.25887  0.87121  0.45638  1.0000
  C   C514      1.0  0.09017  0.49996  0.37232  1.0000
  H   H907      1.0  0.02889  0.55456  0.27845  1.0000
  C   C515      1.0  0.24142  0.96696  0.42170  1.0000
  H   H908      1.0  0.20570  0.84884  0.36624  1.0000
  H   H909      1.0  0.11858  0.56309  0.27177  1.0000
  C   C516      1.0  0.05904  0.67191  0.36925  1.0000
  C   C517      1.0  0.14338  0.48993  0.32359  1.0000
  C   C518      1.0  0.08324  0.70466  0.35335  1.0000
  S   S120      1.0  0.99056  0.49864  0.34318  1.0000
  H   H910      1.0  0.03812  0.65445  0.33849  1.0000
  H   H911      1.0  0.19053  0.89275  0.47287  1.0000
  C   C519      1.0  0.17744  0.85756  0.31906  1.0000
  N   N28       1.0  0.15008  0.48968  0.37494  1.0000
  H   H912      1.0  0.08587  0.73413  0.33778  1.0000
  H   H913      1.0  0.00989  0.53529  0.23646  1.0000
  C   C520      1.0  0.18513  0.84318  0.33423  1.0000
  C   C521      1.0  0.18342  0.73977  0.47875  1.0000
  H   H914      1.0  0.12394  0.51400  0.37722  1.0000
  H   H915      1.0  0.05968  0.68180  0.37919  1.0000
  C   C522      1.0  0.16628  0.50032  0.36313  1.0000
  C   C523      1.0  0.15892  0.76371  0.46233  1.0000
  H   H916      1.0  0.00891  0.56532  0.35938  1.0000
  C   C524      1.0  0.98881  0.73527  0.47998  1.0000
  H   H917      1.0  0.14472  0.49782  0.42711  1.0000
  H   H918      1.0  0.16542  0.68882  0.48301  1.0000
  H   H919      1.0  0.13013  0.79129  0.36061  1.0000
  H   H920      1.0  0.04889  0.50181  0.26995  1.0000
  H   H921      1.0  0.19955  0.70717  0.45866  1.0000
  C   C525      1.0  0.13555  0.70003  0.47459  1.0000
  H   H922      1.0  0.03438  0.51261  0.38289  1.0000
  H   H923      1.0  0.17973  0.87356  0.31979  1.0000
  H   H924      1.0  0.01769  0.68221  0.44468  1.0000
  H   H925      1.0  0.00394  0.61735  0.33338  1.0000
  H   H926      1.0  0.06858  0.49287  0.34242  1.0000
  C   C526      1.0  0.02891  0.68903  0.35470  1.0000
  H   H927      1.0  0.17824  0.54985  0.34901  1.0000
  H   H928      1.0  0.19498  0.77920  0.47344  1.0000
  H   H929      1.0  0.14558  0.82302  0.35175  1.0000
  H   H930      1.0  0.15652  0.85912  0.41363  1.0000
  H   H931      1.0  0.02915  0.49633  0.28666  1.0000
  H   H932      1.0  0.16075  0.85710  0.31870  1.0000
  N   N29       1.0  0.06012  0.48662  0.29341  1.0000
  H   H933      1.0  0.16703  0.49644  0.34995  1.0000
  H   H934      1.0  0.15674  0.85328  0.35019  1.0000
  H   H935      1.0  0.23081  0.77790  0.45840  1.0000
  C   C527      1.0  0.29967  0.90292  0.46058  1.0000
  C   C528      1.0  0.19577  0.76154  0.45185  1.0000
  H   H936      1.0  0.01067  0.63831  0.36154  1.0000
  C   C529      1.0  0.31235  0.89824  0.39691  1.0000
  C   C530      1.0  0.00263  0.73267  0.39268  1.0000
  H   H937      1.0  0.03038  0.58432  0.38357  1.0000
  H   H938      1.0  0.99049  0.56554  0.23984  1.0000
  H   H939      1.0  0.17616  0.48056  0.31769  1.0000
  C   C531      1.0  0.06006  0.67856  0.47238  1.0000
  H   H940      1.0  0.17575  0.72582  0.48256  1.0000
  H   H941      1.0  0.21446  0.89507  0.48039  1.0000
  C   C532      1.0  0.21807  0.78897  0.45325  1.0000
  C   C533      1.0  0.01553  0.50569  0.36522  1.0000
  H   H942      1.0  0.19320  0.76611  0.43832  1.0000
  H   H943      1.0  0.00020  0.57200  0.33221  1.0000
  N   N30       1.0  0.99217  0.72070  0.45111  1.0000
  H   H944      1.0  0.17201  0.74055  0.43778  1.0000
  H   H945      1.0  0.00170  0.57461  0.37921  1.0000
  H   H946      1.0  0.12310  0.77829  0.48377  1.0000
  H   H947      1.0  0.18120  0.52862  0.33684  1.0000
  H   H948      1.0  0.29936  0.88969  0.37593  1.0000
  H   H949      1.0  0.14244  0.55809  0.24529  1.0000
  H   H950      1.0  0.31313  0.90363  0.42784  1.0000
  C   C534      1.0  0.13871  0.48089  0.40737  1.0000
  H   H951      1.0  0.11505  0.51026  0.25328  1.0000
  H   H952      1.0  0.16920  0.48677  0.39518  1.0000
  H   H953      1.0  0.18856  0.71136  0.42218  1.0000
  H   H954      1.0  0.13796  0.87363  0.40023  1.0000
  C   C535      1.0  0.00099  0.68151  0.44885  1.0000
  C   C536      1.0  0.99587  0.70501  0.34239  1.0000
  N   N31       1.0  0.17919  0.74931  0.46102  1.0000
  C   C537      1.0  0.17691  0.73313  0.45026  1.0000
  H   H955      1.0  0.21502  0.88465  0.46083  1.0000
  C   C538      1.0  0.13928  0.75365  0.46943  1.0000
  H   H956      1.0  0.01135  0.56588  0.25114  1.0000
  H   H957      1.0  0.31024  0.82071  0.38683  1.0000
  H   H958      1.0  0.22107  0.79095  0.43912  1.0000
  H   H959      1.0  0.11606  0.51123  0.27549  1.0000
  H   H960      1.0  0.10594  0.72539  0.35121  1.0000
  H   H961      1.0  0.20984  0.72401  0.44061  1.0000
  C   C539      1.0  0.00256  0.57488  0.24104  1.0000
  H   H962      1.0  0.21800  0.80403  0.45771  1.0000
  C   C540      1.0  0.11542  0.70973  0.47906  1.0000
  C   C541      1.0  0.20647  0.73388  0.48184  1.0000
  C   C542      1.0  0.99821  0.60295  0.33966  1.0000
  H   H963      1.0  0.08702  0.69758  0.36616  1.0000
  C   C543      1.0  0.99025  0.61430  0.36803  1.0000
  H   H964      1.0  0.98890  0.70522  0.42988  1.0000
  H   H965      1.0  0.08006  0.51713  0.26803  1.0000
  C   C544      1.0  0.06172  0.67497  0.33761  1.0000
  C   C545      1.0  0.20672  0.88536  0.47390  1.0000
  H   H966      1.0  0.11742  0.78057  0.46199  1.0000
  H   H967      1.0  0.02646  0.61190  0.38128  1.0000
  H   H968      1.0  0.29985  0.90011  0.47460  1.0000
  H   H969      1.0  0.05608  0.50354  0.31519  1.0000
  C   C546      1.0  0.12598  0.55842  0.24534  1.0000
  C   C547      1.0  0.18086  0.53285  0.34983  1.0000
  H   H970      1.0  0.01300  0.53016  0.32516  1.0000
  H   H971      1.0  0.15834  0.88555  0.40573  1.0000
  C   C548      1.0  0.99845  0.57752  0.36577  1.0000
  H   H972      1.0  0.03174  0.52502  0.30044  1.0000
  H   H973      1.0  0.03524  0.58536  0.35175  1.0000
  H   H974      1.0  0.06707  0.56007  0.24576  1.0000
  C   C549      1.0  0.04533  0.65568  0.37832  1.0000
  S   S121      1.0  0.27782  0.97869  0.42813  1.0000
  H   H975      1.0  0.06187  0.61191  0.36470  1.0000
  H   H976      1.0  0.17512  0.80447  0.37850  1.0000
  H   H977      1.0  0.00980  0.58086  0.30153  1.0000
  H   H978      1.0  0.15944  0.77556  0.47068  1.0000
  H   H979      1.0  0.03115  0.61240  0.34904  1.0000
  H   H980      1.0  0.07770  0.49018  0.37446  1.0000
  C   C550      1.0  0.03116  0.53882  0.27473  1.0000
  C   C551      1.0  0.00585  0.71132  0.39654  1.0000
  H   H981      1.0  0.19608  0.52706  0.35440  1.0000
  H   H982      1.0  0.08592  0.50161  0.29688  1.0000
  H   H983      1.0  0.06561  0.58439  0.36718  1.0000
  H   H984      1.0  0.00471  0.64973  0.44414  1.0000
  C   C552      1.0  0.99411  0.63675  0.36232  1.0000
  H   H985      1.0  0.16399  0.83289  0.39357  1.0000
  H   H986      1.0  0.05826  0.63265  0.31745  1.0000
  C   C553      1.0  0.06196  0.64820  0.31801  1.0000
  H   H987      1.0  0.28778  0.83266  0.31908  1.0000
  H   H988      1.0  0.18197  0.49476  0.36692  1.0000
  H   H989      1.0  0.99779  0.66801  0.42627  1.0000
  C   C554      1.0  0.26179  0.96086  0.42526  1.0000
  N   N32       1.0  0.00324  0.59843  0.35775  1.0000
  H   H990      1.0  0.30972  0.81543  0.42193  1.0000
  H   H991      1.0  0.05891  0.68572  0.32591  1.0000
  C   C555      1.0  0.11136  0.50233  0.26633  1.0000
  C   C556      1.0  0.19984  0.83390  0.37043  1.0000
  H   H992      1.0  0.24908  0.80653  0.35981  1.0000
  C   C557      1.0  0.02215  0.74331  0.44436  1.0000
  H   H993      1.0  0.06245  0.59765  0.38559  1.0000
  H   H994      1.0  0.09324  0.69589  0.34369  1.0000
  C   C558      1.0  0.03382  0.59829  0.37497  1.0000
  H   H995      1.0  0.01579  0.53469  0.27368  1.0000
  H   H996      1.0  0.29405  0.80510  0.32197  1.0000
  C   C559      1.0  0.25866  0.87712  0.48224  1.0000
  H   H997      1.0  0.05769  0.65310  0.40253  1.0000
  C   C560      1.0  0.19198  0.70258  0.43459  1.0000
  H   H998      1.0  0.16649  0.87730  0.37626  1.0000
  C   C561      1.0  0.21588  0.81678  0.36274  1.0000
  C   C562      1.0  0.31313  0.88517  0.45223  1.0000
  H   H999      1.0  0.30502  0.85023  0.43000  1.0000
  C   C563      1.0  0.11245  0.56126  0.26040  1.0000
  H   H1000     1.0  0.30562  0.91761  0.45569  1.0000
  H   H1001     1.0  0.05385  0.65921  0.30851  1.0000
  H   H1002     1.0  0.00288  0.60206  0.25352  1.0000
  C   C564      1.0  0.04174  0.52384  0.28816  1.0000
  H   H1003     1.0  0.21534  0.81673  0.34902  1.0000
  H   H1004     1.0  0.14726  0.84752  0.37945  1.0000
  C   C565      1.0  0.08913  0.72627  0.35052  1.0000
  C   C566      1.0  0.08219  0.49109  0.28848  1.0000
  H   H1005     1.0  0.21284  0.80150  0.36934  1.0000
  H   H1006     1.0  0.13523  0.74498  0.45983  1.0000
  C   C567      1.0  0.01953  0.70289  0.33962  1.0000
  C   C568      1.0  0.23793  0.81913  0.36510  1.0000
  H   H1007     1.0  0.24212  0.83398  0.35838  1.0000
  H   H1008     1.0  0.23940  0.81837  0.37883  1.0000
  H   H1009     1.0  0.18478  0.86302  0.38971  1.0000
  H   H1010     1.0  0.20586  0.69097  0.43222  1.0000
  H   H1011     1.0  0.25685  0.97083  0.46480  1.0000
  H   H1012     1.0  0.20089  0.83077  0.38434  1.0000
  H   H1013     1.0  0.07514  0.66393  0.36656  1.0000
  C   C569      1.0  0.04471  0.50148  0.28392  1.0000
  C   C570      1.0  0.31890  0.82078  0.30783  1.0000
  C   C571      1.0  0.12890  0.49995  0.37074  1.0000
  C   C572      1.0  0.09110  0.56225  0.26056  1.0000
  C   C573      1.0  0.20707  0.86375  0.48360  1.0000
  C   C574      1.0  0.19608  0.71688  0.44665  1.0000
  C   C575      1.0  0.02613  0.59882  0.35747  1.0000
  C   C576      1.0  0.17214  0.81448  0.36646  1.0000
  C   C577      1.0  0.16368  0.84431  0.38195  1.0000
  C   C578      1.0  0.16867  0.86462  0.38675  1.0000
  C   C579      1.0  0.05730  0.59810  0.37293  1.0000
  N   N33       1.0  0.17755  0.83551  0.36714  1.0000
  C   C580      1.0  0.15443  0.87107  0.40254  1.0000
  H   H1014     1.0  0.15628  0.77223  0.44961  1.0000
  H   H1015     1.0  0.00863  0.49411  0.37415  1.0000
  C   C581      1.0  0.17362  0.84995  0.35124  1.0000
  H   H1016     1.0  0.20191  0.84392  0.33357  1.0000
  H   H1017     1.0  0.14866  0.53117  0.35718  1.0000
  H   H1018     1.0  0.01527  0.75218  0.45499  1.0000
  H   H1019     1.0  0.12956  0.50543  0.35686  1.0000
  H   H1020     1.0  0.01751  0.75233  0.43235  1.0000
  H   H1021     1.0  0.29505  0.88608  0.43181  1.0000
  H   H1022     1.0  0.09041  0.50836  0.35926  1.0000
  H   H1023     1.0  0.03718  0.48708  0.31595  1.0000
  H   H1024     1.0  0.15686  0.78527  0.35180  1.0000
  H   H1025     1.0  0.01085  0.60700  0.30433  1.0000
  H   H1026     1.0  0.05327  0.73313  0.43240  1.0000
  H   H1027     1.0  0.18285  0.82748  0.33263  1.0000
  H   H1028     1.0  0.25157  0.89292  0.47988  1.0000
  H   H1029     1.0  0.18626  0.85268  0.30703  1.0000
  H   H1030     1.0  0.16353  0.52915  0.37460  1.0000
  H   H1031     1.0  0.30759  0.87083  0.45877  1.0000
  H   H1032     1.0  0.21586  0.72523  0.47187  1.0000
  H   H1033     1.0  0.13839  0.81892  0.37454  1.0000
  H   H1034     1.0  0.02982  0.66319  0.38341  1.0000
  H   H1035     1.0  0.04447  0.63221  0.40020  1.0000
  C   C582      1.0  0.16341  0.52410  0.36201  1.0000
  H   H1036     1.0  0.31481  0.96967  0.38379  1.0000
  H   H1037     1.0  0.06277  0.64203  0.34487  1.0000
  C   C583      1.0  0.00943  0.51082  0.34896  1.0000
  H   H1038     1.0  0.06998  0.63401  0.38893  1.0000
  H   H1039     1.0  0.31367  0.81961  0.29550  1.0000
  H   H1040     1.0  0.29647  0.90234  0.40350  1.0000
  H   H1041     1.0  0.14015  0.69563  0.46193  1.0000
  H   H1042     1.0  0.08040  0.73548  0.36049  1.0000
  C   C584      1.0  0.11101  0.48672  0.37444  1.0000
  H   H1043     1.0  0.07885  0.67181  0.33702  1.0000
  H   H1044     1.0  0.02409  0.71151  0.45583  1.0000
  C   C585      1.0  0.15280  0.49188  0.39295  1.0000
  H   H1045     1.0  0.02267  0.69640  0.36638  1.0000
  H   H1046     1.0  0.08653  0.51122  0.38171  1.0000
  C   C586      1.0  0.05988  0.70535  0.35195  1.0000
  H   H1047     1.0  0.31981  0.97204  0.36131  1.0000
  C   C587      1.0  0.14638  0.79159  0.36260  1.0000
  H   H1048     1.0  0.19800  0.85532  0.47710  1.0000
  H   H1049     1.0  0.05043  0.75700  0.44107  1.0000
  H   H1050     1.0  0.14974  0.50830  0.39501  1.0000
  C   C588      1.0  0.00731  0.58616  0.32792  1.0000
  H   H1051     1.0  0.02204  0.67466  0.35642  1.0000
  H   H1052     1.0  0.07896  0.64787  0.31459  1.0000
  H   H1053     1.0  0.14940  0.78159  0.37460  1.0000
  C   C589      1.0  0.04569  0.74149  0.44323  1.0000
  C   C590      1.0  0.01509  0.72185  0.44645  1.0000
  H   H1054     1.0  0.06848  0.66267  0.47390  1.0000
  H   H1055     1.0  0.17870  0.69442  0.44027  1.0000
  H   H1056     1.0  0.30448  0.91575  0.37310  1.0000
  H   H1057     1.0  0.04302  0.64511  0.36959  1.0000
  C   C591      1.0  0.05509  0.65420  0.33593  1.0000
  C   C592      1.0  0.05499  0.64301  0.39341  1.0000
  C   C593      1.0  0.08814  0.50118  0.26998  1.0000
  C   C594      1.0  0.05399  0.48822  0.31221  1.0000
  H   H1058     1.0  0.22330  0.85600  0.48250  1.0000
  H   H1059     1.0  0.16448  0.72415  0.45643  1.0000
  C   C595      1.0  0.31045  0.89973  0.37795  1.0000
  C   C596      1.0  0.00328  0.59329  0.30953  1.0000
  H   H1060     1.0  0.06849  0.68743  0.46149  1.0000
  H   H1061     1.0  0.21127  0.75211  0.45109  1.0000
  C   C597      1.0  0.19720  0.78146  0.45931  1.0000
  H   H1062     1.0  0.00549  0.73575  0.48023  1.0000
  C   C598      1.0  0.99508  0.66453  0.44035  1.0000
  H   H1063     1.0  0.28338  0.90431  0.45800  1.0000
  H   H1064     1.0  0.31332  0.86998  0.34596  1.0000
  H   H1065     1.0  0.18488  0.79381  0.45503  1.0000
  H   H1066     1.0  0.14169  0.74310  0.48124  1.0000
  C   C599      1.0  0.31135  0.88753  0.43289  1.0000
  C   C600      1.0  0.12052  0.76970  0.47354  1.0000
  H   H1067     1.0  0.12044  0.48672  0.26723  1.0000
  H   H1068     1.0  0.99067  0.68990  0.34273  1.0000
  C   C601      1.0  0.12411  0.48307  0.32866  1.0000
  H   H1069     1.0  0.04624  0.47953  0.34747  1.0000
  H   H1070     1.0  0.08405  0.49277  0.26031  1.0000
  H   H1071     1.0  0.99877  0.67684  0.46280  1.0000
  H   H1072     1.0  0.21350  0.74788  0.48199  1.0000
  H   H1073     1.0  0.99611  0.70381  0.47595  1.0000
  H   H1074     1.0  0.98961  0.71137  0.35454  1.0000
  C   C602      1.0  0.14532  0.48168  0.42476  1.0000
  H   H1075     1.0  0.31503  0.85360  0.30399  1.0000
  H   H1076     1.0  0.03921  0.58565  0.23882  1.0000
  H   H1077     1.0  0.99205  0.61031  0.38179  1.0000
  H   H1078     1.0  0.12254  0.48881  0.40764  1.0000
  H   H1079     1.0  0.31082  0.86614  0.40175  1.0000
  H   H1080     1.0  0.30489  0.82022  0.33439  1.0000
  C   C603      1.0  0.31922  0.82969  0.37697  1.0000
  H   H1081     1.0  0.98897  0.64221  0.34962  1.0000
  H   H1082     1.0  0.98943  0.71560  0.33180  1.0000
  H   H1083     1.0  0.19883  0.61310  0.69032  1.0000
  Fe  Fe61      1.0  0.28368  0.85819  0.57244  1.0000
  S   S122      1.0  0.25564  0.85253  0.59110  1.0000
  H   H1084     1.0  0.21303  0.80796  0.53369  1.0000
  Fe  Fe62      1.0  0.25813  0.87025  0.54254  1.0000
  S   S123      1.0  0.22824  0.86575  0.55909  1.0000
  C   C604      1.0  0.01349  0.54696  0.70671  1.0000
  Fe  Fe63      1.0  0.24061  0.88185  0.57740  1.0000
  S   S124      1.0  0.21951  0.90599  0.59116  1.0000
  Fe  Fe64      1.0  0.24589  0.83681  0.57093  1.0000
  S   S125      1.0  0.23634  0.80458  0.57596  1.0000
  S   S126      1.0  0.26910  0.88843  0.56011  1.0000
  S   S127      1.0  0.27537  0.84036  0.55306  1.0000
  Fe  Fe65      1.0  0.14467  0.74051  0.56661  1.0000
  S   S128      1.0  0.16932  0.71353  0.56257  1.0000
  S   S129      1.0  0.15188  0.77304  0.56759  1.0000
  Fe  Fe66      1.0  0.10901  0.71465  0.56671  1.0000
  S   S130      1.0  0.13202  0.68651  0.56240  1.0000
  S   S131      1.0  0.07755  0.70354  0.57076  1.0000
  Fe  Fe67      1.0  0.14870  0.69519  0.58197  1.0000
  S   S132      1.0  0.15681  0.67462  0.60605  1.0000
  Fe  Fe68      1.0  0.14973  0.70743  0.54349  1.0000
  S   S133      1.0  0.16240  0.69855  0.51732  1.0000
  S   S134      1.0  0.12505  0.72256  0.58728  1.0000
  S   S135      1.0  0.12598  0.73529  0.54646  1.0000
  N   N34       1.0  0.30534  0.93299  0.60914  1.0000
  Fe  Fe69      1.0  0.13821  0.56267  0.64472  1.0000
  S   S136      1.0  0.11490  0.58054  0.66209  1.0000
  S   S137      1.0  0.15117  0.57895  0.61943  1.0000
  Fe  Fe70      1.0  0.13279  0.52163  0.66696  1.0000
  S   S138      1.0  0.10853  0.53677  0.68584  1.0000
  Fe  Fe71      1.0  0.09630  0.55531  0.66296  1.0000
  S   S139      1.0  0.06321  0.56642  0.65986  1.0000
  Fe  Fe72      1.0  0.12924  0.56067  0.68350  1.0000
  S   S140      1.0  0.13130  0.57674  0.70595  1.0000
  S   S141      1.0  0.11844  0.53827  0.64407  1.0000
  S   S142      1.0  0.15478  0.54466  0.66615  1.0000
  C   C605      1.0  0.27138  0.93449  0.52171  1.0000
  C   C606      1.0  0.13981  0.56092  0.72378  1.0000
  C   C607      1.0  0.29173  0.78919  0.58491  1.0000
  H   H1085     1.0  0.16595  0.71660  0.62254  1.0000
  C   C608      1.0  0.14543  0.53982  0.72346  1.0000
  H   H1086     1.0  0.26319  0.80924  0.60852  1.0000
  H   H1087     1.0  0.00355  0.70269  0.57119  1.0000
  H   H1088     1.0  0.14456  0.53304  0.71212  1.0000
  C   C609      1.0  0.04946  0.54589  0.66136  1.0000
  C   C610      1.0  0.03145  0.54874  0.65360  1.0000
  C   C611      1.0  0.01936  0.53301  0.65563  1.0000
  C   C612      1.0  0.02476  0.51475  0.66599  1.0000
  C   C613      1.0  0.04322  0.51151  0.67327  1.0000
  C   C614      1.0  0.05574  0.52709  0.67080  1.0000
  H   H1089     1.0  0.02679  0.56310  0.64602  1.0000
  S   S143      1.0  0.00732  0.49705  0.67097  1.0000
  H   H1090     1.0  0.04752  0.49728  0.68115  1.0000
  H   H1091     1.0  0.06980  0.52482  0.67668  1.0000
  C   C615      1.0  0.05223  0.71563  0.56780  1.0000
  C   C616      1.0  0.03622  0.70349  0.57085  1.0000
  C   C617      1.0  0.01575  0.71217  0.56866  1.0000
  C   C618      1.0  0.01107  0.73317  0.56348  1.0000
  C   C619      1.0  0.02707  0.74536  0.56047  1.0000
  C   C620      1.0  0.04763  0.73662  0.56253  1.0000
  H   H1092     1.0  0.03965  0.68727  0.57508  1.0000
  H   H1093     1.0  0.27023  0.91498  0.60263  1.0000
  H   H1094     1.0  0.02354  0.76163  0.55648  1.0000
  H   H1095     1.0  0.05984  0.74610  0.56015  1.0000
  C   C621      1.0  0.15326  0.64845  0.60942  1.0000
  C   C622      1.0  0.14984  0.63871  0.62617  1.0000
  C   C623      1.0  0.14832  0.61762  0.62937  1.0000
  C   C624      1.0  0.15093  0.60588  0.61585  1.0000
  C   C625      1.0  0.15411  0.61564  0.59909  1.0000
  C   C626      1.0  0.15495  0.63689  0.59586  1.0000
  H   H1096     1.0  0.14841  0.64759  0.63668  1.0000
  H   H1097     1.0  0.14532  0.61037  0.64227  1.0000
  H   H1098     1.0  0.15612  0.60671  0.58854  1.0000
  H   H1099     1.0  0.15770  0.64417  0.58290  1.0000
  C   C627      1.0  0.21294  0.79620  0.57285  1.0000
  C   C628      1.0  0.19468  0.80983  0.57097  1.0000
  C   C629      1.0  0.17636  0.80248  0.56896  1.0000
  C   C630      1.0  0.17593  0.78141  0.56895  1.0000
  C   C631      1.0  0.19421  0.76777  0.57077  1.0000
  C   C632      1.0  0.21254  0.77513  0.57275  1.0000
  H   H1100     1.0  0.19463  0.82600  0.57136  1.0000
  H   H1101     1.0  0.16230  0.81315  0.56770  1.0000
  H   H1102     1.0  0.19419  0.75151  0.57087  1.0000
  H   H1103     1.0  0.22651  0.76437  0.57429  1.0000
  C   C633      1.0  0.26318  0.86894  0.49864  1.0000
  C   C634      1.0  0.27279  0.84866  0.50150  1.0000
  H   H1104     1.0  0.27664  0.84237  0.51405  1.0000
  C   C635      1.0  0.22564  0.93010  0.59396  1.0000
  C   C636      1.0  0.21366  0.94009  0.60706  1.0000
  C   C637      1.0  0.31808  0.85392  0.62911  1.0000
  H   H1105     1.0  0.14810  0.87516  0.55604  1.0000
  C   C638      1.0  0.24518  0.95911  0.58675  1.0000
  C   C639      1.0  0.24147  0.93964  0.58368  1.0000
  H   H1106     1.0  0.20137  0.93295  0.61498  1.0000
  H   H1107     1.0  0.30690  0.80993  0.61697  1.0000
  C   C640      1.0  0.00997  0.52492  0.71323  1.0000
  H   H1108     1.0  0.25076  0.93208  0.57346  1.0000
  N   N35       1.0  0.18951  0.59049  0.67729  1.0000
  C   C641      1.0  0.16869  0.60200  0.67340  1.0000
  C   C642      1.0  0.19877  0.57644  0.66388  1.0000
  C   C643      1.0  0.18592  0.57715  0.69412  1.0000
  C   C644      1.0  0.15800  0.61802  0.68543  1.0000
  C   C645      1.0  0.20538  0.56347  0.70045  1.0000
  C   C646      1.0  0.19306  0.58303  0.64555  1.0000
  C   C647      1.0  0.20532  0.56874  0.63311  1.0000
  C   C648      1.0  0.13699  0.62812  0.68016  1.0000
  N   N36       1.0  0.19737  0.84463  0.51384  1.0000
  H   H1109     1.0  0.15778  0.59090  0.67323  1.0000
  H   H1110     1.0  0.16986  0.61071  0.66051  1.0000
  H   H1111     1.0  0.08720  0.64604  0.56848  1.0000
  H   H1112     1.0  0.19398  0.56094  0.66753  1.0000
  H   H1113     1.0  0.17437  0.56691  0.69338  1.0000
  H   H1114     1.0  0.17912  0.58648  0.70455  1.0000
  H   H1115     1.0  0.15515  0.61104  0.69882  1.0000
  H   H1116     1.0  0.16756  0.63040  0.68492  1.0000
  H   H1117     1.0  0.21560  0.57307  0.70449  1.0000
  H   H1118     1.0  0.21445  0.55457  0.69044  1.0000
  H   H1119     1.0  0.17641  0.58218  0.64550  1.0000
  H   H1120     1.0  0.22219  0.56927  0.63226  1.0000
  H   H1121     1.0  0.13890  0.63642  0.66709  1.0000
  H   H1122     1.0  0.03830  0.75781  0.51280  1.0000
  H   H1123     1.0  0.12949  0.63928  0.68907  1.0000
  H   H1124     1.0  0.30915  0.91675  0.58693  1.0000
  H   H1125     1.0  0.16283  0.85067  0.56216  1.0000
  C   C649      1.0  0.10196  0.66593  0.53059  1.0000
  H   H1126     1.0  0.20046  0.57368  0.62025  1.0000
  C   C650      1.0  0.14980  0.69616  0.48653  1.0000
  C   C651      1.0  0.06836  0.56587  0.71052  1.0000
  H   H1127     1.0  0.13940  0.76859  0.67725  1.0000
  N   N37       1.0  0.04493  0.68468  0.52086  1.0000
  C   C652      1.0  0.06608  0.68461  0.52601  1.0000
  C   C653      1.0  0.03234  0.70585  0.52112  1.0000
  C   C654      1.0  0.03395  0.67001  0.53393  1.0000
  C   C655      1.0  0.08015  0.66354  0.52772  1.0000
  C   C656      1.0  0.01101  0.66914  0.53206  1.0000
  C   C657      1.0  0.04431  0.72457  0.51666  1.0000
  C   C658      1.0  0.02949  0.74466  0.51440  1.0000
  H   H1128     1.0  0.24342  0.79405  0.51369  1.0000
  H   H1129     1.0  0.09287  0.66005  0.58461  1.0000
  H   H1130     1.0  0.06437  0.69065  0.53852  1.0000
  C   C659      1.0  0.19930  0.54818  0.71583  1.0000
  H   H1131     1.0  0.02004  0.70789  0.51264  1.0000
  H   H1132     1.0  0.02386  0.70767  0.53405  1.0000
  H   H1133     1.0  0.03434  0.67381  0.54701  1.0000
  H   H1134     1.0  0.04203  0.65403  0.53357  1.0000
  H   H1135     1.0  0.07389  0.65337  0.53886  1.0000
  H   H1136     1.0  0.03167  0.49195  0.63503  1.0000
  H   H1137     1.0  0.02768  0.54633  0.69728  1.0000
  H   H1138     1.0  0.02639  0.58140  0.69487  1.0000
  C   C660      1.0  0.20848  0.72073  0.49897  1.0000
  H   H1139     1.0  0.24857  0.79233  0.53538  1.0000
  N   N38       1.0  0.25338  0.95095  0.51805  1.0000
  H   H1140     1.0  0.24408  0.90249  0.62502  1.0000
  H   H1141     1.0  0.27621  0.94713  0.63838  1.0000
  C   C661      1.0  0.21745  0.95916  0.61019  1.0000
  S   S144      1.0  0.14338  0.48754  0.67394  1.0000
  H   H1142     1.0  0.04749  0.60861  0.68633  1.0000
  H   H1143     1.0  0.05604  0.57789  0.71530  1.0000
  N   N39       1.0  0.07407  0.60802  0.61500  1.0000
  C   C662      1.0  0.09156  0.59030  0.61441  1.0000
  C   C663      1.0  0.07331  0.61753  0.63115  1.0000
  C   C664      1.0  0.05406  0.59929  0.61598  1.0000
  C   C665      1.0  0.07585  0.62399  0.59954  1.0000
  C   C666      1.0  0.09808  0.62686  0.59086  1.0000
  C   C667      1.0  0.09208  0.57660  0.60015  1.0000
  H   H1144     1.0  0.06768  0.63921  0.60279  1.0000
  C   C668      1.0  0.09245  0.62721  0.63314  1.0000
  C   C669      1.0  0.09018  0.63493  0.65051  1.0000
  C   C670      1.0  0.09782  0.64616  0.57799  1.0000
  C   C671      1.0  0.11358  0.56459  0.59591  1.0000
  H   H1145     1.0  0.22489  0.71802  0.50144  1.0000
  H   H1146     1.0  0.09073  0.58004  0.62674  1.0000
  H   H1147     1.0  0.10684  0.59560  0.61318  1.0000
  H   H1148     1.0  0.06007  0.63011  0.63231  1.0000
  H   H1149     1.0  0.07073  0.60585  0.64240  1.0000
  H   H1150     1.0  0.05329  0.58619  0.62635  1.0000
  H   H1151     1.0  0.05348  0.59278  0.60404  1.0000
  H   H1152     1.0  0.06766  0.62045  0.58933  1.0000
  H   H1153     1.0  0.11114  0.65062  0.53348  1.0000
  H   H1154     1.0  0.10505  0.61366  0.58388  1.0000
  H   H1155     1.0  0.10864  0.62803  0.60007  1.0000
  H   H1156     1.0  0.08105  0.56535  0.60444  1.0000
  H   H1157     1.0  0.08742  0.58579  0.58827  1.0000
  H   H1158     1.0  0.29483  0.91499  0.63271  1.0000
  H   H1159     1.0  0.11881  0.71531  0.52011  1.0000
  H   H1160     1.0  0.10671  0.61594  0.63210  1.0000
  H   H1161     1.0  0.09415  0.64068  0.62339  1.0000
  H   H1162     1.0  0.08827  0.62219  0.66096  1.0000
  H   H1163     1.0  0.10430  0.64144  0.65167  1.0000
  H   H1164     1.0  0.07660  0.64712  0.65189  1.0000
  H   H1165     1.0  0.26002  0.90359  0.64124  1.0000
  H   H1166     1.0  0.29451  0.95195  0.52766  1.0000
  H   H1167     1.0  0.11316  0.55446  0.58613  1.0000
  H   H1168     1.0  0.12499  0.57523  0.59080  1.0000
  H   H1169     1.0  0.11877  0.55493  0.60742  1.0000
  C   C672      1.0  0.12777  0.77244  0.66813  1.0000
  H   H1170     1.0  0.30624  0.92814  0.71242  1.0000
  H   H1171     1.0  0.26208  0.93284  0.61806  1.0000
  H   H1172     1.0  0.00497  0.61860  0.67335  1.0000
  C   C673      1.0  0.23415  0.94067  0.52065  1.0000
  H   H1173     1.0  0.05327  0.72544  0.52720  1.0000
  C   C674      1.0  0.22513  0.81757  0.52825  1.0000
  H   H1174     1.0  0.28623  0.80451  0.57816  1.0000
  H   H1175     1.0  0.11366  0.64697  0.57118  1.0000
  C   C675      1.0  0.22760  0.93068  0.53902  1.0000
  H   H1176     1.0  0.22768  0.82625  0.53845  1.0000
  H   H1177     1.0  0.16803  0.87781  0.52782  1.0000
  H   H1178     1.0  0.17382  0.81412  0.53206  1.0000
  C   C676      1.0  0.20774  0.92128  0.54003  1.0000
  C   C677      1.0  0.01342  0.58811  0.68743  1.0000
  H   H1179     1.0  0.23620  0.92857  0.51199  1.0000
  C   C678      1.0  0.01465  0.61144  0.68346  1.0000
  H   H1180     1.0  0.08269  0.57276  0.70568  1.0000
  C   C679      1.0  0.12366  0.71119  0.50745  1.0000
  H   H1181     1.0  0.27187  0.92173  0.51399  1.0000
  H   H1182     1.0  0.26951  0.92762  0.53525  1.0000
  H   H1183     1.0  0.30153  0.90097  0.61506  1.0000
  C   C680      1.0  0.10947  0.71508  0.49555  1.0000
  H   H1184     1.0  0.00250  0.65754  0.55872  1.0000
  H   H1185     1.0  0.00059  0.61642  0.61839  1.0000
  H   H1186     1.0  0.23957  0.91810  0.54321  1.0000
  H   H1187     1.0  0.22470  0.94215  0.54819  1.0000
  C   C681      1.0  0.03373  0.61449  0.61892  1.0000
  H   H1188     1.0  0.03088  0.61783  0.63234  1.0000
  H   H1189     1.0  0.01858  0.48732  0.61809  1.0000
  H   H1190     1.0  0.17439  0.75928  0.60512  1.0000
  C   C682      1.0  0.00196  0.65344  0.54583  1.0000
  H   H1191     1.0  0.21343  0.53923  0.72066  1.0000
  H   H1192     1.0  0.21011  0.90910  0.53150  1.0000
  H   H1193     1.0  0.20350  0.91426  0.55331  1.0000
  H   H1194     1.0  0.19477  0.93322  0.53644  1.0000
  C   C683      1.0  0.01495  0.60547  0.61571  1.0000
  H   H1195     1.0  0.16742  0.84291  0.50657  1.0000
  H   H1196     1.0  0.31141  0.78125  0.56136  1.0000
  H   H1197     1.0  0.28026  0.81400  0.64136  1.0000
  C   C684      1.0  0.24509  0.80312  0.52389  1.0000
  C   C685      1.0  0.30533  0.93270  0.59032  1.0000
  H   H1198     1.0  0.29874  0.76179  0.60930  1.0000
  H   H1199     1.0  0.29647  0.94930  0.50540  1.0000
  H   H1200     1.0  0.21598  0.57369  0.66306  1.0000
  H   H1201     1.0  0.28060  0.95896  0.60755  1.0000
  H   H1202     1.0  0.08155  0.65588  0.51610  1.0000
  H   H1203     1.0  0.00954  0.66440  0.51963  1.0000
  C   C686      1.0  0.20432  0.60486  0.67896  1.0000
  H   H1204     1.0  0.20221  0.55274  0.63716  1.0000
  H   H1205     1.0  0.21366  0.64476  0.67745  1.0000
  H   H1206     1.0  0.19438  0.62977  0.65903  1.0000
  H   H1207     1.0  0.20347  0.70561  0.49887  1.0000
  H   H1208     1.0  0.27441  0.78865  0.62276  1.0000
  C   C687      1.0  0.04620  0.67735  0.50369  1.0000
  C   C688      1.0  0.20879  0.62074  0.66323  1.0000
  H   H1209     1.0  0.21965  0.59608  0.68142  1.0000
  H   H1210     1.0  0.21761  0.61282  0.65254  1.0000
  H   H1211     1.0  0.19587  0.59887  0.64060  1.0000
  H   H1212     1.0  0.03448  0.62912  0.61038  1.0000
  H   H1213     1.0  0.22050  0.95156  0.51699  1.0000
  H   H1214     1.0  0.12006  0.78843  0.66913  1.0000
  C   C689      1.0  0.31084  0.85550  0.61318  1.0000
  H   H1215     1.0  0.01660  0.55424  0.71751  1.0000
  C   C690      1.0  0.22200  0.63592  0.66711  1.0000
  H   H1216     1.0  0.22528  0.64689  0.65554  1.0000
  H   H1217     1.0  0.23699  0.62775  0.67095  1.0000
  C   C691      1.0  0.26031  0.90132  0.62772  1.0000
  H   H1218     1.0  0.07502  0.69521  0.51699  1.0000
  H   H1219     1.0  0.05221  0.66067  0.50437  1.0000
  C   C692      1.0  0.19043  0.84956  0.53182  1.0000
  H   H1220     1.0  0.02409  0.51623  0.71825  1.0000
  H   H1221     1.0  0.07540  0.78813  0.59587  1.0000
  S   S145      1.0  0.25588  0.88429  0.51530  1.0000
  C   C693      1.0  0.27102  0.91764  0.61588  1.0000
  H   H1222     1.0  0.10138  0.67479  0.54145  1.0000
  H   H1223     1.0  0.14655  0.81427  0.51369  1.0000
  H   H1224     1.0  0.12494  0.82044  0.60884  1.0000
  H   H1225     1.0  0.14787  0.84365  0.61423  1.0000
  H   H1226     1.0  0.03047  0.67885  0.49983  1.0000
  H   H1227     1.0  0.14636  0.75430  0.65000  1.0000
  H   H1228     1.0  0.30519  0.96563  0.60840  1.0000
  H   H1229     1.0  0.11980  0.78417  0.59426  1.0000
  H   H1230     1.0  0.16734  0.82232  0.61961  1.0000
  H   H1231     1.0  0.00666  0.51720  0.70273  1.0000
  C   C694      1.0  0.15440  0.82770  0.61187  1.0000
  C   C695      1.0  0.08337  0.77206  0.59654  1.0000
  H   H1232     1.0  0.15189  0.79180  0.59962  1.0000
  H   H1233     1.0  0.07145  0.76160  0.59896  1.0000
  H   H1234     1.0  0.26599  0.97469  0.52733  1.0000
  H   H1235     1.0  0.25342  0.81588  0.63836  1.0000
  C   C696      1.0  0.11371  0.78217  0.60807  1.0000
  C   C697      1.0  0.13751  0.81389  0.61668  1.0000
  H   H1236     1.0  0.10498  0.79730  0.61081  1.0000
  H   H1237     1.0  0.09273  0.76955  0.58407  1.0000
  C   C698      1.0  0.27511  0.80485  0.61737  1.0000
  H   H1238     1.0  0.16999  0.75201  0.62769  1.0000
  H   H1239     1.0  0.20689  0.87473  0.50779  1.0000
  C   C699      1.0  0.14619  0.79151  0.61344  1.0000
  C   C700      1.0  0.09716  0.76744  0.61079  1.0000
  H   H1240     1.0  0.14057  0.75296  0.60112  1.0000
  H   H1241     1.0  0.13154  0.81473  0.63031  1.0000
  H   H1242     1.0  0.10414  0.75114  0.61117  1.0000
  H   H1243     1.0  0.16055  0.82787  0.59816  1.0000
  C   C701      1.0  0.14396  0.70200  0.50294  1.0000
  H   H1244     1.0  0.26876  0.83466  0.62685  1.0000
  C   C702      1.0  0.29395  0.91613  0.61880  1.0000
  H   H1245     1.0  0.11607  0.76180  0.67179  1.0000
  C   C703      1.0  0.07254  0.54819  0.72462  1.0000
  H   H1246     1.0  0.00397  0.59054  0.71881  1.0000
  N   N40       1.0  0.13150  0.77586  0.61857  1.0000
  C   C704      1.0  0.14218  0.75487  0.61441  1.0000
  H   H1247     1.0  0.16027  0.78719  0.61994  1.0000
  H   H1248     1.0  0.19061  0.72390  0.61293  1.0000
  C   C705      1.0  0.16139  0.80368  0.51223  1.0000
  H   H1249     1.0  0.02167  0.74548  0.50292  1.0000
  H   H1250     1.0  0.31602  0.73846  0.63360  1.0000
  H   H1251     1.0  0.19272  0.80092  0.51700  1.0000
  H   H1252     1.0  0.25729  0.96653  0.57887  1.0000
  H   H1253     1.0  0.16555  0.80104  0.49867  1.0000
  H   H1254     1.0  0.13453  0.74251  0.62258  1.0000
  H   H1255     1.0  0.08704  0.76930  0.62303  1.0000
  H   H1256     1.0  0.11241  0.76297  0.64050  1.0000
  H   H1257     1.0  0.06320  0.56007  0.69974  1.0000
  C   C706      1.0  0.13852  0.77035  0.65005  1.0000
  C   C707      1.0  0.27721  0.83643  0.48811  1.0000
  C   C708      1.0  0.29501  0.95383  0.61366  1.0000
  H   H1258     1.0  0.00132  0.68427  0.53316  1.0000
  H   H1259     1.0  0.15910  0.78878  0.51999  1.0000
  H   H1260     1.0  0.08401  0.53611  0.71894  1.0000
  C   C709      1.0  0.12266  0.77505  0.63709  1.0000
  C   C710      1.0  0.16584  0.74957  0.61532  1.0000
  H   H1261     1.0  0.11236  0.78960  0.63951  1.0000
  S   S146      1.0  0.31684  0.85622  0.57799  1.0000
  C   C711      1.0  0.17859  0.81244  0.51841  1.0000
  C   C712      1.0  0.17363  0.72724  0.61252  1.0000
  H   H1262     1.0  0.15026  0.78093  0.64727  1.0000
  H   H1263     1.0  0.17053  0.72435  0.59986  1.0000
  H   H1264     1.0  0.30242  0.94978  0.64018  1.0000
  H   H1265     1.0  0.00941  0.61933  0.69497  1.0000
  H   H1266     1.0  0.28943  0.93808  0.58684  1.0000
  H   H1267     1.0  0.31859  0.96156  0.58210  1.0000
  H   H1268     1.0  0.30745  0.91426  0.53363  1.0000
  H   H1269     1.0  0.03729  0.63210  0.67418  1.0000
  C   C713      1.0  0.29316  0.94139  0.51848  1.0000
  H   H1270     1.0  0.29460  0.85558  0.61252  1.0000
  H   H1271     1.0  0.01634  0.60258  0.60223  1.0000
  H   H1272     1.0  0.26839  0.88572  0.62563  1.0000
  H   H1273     1.0  0.00576  0.53513  0.64920  1.0000
  C   C714      1.0  0.31005  0.92290  0.52072  1.0000
  H   H1274     1.0  0.10999  0.67390  0.51896  1.0000
  C   C715      1.0  0.26910  0.81818  0.63186  1.0000
  H   H1275     1.0  0.17522  0.87354  0.55792  1.0000
  H   H1276     1.0  0.12662  0.61642  0.68061  1.0000
  C   C716      1.0  0.28230  0.97816  0.63591  1.0000
  H   H1277     1.0  0.25825  0.81188  0.51971  1.0000
  H   H1278     1.0  0.28444  0.82067  0.49041  1.0000
  H   H1279     1.0  0.11816  0.48804  0.64660  1.0000
  H   H1280     1.0  0.19012  0.53730  0.71220  1.0000
  H   H1281     1.0  0.04215  0.60850  0.66481  1.0000
  C   C717      1.0  0.25207  0.96672  0.53009  1.0000
  C   C718      1.0  0.23310  0.96885  0.60012  1.0000
  H   H1282     1.0  0.18844  0.82923  0.49464  1.0000
  C   C719      1.0  0.03679  0.61534  0.67683  1.0000
  H   H1283     1.0  0.01723  0.58151  0.67509  1.0000
  H   H1284     1.0  0.18197  0.87343  0.50214  1.0000
  H   H1285     1.0  0.01758  0.74606  0.52571  1.0000
  H   H1286     1.0  0.25244  0.95911  0.54342  1.0000
  C   C720      1.0  0.25768  0.96029  0.49967  1.0000
  C   C721      1.0  0.31800  0.77087  0.62538  1.0000
  H   H1287     1.0  0.27531  0.78604  0.55526  1.0000
  H   H1288     1.0  0.05799  0.54160  0.72902  1.0000
  H   H1289     1.0  0.30695  0.75938  0.57693  1.0000
  H   H1290     1.0  0.99656  0.55431  0.68515  1.0000
  H   H1291     1.0  0.27756  0.78360  0.59219  1.0000
  H   H1292     1.0  0.22223  0.82448  0.50108  1.0000
  C   C722      1.0  0.21911  0.83284  0.51251  1.0000
  C   C723      1.0  0.28920  0.95576  0.63294  1.0000
  H   H1293     1.0  0.09395  0.72264  0.49905  1.0000
  H   H1294     1.0  0.01063  0.63783  0.54473  1.0000
  H   H1295     1.0  0.05183  0.70472  0.48588  1.0000
  H   H1296     1.0  0.30412  0.77598  0.63420  1.0000
  H   H1297     1.0  0.05533  0.72366  0.50487  1.0000
  C   C724      1.0  0.18259  0.83305  0.50773  1.0000
  H   H1298     1.0  0.23075  0.84364  0.51042  1.0000
  H   H1299     1.0  0.30730  0.85272  0.64067  1.0000
  C   C725      1.0  0.29682  0.80782  0.60763  1.0000
  H   H1300     1.0  0.07526  0.68811  0.49111  1.0000
  H   H1301     1.0  0.29493  0.82288  0.59948  1.0000
  C   C726      1.0  0.19786  0.86484  0.50252  1.0000
  H   H1302     1.0  0.26759  0.97250  0.49872  1.0000
  C   C727      1.0  0.16870  0.86234  0.53520  1.0000
  H   H1303     1.0  0.19030  0.83547  0.54098  1.0000
  N   N41       1.0  0.30686  0.79117  0.59687  1.0000
  H   H1304     1.0  0.19003  0.55628  0.72628  1.0000
  H   H1305     1.0  0.19888  0.72844  0.50950  1.0000
  H   H1306     1.0  0.27004  0.76432  0.57081  1.0000
  H   H1307     1.0  0.29952  0.95640  0.55885  1.0000
  H   H1308     1.0  0.15653  0.85445  0.53192  1.0000
  C   C728      1.0  0.16347  0.86557  0.55399  1.0000
  C   C729      1.0  0.28228  0.77121  0.56180  1.0000
  H   H1309     1.0  0.01336  0.59087  0.62413  1.0000
  H   H1310     1.0  0.26679  0.94859  0.49176  1.0000
  H   H1311     1.0  0.28844  0.76070  0.55206  1.0000
  C   C730      1.0  0.31206  0.77063  0.60730  1.0000
  H   H1312     1.0  0.20185  0.85802  0.53570  1.0000
  C   C731      1.0  0.29980  0.77455  0.57116  1.0000
  H   H1313     1.0  0.20805  0.96653  0.62050  1.0000
  C   C732      1.0  0.03125  0.48096  0.62592  1.0000
  C   C733      1.0  0.99486  0.55920  0.69808  1.0000
  H   H1314     1.0  0.31841  0.96046  0.69889  1.0000
  H   H1315     1.0  0.17619  0.75018  0.48840  1.0000
  H   H1316     1.0  0.32153  0.81214  0.57746  1.0000
  C   C734      1.0  0.31550  0.94833  0.55993  1.0000
  H   H1317     1.0  0.31017  0.91244  0.51106  1.0000
  C   C735      1.0  0.23882  0.96932  0.49003  1.0000
  C   C736      1.0  0.32008  0.94600  0.57833  1.0000
  H   H1318     1.0  0.04618  0.47943  0.61740  1.0000
  H   H1319     1.0  0.21845  0.97786  0.53087  1.0000
  C   C737      1.0  0.98910  0.59009  0.71392  1.0000
  C   C738      1.0  0.05911  0.68859  0.48859  1.0000
  H   H1320     1.0  0.99675  0.52469  0.72359  1.0000
  H   H1321     1.0  0.31724  0.93306  0.55545  1.0000
  N   N42       1.0  0.99313  0.58223  0.69673  1.0000
  H   H1322     1.0  0.32013  0.93793  0.72653  1.0000
  H   H1323     1.0  0.23096  0.95669  0.48755  1.0000
  H   H1324     1.0  0.09768  0.55727  0.73483  1.0000
  Fe  Fe73      1.0  0.14763  0.50735  0.83125  1.0000
  S   S147      1.0  0.14175  0.53550  0.84463  1.0000
  H   H1325     1.0  0.26381  0.52789  0.84371  1.0000
  Fe  Fe74      1.0  0.15407  0.53030  0.79614  1.0000
  S   S148      1.0  0.14907  0.56089  0.80595  1.0000
  S   S149      1.0  0.16307  0.52024  0.76999  1.0000
  Fe  Fe75      1.0  0.16856  0.54545  0.82639  1.0000
  S   S150      1.0  0.19499  0.56005  0.83245  1.0000
  Fe  Fe76      1.0  0.12247  0.54889  0.82354  1.0000
  S   S151      1.0  0.09287  0.57051  0.82937  1.0000
  S   S152      1.0  0.17597  0.51611  0.81486  1.0000
  S   S153      1.0  0.12583  0.51974  0.81196  1.0000
  Fe  Fe77      1.0  0.29558  0.57348  0.91381  1.0000
  S   S154      1.0  0.26415  0.57547  0.92991  1.0000
  C   C739      1.0  0.24125  0.52458  0.80775  1.0000
  Fe  Fe78      1.0  0.29686  0.52716  0.91240  1.0000
  S   S155      1.0  0.26646  0.52658  0.92856  1.0000
  H   H1326     1.0  0.26383  0.53463  0.87419  1.0000
  Fe  Fe79      1.0  0.25572  0.55544  0.91222  1.0000
  S   S156      1.0  0.22349  0.55464  0.90547  1.0000
  Fe  Fe80      1.0  0.27771  0.54628  0.94450  1.0000
  S   S157      1.0  0.27561  0.53493  0.97260  1.0000
  S   S158      1.0  0.28594  0.55541  0.89502  1.0000
  H   H1327     1.0  0.28806  0.63859  0.94193  1.0000
  H   H1328     1.0  0.01990  0.54657  0.78233  1.0000
  H   H1329     1.0  0.12017  0.51013  0.77604  1.0000
  H   H1330     1.0  0.24321  0.64046  0.96377  1.0000
  C   C740      1.0  0.22936  0.49621  0.95224  1.0000
  C   C741      1.0  0.19035  0.48243  0.87873  1.0000
  C   C742      1.0  0.09112  0.52017  0.75227  1.0000
  H   H1331     1.0  0.31359  0.60064  0.94458  1.0000
  C   C743      1.0  0.08126  0.55525  0.73945  1.0000
  H   H1332     1.0  0.23065  0.53858  0.80359  1.0000
  H   H1333     1.0  0.27953  0.64635  0.96247  1.0000
  H   H1334     1.0  0.02636  0.60418  0.81317  1.0000
  C   C744      1.0  0.20450  0.55587  0.85239  1.0000
  C   C745      1.0  0.19486  0.54450  0.86653  1.0000
  C   C746      1.0  0.20131  0.54367  0.88266  1.0000
  C   C747      1.0  0.21783  0.55366  0.88469  1.0000
  C   C748      1.0  0.22818  0.56408  0.87037  1.0000
  C   C749      1.0  0.22146  0.56526  0.85431  1.0000
  H   H1335     1.0  0.18199  0.53695  0.86515  1.0000
  H   H1336     1.0  0.19324  0.53555  0.89368  1.0000
  H   H1337     1.0  0.24081  0.57196  0.87180  1.0000
  H   H1338     1.0  0.22906  0.57403  0.84342  1.0000
  C   C750      1.0  0.06863  0.56992  0.82250  1.0000
  C   C751      1.0  0.06151  0.55181  0.82024  1.0000
  C   C752      1.0  0.04125  0.55261  0.81589  1.0000
  C   C753      1.0  0.02842  0.57158  0.81342  1.0000
  C   C754      1.0  0.03601  0.58948  0.81518  1.0000
  C   C755      1.0  0.05571  0.58863  0.81995  1.0000
  H   H1339     1.0  0.07132  0.53723  0.82232  1.0000
  H   H1340     1.0  0.03561  0.53869  0.81443  1.0000
  H   H1341     1.0  0.06098  0.60267  0.82167  1.0000
  C   C756      1.0  0.14793  0.55719  0.75288  1.0000
  C   C757      1.0  0.23345  0.51625  0.82596  1.0000
  H   H1342     1.0  0.14904  0.56392  0.76417  1.0000
  C   C758      1.0  0.15375  0.53611  0.75249  1.0000
  H   H1343     1.0  0.04028  0.56368  0.74743  1.0000
  H   H1344     1.0  0.28193  0.48813  0.96242  1.0000
  C   C759      1.0  0.29773  0.48691  0.95522  1.0000
  C   C760      1.0  0.24911  0.62908  0.95468  1.0000
  N   N43       1.0  0.14770  0.59857  0.86584  1.0000
  C   C761      1.0  0.14967  0.60436  0.84676  1.0000
  C   C762      1.0  0.16813  0.59940  0.87192  1.0000
  C   C763      1.0  0.14375  0.57653  0.86944  1.0000
  C   C764      1.0  0.13015  0.61178  0.87529  1.0000
  C   C765      1.0  0.12500  0.63447  0.86746  1.0000
  C   C766      1.0  0.13143  0.60041  0.83802  1.0000
  C   C767      1.0  0.14346  0.56656  0.88826  1.0000
  C   C768      1.0  0.17603  0.62041  0.86906  1.0000
  C   C769      1.0  0.19814  0.61809  0.87348  1.0000
  C   C770      1.0  0.10960  0.64676  0.87975  1.0000
  C   C771      1.0  0.13150  0.61196  0.82008  1.0000
  C   C772      1.0  0.13598  0.54565  0.89077  1.0000
  H   H1345     1.0  0.16401  0.59562  0.84056  1.0000
  H   H1346     1.0  0.15175  0.62065  0.84318  1.0000
  H   H1347     1.0  0.16746  0.59463  0.88586  1.0000
  H   H1348     1.0  0.18041  0.58827  0.86582  1.0000
  H   H1349     1.0  0.15555  0.56676  0.86152  1.0000
  H   H1350     1.0  0.12852  0.57508  0.86566  1.0000
  H   H1351     1.0  0.11542  0.60520  0.87649  1.0000
  H   H1352     1.0  0.13318  0.61168  0.88864  1.0000
  H   H1353     1.0  0.11782  0.63533  0.85563  1.0000
  H   H1354     1.0  0.13890  0.64222  0.86412  1.0000
  H   H1355     1.0  0.13286  0.58381  0.83686  1.0000
  H   H1356     1.0  0.11621  0.60491  0.84549  1.0000
  H   H1357     1.0  0.13307  0.57640  0.89698  1.0000
  H   H1358     1.0  0.15925  0.56391  0.89211  1.0000
  H   H1359     1.0  0.17628  0.62755  0.85566  1.0000
  H   H1360     1.0  0.16618  0.63088  0.87757  1.0000
  H   H1361     1.0  0.20321  0.63341  0.87215  1.0000
  H   H1362     1.0  0.19905  0.61075  0.88679  1.0000
  H   H1363     1.0  0.20898  0.60860  0.86471  1.0000
  H   H1364     1.0  0.10580  0.66277  0.87368  1.0000
  H   H1365     1.0  0.09503  0.63991  0.88303  1.0000
  H   H1366     1.0  0.11635  0.64718  0.89160  1.0000
  H   H1367     1.0  0.12882  0.62878  0.82055  1.0000
  H   H1368     1.0  0.14651  0.60768  0.81219  1.0000
  H   H1369     1.0  0.11891  0.60788  0.81397  1.0000
  H   H1370     1.0  0.14651  0.53496  0.88280  1.0000
  H   H1371     1.0  0.13586  0.53894  0.90431  1.0000
  H   H1372     1.0  0.12002  0.54716  0.88736  1.0000
  C   C773      1.0  0.01981  0.55318  0.76877  1.0000
  H   H1373     1.0  0.15717  0.51117  0.73741  1.0000
  C   C774      1.0  0.24996  0.50411  0.86168  1.0000
  H   H1374     1.0  0.28423  0.51308  0.87619  1.0000
  S   S159      1.0  0.31280  0.49613  0.90509  1.0000
  H   H1375     1.0  0.03758  0.50534  0.79290  1.0000
  H   H1376     1.0  0.23808  0.61779  0.95621  1.0000
  H   H1377     1.0  0.10706  0.52142  0.74557  1.0000
  H   H1378     1.0  0.21735  0.51337  0.82602  1.0000
  C   C775      1.0  0.15254  0.52747  0.73776  1.0000
  H   H1379     1.0  0.13662  0.58593  0.73878  1.0000
  H   H1380     1.0  0.01491  0.54203  0.76167  1.0000
  H   H1381     1.0  0.24985  0.63697  0.94143  1.0000
  C   C776      1.0  0.30853  0.62741  0.97944  1.0000
  H   H1382     1.0  0.07340  0.57094  0.74127  1.0000
  H   H1383     1.0  0.23302  0.52828  0.83426  1.0000
  H   H1384     1.0  0.01266  0.49687  0.79798  1.0000
  C   C777      1.0  0.28664  0.63283  0.95582  1.0000
  C   C778      1.0  0.24714  0.49620  0.83230  1.0000
  H   H1385     1.0  0.00830  0.56735  0.76820  1.0000
  H   H1386     1.0  0.26349  0.49820  0.82790  1.0000
  H   H1387     1.0  0.27521  0.60627  0.94923  1.0000
  N   N44       1.0  0.30778  0.62435  0.96123  1.0000
  H   H1388     1.0  0.30195  0.59266  0.96524  1.0000
  C   C779      1.0  0.26861  0.51539  0.85372  1.0000
  H   H1389     1.0  0.25332  0.49597  0.87435  1.0000
  H   H1390     1.0  0.25699  0.52880  0.80707  1.0000
  C   C780      1.0  0.31964  0.65987  0.95073  1.0000
  H   H1391     1.0  0.23688  0.51646  0.86466  1.0000
  S   S160      1.0  0.30937  0.54507  0.92950  1.0000
  H   H1392     1.0  0.24158  0.51306  0.79893  1.0000
  H   H1393     1.0  0.21515  0.50625  0.95700  1.0000
  H   H1394     1.0  0.30345  0.66673  0.94919  1.0000
  H   H1395     1.0  0.21169  0.50399  0.85428  1.0000
  H   H1396     1.0  0.05241  0.52645  0.75880  1.0000
  H   H1397     1.0  0.28834  0.53500  0.86080  1.0000
  C   C781      1.0  0.11419  0.49687  0.77260  1.0000
  C   C782      1.0  0.02767  0.49488  0.78962  1.0000
  S   S161      1.0  0.30890  0.60389  0.90606  1.0000
  H   H1398     1.0  0.21241  0.48778  0.80158  1.0000
  H   H1399     1.0  0.31278  0.97547  0.79494  1.0000
  H   H1400     1.0  0.07905  0.58156  0.76380  1.0000
  C   C783      1.0  0.22079  0.48837  0.85607  1.0000
  C   C784      1.0  0.27045  0.61790  0.95824  1.0000
  H   H1401     1.0  0.02490  0.49925  0.77613  1.0000
  N   N45       1.0  0.07998  0.54108  0.75599  1.0000
  C   C785      1.0  0.27667  0.52511  0.86707  1.0000
  C   C786      1.0  0.09180  0.54843  0.76813  1.0000
  H   H1402     1.0  0.18411  0.49902  0.87798  1.0000
  C   C787      1.0  0.05793  0.53912  0.76376  1.0000
  C   C788      1.0  0.04123  0.55826  0.76108  1.0000
  H   H1403     1.0  0.26843  0.49677  0.90526  1.0000
  C   C789      1.0  0.09226  0.50306  0.76779  1.0000
  C   C790      1.0  0.08314  0.56952  0.77428  1.0000
  C   C791      1.0  0.09903  0.57704  0.78306  1.0000
  H   H1404     1.0  0.08335  0.51403  0.74309  1.0000
  N   N46       1.0  0.24368  0.48948  0.85124  1.0000
  H   H1405     1.0  0.10465  0.56510  0.79318  1.0000
  C   C792      1.0  0.31364  0.60211  0.95829  1.0000
  H   H1406     1.0  0.09269  0.53751  0.77998  1.0000
  H   H1407     1.0  0.10815  0.54883  0.76228  1.0000
  C   C793      1.0  0.27613  0.48135  0.90405  1.0000
  H   H1408     1.0  0.24257  0.49973  0.95792  1.0000
  H   H1409     1.0  0.23214  0.49980  0.93816  1.0000
  H   H1410     1.0  0.05723  0.53466  0.77778  1.0000
  H   H1411     1.0  0.25334  0.57670  0.97239  1.0000
  H   H1412     1.0  0.04430  0.57118  0.76714  1.0000
  H   H1413     1.0  0.28178  0.50518  0.84782  1.0000
  S   S162      1.0  0.00333  0.57462  0.80710  1.0000
  H   H1414     1.0  0.08730  0.48911  0.76445  1.0000
  H   H1415     1.0  0.08167  0.50721  0.77926  1.0000
  H   H1416     1.0  0.12487  0.49064  0.76188  1.0000
  H   H1417     1.0  0.06919  0.56803  0.78375  1.0000
  H   H1418     1.0  0.11243  0.58091  0.77369  1.0000
  H   H1419     1.0  0.09183  0.59101  0.78900  1.0000
  C   C794      1.0  0.31355  0.49251  0.98084  1.0000
  H   H1420     1.0  0.11408  0.48482  0.78376  1.0000
  H   H1421     1.0  0.24421  0.48403  0.82514  1.0000
  C   C795      1.0  0.14099  0.56959  0.73851  1.0000
  H   H1422     1.0  0.30053  0.50234  0.94884  1.0000
  H   H1423     1.0  0.30263  0.64361  0.98150  1.0000
  H   H1424     1.0  0.31707  0.50743  0.97372  1.0000
  H   H1425     1.0  0.15584  0.48469  0.80632  1.0000
  H   H1426     1.0  0.26892  0.60990  0.97130  1.0000
  H   H1427     1.0  0.22029  0.48682  0.88389  1.0000
  H   H1428     1.0  0.21525  0.47922  0.84750  1.0000
  C   C796      1.0  0.21396  0.47935  0.87467  1.0000
  C   C797      1.0  0.25760  0.57130  0.98499  1.0000
  Fe  Fe81      1.0  0.40304  0.24485  0.07528  1.0000
  S   S163      1.0  0.38582  0.21807  0.07687  1.0000
  S   S164      1.0  0.38998  0.27884  0.07656  1.0000
  Fe  Fe82      1.0  0.44494  0.21891  0.06488  1.0000
  S   S165      1.0  0.43061  0.19043  0.06510  1.0000
  S   S166      1.0  0.47902  0.21727  0.05438  1.0000
  Fe  Fe83      1.0  0.40563  0.21134  0.05238  1.0000
  S   S167      1.0  0.38990  0.20511  0.03082  1.0000
  Fe  Fe84      1.0  0.41223  0.19892  0.08963  1.0000
  S   S168      1.0  0.40476  0.17525  0.11260  1.0000
  S   S169      1.0  0.42134  0.23906  0.04999  1.0000
  S   S170      1.0  0.42807  0.22641  0.09027  1.0000
  Fe  Fe85      1.0  0.58533  0.23818  0.07120  1.0000
  S   S171      1.0  0.55207  0.24917  0.08208  1.0000
  S   S172      1.0  0.59117  0.21382  0.05396  1.0000
  S   S173      1.0  0.60943  0.07866  0.17850  1.0000
  S   S174      1.0  0.58814  0.03646  0.18110  1.0000
  Fe  Fe86      1.0  0.58062  0.06985  0.17179  1.0000
  S   S175      1.0  0.54949  0.08852  0.17733  1.0000
  Fe  Fe87      1.0  0.44219  0.05806  0.15181  1.0000
  S   S176      1.0  0.44050  0.06044  0.17969  1.0000
  S   S177      1.0  0.45034  0.08409  0.13107  1.0000
  Fe  Fe88      1.0  0.44026  0.01120  0.15866  1.0000
  S   S178      1.0  0.43785  0.01059  0.18692  1.0000
  C   C798      1.0  0.64026  0.33997  0.10575  1.0000
  Fe  Fe89      1.0  0.41615  0.03992  0.18322  1.0000
  S   S179      1.0  0.38876  0.04623  0.20306  1.0000
  Fe  Fe90      1.0  0.46227  0.03100  0.18121  1.0000
  S   S180      1.0  0.48813  0.02376  0.19734  1.0000
  S   S181      1.0  0.41600  0.03917  0.15504  1.0000
  S   S182      1.0  0.46643  0.02997  0.15317  1.0000
  H   H1429     1.0  0.46366  0.98894  0.22508  1.0000
  H   H1430     1.0  0.57039  0.11737  0.22979  1.0000
  H   H1431     1.0  0.45123  0.32063  0.03046  1.0000
  H   H1432     1.0  0.37918  0.07698  0.11808  1.0000
  C   C799      1.0  0.47347  0.08784  0.21684  1.0000
  H   H1433     1.0  0.64073  0.36794  0.07907  1.0000
  H   H1434     1.0  0.40727  0.12092  0.10018  1.0000
  C   C800      1.0  0.53179  0.07124  0.18350  1.0000
  C   C801      1.0  0.53634  0.05419  0.19544  1.0000
  C   C802      1.0  0.52267  0.03975  0.19988  1.0000
  C   C803      1.0  0.50465  0.04222  0.19213  1.0000
  C   C804      1.0  0.50011  0.05921  0.18011  1.0000
  C   C805      1.0  0.51357  0.07392  0.17597  1.0000
  H   H1435     1.0  0.55044  0.05212  0.20121  1.0000
  H   H1436     1.0  0.52621  0.02652  0.20908  1.0000
  H   H1437     1.0  0.48634  0.06095  0.17389  1.0000
  H   H1438     1.0  0.51023  0.08697  0.16653  1.0000
  C   C806      1.0  0.41868  0.13984  0.06966  1.0000
  C   C807      1.0  0.39481  0.05456  0.22143  1.0000
  S   S183      1.0  0.59736  0.00749  0.14086  1.0000
  H   H1439     1.0  0.37107  0.11000  0.09982  1.0000
  H   H1440     1.0  0.41583  0.01124  0.22475  1.0000
  H   H1441     1.0  0.34602  0.36777  0.03932  1.0000
  H   H1442     1.0  0.53442  0.04722  0.12775  1.0000
  C   C808      1.0  0.64414  0.32003  0.09708  1.0000
  H   H1443     1.0  0.52146  0.30606  0.03720  1.0000
  H   H1444     1.0  0.61506  0.05395  0.07953  1.0000
  S   S184      1.0  0.61603  0.24252  0.01059  1.0000
  C   C809      1.0  0.36352  0.29039  0.07713  1.0000
  C   C810      1.0  0.34719  0.27875  0.08046  1.0000
  H   H1445     1.0  0.37274  0.11022  0.21652  1.0000
  H   H1446     1.0  0.62496  0.34811  0.10257  1.0000
  H   H1447     1.0  0.42308  0.09915  0.19016  1.0000
  C   C811      1.0  0.35876  0.31193  0.07461  1.0000
  H   H1448     1.0  0.35054  0.26220  0.08247  1.0000
  H   H1449     1.0  0.41280  0.32850  0.03706  1.0000
  N   N47       1.0  0.65060  0.04926  0.09833  1.0000
  H   H1450     1.0  0.45463  0.15952  0.22852  1.0000
  C   C812      1.0  0.49887  0.22619  0.06260  1.0000
  C   C813      1.0  0.49574  0.23375  0.07836  1.0000
  C   C814      1.0  0.51212  0.24083  0.08423  1.0000
  C   C815      1.0  0.53173  0.24023  0.07445  1.0000
  C   C816      1.0  0.53471  0.23277  0.05869  1.0000
  C   C817      1.0  0.51840  0.22572  0.05285  1.0000
  H   H1451     1.0  0.48078  0.23400  0.08602  1.0000
  H   H1452     1.0  0.50966  0.24665  0.09642  1.0000
  H   H1453     1.0  0.54950  0.23269  0.05083  1.0000
  H   H1454     1.0  0.52093  0.21999  0.04061  1.0000
  C   C818      1.0  0.41852  0.15053  0.11839  1.0000
  C   C819      1.0  0.43766  0.14333  0.10958  1.0000
  C   C820      1.0  0.44730  0.12309  0.11385  1.0000
  C   C821      1.0  0.43808  0.10984  0.12708  1.0000
  C   C822      1.0  0.41933  0.11726  0.13631  1.0000
  C   C823      1.0  0.40960  0.13747  0.13194  1.0000
  H   H1455     1.0  0.44485  0.15326  0.09930  1.0000
  H   H1456     1.0  0.46190  0.11757  0.10673  1.0000
  H   H1457     1.0  0.41210  0.10731  0.14656  1.0000
  H   H1458     1.0  0.39485  0.14290  0.13891  1.0000
  H   H1459     1.0  0.62767  0.30153  0.11781  1.0000
  H   H1460     1.0  0.58586  0.04747  0.22095  1.0000
  H   H1461     1.0  0.51584  0.04727  0.14664  1.0000
  H   H1462     1.0  0.40618  0.10381  0.05945  1.0000
  H   H1463     1.0  0.36473  0.13173  0.05428  1.0000
  H   H1464     1.0  0.52054  0.31390  0.05814  1.0000
  H   H1465     1.0  0.54283  0.00964  0.13270  1.0000
  H   H1466     1.0  0.41743  0.10189  0.08652  1.0000
  C   C824      1.0  0.37393  0.11661  0.05778  1.0000
  C   C825      1.0  0.38621  0.10036  0.09702  1.0000
  C   C826      1.0  0.39109  0.08724  0.11367  1.0000
  C   C827      1.0  0.37345  0.10331  0.04383  1.0000
  H   H1467     1.0  0.36586  0.10955  0.06975  1.0000
  H   H1468     1.0  0.38491  0.08967  0.08792  1.0000
  H   H1469     1.0  0.40650  0.07761  0.11190  1.0000
  H   H1470     1.0  0.39097  0.09715  0.12372  1.0000
  H   H1471     1.0  0.56098  0.08135  0.21300  1.0000
  C   C828      1.0  0.42314  0.33883  0.03991  1.0000
  H   H1472     1.0  0.38705  0.09518  0.20052  1.0000
  N   N48       1.0  0.54351  0.17229  0.09984  1.0000
  C   C829      1.0  0.52293  0.16487  0.10058  1.0000
  C   C830      1.0  0.55830  0.15513  0.10785  1.0000
  C   C831      1.0  0.54027  0.19088  0.10922  1.0000
  C   C832      1.0  0.55261  0.17831  0.08171  1.0000
  C   C833      1.0  0.55442  0.16196  0.06938  1.0000
  C   C834      1.0  0.50640  0.17964  0.09111  1.0000
  C   C835      1.0  0.56019  0.19934  0.11133  1.0000
  C   C836      1.0  0.55301  0.14893  0.12731  1.0000
  C   C837      1.0  0.56928  0.13185  0.13407  1.0000
  C   C838      1.0  0.56353  0.16993  0.05142  1.0000
  C   C839      1.0  0.48666  0.17006  0.09199  1.0000
  C   C840      1.0  0.55517  0.21660  0.12262  1.0000
  H   H1473     1.0  0.51575  0.16204  0.11402  1.0000
  H   H1474     1.0  0.52508  0.14975  0.09568  1.0000
  H   H1475     1.0  0.55912  0.14100  0.10174  1.0000
  H   H1476     1.0  0.57440  0.15889  0.10538  1.0000
  H   H1477     1.0  0.53124  0.18787  0.12199  1.0000
  H   H1478     1.0  0.53060  0.20383  0.10241  1.0000
  H   H1479     1.0  0.54371  0.19274  0.07613  1.0000
  H   H1480     1.0  0.56851  0.18206  0.08136  1.0000
  H   H1481     1.0  0.53907  0.15779  0.06843  1.0000
  H   H1482     1.0  0.56476  0.14788  0.07366  1.0000
  H   H1483     1.0  0.50201  0.19404  0.09702  1.0000
  H   H1484     1.0  0.51207  0.18352  0.07746  1.0000
  H   H1485     1.0  0.56763  0.20567  0.09874  1.0000
  H   H1486     1.0  0.57164  0.18740  0.11723  1.0000
  H   H1487     1.0  0.55244  0.16204  0.13456  1.0000
  H   H1488     1.0  0.53787  0.14318  0.13019  1.0000
  H   H1489     1.0  0.56474  0.12717  0.14785  1.0000
  H   H1490     1.0  0.57068  0.11818  0.12728  1.0000
  H   H1491     1.0  0.58458  0.13731  0.13254  1.0000
  H   H1492     1.0  0.57971  0.17265  0.05136  1.0000
  H   H1493     1.0  0.56375  0.15837  0.04266  1.0000
  H   H1494     1.0  0.55411  0.18443  0.04659  1.0000
  H   H1495     1.0  0.47509  0.18105  0.08526  1.0000
  H   H1496     1.0  0.48998  0.15583  0.08573  1.0000
  H   H1497     1.0  0.47982  0.16644  0.10543  1.0000
  H   H1498     1.0  0.54349  0.22900  0.11747  1.0000
  H   H1499     1.0  0.54916  0.21064  0.13580  1.0000
  H   H1500     1.0  0.56945  0.22325  0.12301  1.0000
  N   N49       1.0  0.46213  0.29428  0.06027  1.0000
  C   C841      1.0  0.48164  0.30404  0.05526  1.0000
  C   C842      1.0  0.44311  0.31000  0.05796  1.0000
  C   C843      1.0  0.46132  0.28629  0.07902  1.0000
  C   C844      1.0  0.46226  0.27636  0.05062  1.0000
  C   C845      1.0  0.46475  0.28075  0.03094  1.0000
  C   C846      1.0  0.50231  0.28954  0.05745  1.0000
  C   C847      1.0  0.44059  0.27932  0.08787  1.0000
  H   H1501     1.0  0.64191  0.41258  0.11686  1.0000
  H   H1502     1.0  0.45351  0.01587  0.22114  1.0000
  C   C848      1.0  0.47022  0.26092  0.02271  1.0000
  C   C849      1.0  0.52101  0.30065  0.05103  1.0000
  C   C850      1.0  0.44240  0.26974  0.10623  1.0000
  H   H1503     1.0  0.48103  0.31698  0.06283  1.0000
  H   H1504     1.0  0.48291  0.31120  0.04183  1.0000
  H   H1505     1.0  0.42949  0.30216  0.05754  1.0000
  H   H1506     1.0  0.43888  0.31869  0.06920  1.0000
  H   H1507     1.0  0.46462  0.29818  0.08632  1.0000
  H   H1508     1.0  0.47356  0.27294  0.08110  1.0000
  H   H1509     1.0  0.47442  0.26360  0.05435  1.0000
  H   H1510     1.0  0.44762  0.26973  0.05427  1.0000
  H   H1511     1.0  0.64271  0.16247  0.10105  1.0000
  H   H1512     1.0  0.42770  0.04506  0.21648  1.0000
  H   H1513     1.0  0.50331  0.28379  0.07106  1.0000
  H   H1514     1.0  0.50392  0.27625  0.05021  1.0000
  H   H1515     1.0  0.43594  0.26784  0.08108  1.0000
  H   H1516     1.0  0.42789  0.29247  0.08832  1.0000
  C   C851      1.0  0.54780  0.98823  0.17257  1.0000
  C   C852      1.0  0.32319  0.33969  0.01542  1.0000
  C   C853      1.0  0.44453  0.32688  0.04245  1.0000
  C   C854      1.0  0.59065  0.06497  0.09810  1.0000
  H   H1517     1.0  0.40278  0.12775  0.21684  1.0000
  H   H1518     1.0  0.38170  0.08760  0.04702  1.0000
  C   C855      1.0  0.33272  0.30173  0.01694  1.0000
  H   H1519     1.0  0.48551  0.25271  0.02585  1.0000
  H   H1520     1.0  0.57292  0.99315  0.19610  1.0000
  H   H1521     1.0  0.53546  0.28990  0.05305  1.0000
  H   H1522     1.0  0.44085  0.09340  0.22617  1.0000
  H   H1523     1.0  0.44652  0.28093  0.11373  1.0000
  H   H1524     1.0  0.42729  0.26512  0.11223  1.0000
  H   H1525     1.0  0.45430  0.25587  0.10657  1.0000
  H   H1526     1.0  0.50814  0.00263  0.14806  1.0000
  Fe  Fe91      1.0  0.61596  0.19848  0.07008  1.0000
  N   N50       1.0  0.39974  0.12914  0.07450  1.0000
  H   H1527     1.0  0.65403  0.07622  0.07977  1.0000
  H   H1528     1.0  0.56202  0.98877  0.16317  1.0000
  H   H1529     1.0  0.47598  0.11149  0.18749  1.0000
  H   H1530     1.0  0.38980  0.17466  0.06701  1.0000
  H   H1531     1.0  0.43861  0.11503  0.05691  1.0000
  C   C856      1.0  0.42657  0.19519  0.01029  1.0000
  H   H1532     1.0  0.36712  0.13850  0.08294  1.0000
  C   C857      1.0  0.62750  0.30639  0.10395  1.0000
  H   H1533     1.0  0.35714  0.10214  0.04262  1.0000
  H   H1534     1.0  0.35732  0.26427  0.02488  1.0000
  C   C858      1.0  0.43970  0.12590  0.06592  1.0000
  H   H1535     1.0  0.61192  0.31456  0.10161  1.0000
  Fe  Fe92      1.0  0.63225  0.23955  0.07026  1.0000
  C   C859      1.0  0.39651  0.11917  0.05945  1.0000
  C   C860      1.0  0.40365  0.11334  0.08968  1.0000
  Fe  Fe93      1.0  0.62255  0.07274  0.15174  1.0000
  H   H1536     1.0  0.54970  0.11675  0.21778  1.0000
  H   H1537     1.0  0.41694  0.15104  0.05801  1.0000
  H   H1538     1.0  0.34694  0.30658  0.00914  1.0000
  C   C861      1.0  0.44694  0.13136  0.20846  1.0000
  H   H1539     1.0  0.37963  0.21160  0.99655  1.0000
  H   H1540     1.0  0.43381  0.19192  0.02185  1.0000
  H   H1541     1.0  0.46857  0.13636  0.14410  1.0000
  C   C862      1.0  0.63523  0.14886  0.10402  1.0000
  H   H1542     1.0  0.45313  0.14779  0.04601  1.0000
  H   H1543     1.0  0.51145  0.03540  0.12878  1.0000
  C   C863      1.0  0.61973  0.20516  0.99799  1.0000
  H   H1544     1.0  0.43718  0.14464  0.20204  1.0000
  C   C864      1.0  0.33913  0.36523  0.02808  1.0000
  C   C865      1.0  0.61524  0.22653  0.99497  1.0000
  H   H1545     1.0  0.62915  0.98846  0.16232  1.0000
  H   H1546     1.0  0.47107  0.26450  0.00865  1.0000
  H   H1547     1.0  0.33465  0.33829  0.07391  1.0000
  H   H1548     1.0  0.40858  0.10029  0.22228  1.0000
  C   C866      1.0  0.40534  0.20224  0.01108  1.0000
  H   H1549     1.0  0.62301  0.19786  0.01048  1.0000
  C   C867      1.0  0.57942  0.11766  0.20300  1.0000
  H   H1550     1.0  0.33515  0.34141  0.00415  1.0000
  C   C868      1.0  0.61348  0.06263  0.09061  1.0000
  H   H1551     1.0  0.38077  0.11022  0.03138  1.0000
  H   H1552     1.0  0.61424  0.41420  0.11791  1.0000
  C   C869      1.0  0.45690  0.13857  0.05818  1.0000
  H   H1553     1.0  0.40215  0.12810  0.04723  1.0000
  C   C870      1.0  0.61966  0.14647  0.09466  1.0000
  C   C871      1.0  0.35881  0.27634  0.03269  1.0000
  H   H1554     1.0  0.62364  0.05901  0.11564  1.0000
  H   H1555     1.0  0.44108  0.12372  0.16478  1.0000
  H   H1556     1.0  0.47719  0.29011  0.02583  1.0000
  C   C872      1.0  0.46000  0.11028  0.18522  1.0000
  C   C873      1.0  0.63300  0.04094  0.22677  1.0000
  Fe  Fe94      1.0  0.61826  0.04487  0.18570  1.0000
  C   C874      1.0  0.41527  0.05209  0.22507  1.0000
  S   S185      1.0  0.44767  0.98107  0.14732  1.0000
  H   H1557     1.0  0.59839  0.12644  0.09129  1.0000
  H   H1558     1.0  0.47547  0.10947  0.15093  1.0000
  H   H1559     1.0  0.48337  0.08293  0.20530  1.0000
  H   H1560     1.0  0.63062  0.29238  0.09736  1.0000
  H   H1561     1.0  0.35493  0.18147  0.08367  1.0000
  C   C875      1.0  0.40554  0.11273  0.21183  1.0000
  H   H1562     1.0  0.45447  0.33796  0.04467  1.0000
  H   H1563     1.0  0.65431  0.13483  0.12353  1.0000
  S   S186      1.0  0.64085  0.21437  0.05312  1.0000
  C   C876      1.0  0.52343  0.03814  0.13627  1.0000
  C   C877      1.0  0.56605  0.11040  0.21933  1.0000
  H   H1564     1.0  0.57512  0.11184  0.19189  1.0000
  H   H1565     1.0  0.42684  0.12572  0.23319  1.0000
  C   C878      1.0  0.38538  0.11007  0.20567  1.0000
  C   C879      1.0  0.61626  0.11327  0.11173  1.0000
  N   N51       1.0  0.44510  0.11190  0.20148  1.0000
  H   H1566     1.0  0.60897  0.09957  0.11453  1.0000
  H   H1567     1.0  0.44987  0.28871  0.02678  1.0000
  C   C880      1.0  0.61028  0.12855  0.09857  1.0000
  C   C881      1.0  0.52020  0.00479  0.15573  1.0000
  H   H1568     1.0  0.61742  0.07822  0.08595  1.0000
  C   C882      1.0  0.65022  0.28006  0.99854  1.0000
  H   H1569     1.0  0.59610  0.11233  0.20403  1.0000
  S   S187      1.0  0.64249  0.09483  0.13535  1.0000
  C   C883      1.0  0.33873  0.29143  0.03460  1.0000
  C   C884      1.0  0.57924  0.04163  0.23396  1.0000
  C   C885      1.0  0.45046  0.09281  0.21361  1.0000
  C   C886      1.0  0.35680  0.17681  0.07067  1.0000
  H   H1570     1.0  0.54735  0.02160  0.15031  1.0000
  H   H1571     1.0  0.58768  0.07521  0.10823  1.0000
  C   C887      1.0  0.38179  0.14508  0.07979  1.0000
  C   C888      1.0  0.48144  0.21706  0.99838  1.0000
  H   H1572     1.0  0.37198  0.28448  0.02669  1.0000
  H   H1573     1.0  0.37122  0.32112  0.07209  1.0000
  H   H1574     1.0  0.46304  0.13509  0.20534  1.0000
  S   S188      1.0  0.60902  0.22230  0.08817  1.0000
  H   H1575     1.0  0.40332  0.98242  0.20865  1.0000
  S   S189      1.0  0.63006  0.02799  0.20975  1.0000
  H   H1576     1.0  0.34444  0.16769  0.06974  1.0000
  C   C889      1.0  0.33800  0.32173  0.07561  1.0000
  H   H1577     1.0  0.47171  0.05620  0.22791  1.0000
  H   H1578     1.0  0.63304  0.28313  0.99944  1.0000
  C   C890      1.0  0.37817  0.16448  0.06665  1.0000
  H   H1579     1.0  0.45457  0.18555  0.99412  1.0000
  C   C891      1.0  0.37165  0.98707  0.20453  1.0000
  H   H1580     1.0  0.33480  0.45994  0.01358  1.0000
  H   H1581     1.0  0.45252  0.14221  0.17341  1.0000
  H   H1582     1.0  0.46513  0.22012  0.00440  1.0000
  C   C892      1.0  0.45509  0.12644  0.16979  1.0000
  C   C893      1.0  0.56861  0.08655  0.22282  1.0000
  S   S190      1.0  0.61200  0.16463  0.07739  1.0000
  S   S191      1.0  0.60772  0.25753  0.05511  1.0000
  H   H1583     1.0  0.35062  0.36731  0.01657  1.0000
  H   H1584     1.0  0.50861  0.98626  0.18712  1.0000
  H   H1585     1.0  0.47167  0.12820  0.05555  1.0000
  H   H1586     1.0  0.57702  0.13468  0.20076  1.0000
  C   C894      1.0  0.38382  0.99241  0.23195  1.0000
  C   C895      1.0  0.63229  0.11531  0.12072  1.0000
  Fe  Fe95      1.0  0.60347  0.03310  0.15458  1.0000
  H   H1587     1.0  0.45916  0.14901  0.06718  1.0000
  Fe  Fe96      1.0  0.61509  0.23164  0.03886  1.0000
  H   H1588     1.0  0.46100  0.09492  0.18095  1.0000
  H   H1589     1.0  0.42022  0.14904  0.07984  1.0000
  H   H1590     1.0  0.58544  0.08083  0.21995  1.0000
  H   H1591     1.0  0.64985  0.36504  0.12535  1.0000
  H   H1592     1.0  0.62765  0.39728  0.13372  1.0000
  H   H1593     1.0  0.37977  0.16056  0.05345  1.0000
  H   H1594     1.0  0.54435  0.00364  0.17715  1.0000
  C   C896      1.0  0.47275  0.12502  0.15510  1.0000
  H   H1595     1.0  0.42460  0.35117  0.02906  1.0000
  S   S192      1.0  0.59297  0.06603  0.14470  1.0000
  C   C897      1.0  0.44155  0.13158  0.22805  1.0000
  H   H1596     1.0  0.38409  0.15054  0.09184  1.0000
  H   H1597     1.0  0.35511  0.19090  0.06136  1.0000
  H   H1598     1.0  0.44460  0.11704  0.07786  1.0000
  H   H1599     1.0  0.38096  0.12271  0.19563  1.0000
  C   C898      1.0  0.53516  0.01783  0.14359  1.0000
  H   H1600     1.0  0.36472  0.45240  0.99153  1.0000
  H   H1601     1.0  0.49083  0.22635  0.00375  1.0000
  C   C899      1.0  0.63223  0.06225  0.22495  1.0000
  H   H1602     1.0  0.48498  0.98666  0.16548  1.0000
  H   H1603     1.0  0.63191  0.39370  0.09542  1.0000
  H   H1604     1.0  0.47914  0.10140  0.22009  1.0000
  H   H1605     1.0  0.62406  0.17670  0.98701  1.0000
  H   H1606     1.0  0.64372  0.32374  0.08316  1.0000
  H   H1607     1.0  0.41599  0.34596  0.05152  1.0000
  H   H1608     1.0  0.36302  0.06584  0.22984  1.0000
  H   H1609     1.0  0.48726  0.12828  0.15898  1.0000
  H   H1610     1.0  0.62983  0.07121  0.21283  1.0000
  S   S193      1.0  0.63432  0.03937  0.15956  1.0000
  H   H1611     1.0  0.58598  0.04981  0.10351  1.0000
  H   H1612     1.0  0.44669  0.07919  0.20878  1.0000
  H   H1613     1.0  0.63803  0.33567  0.11980  1.0000
  H   H1614     1.0  0.51207  0.01446  0.16563  1.0000
  H   H1615     1.0  0.41913  0.12637  0.18810  1.0000
  H   H1616     1.0  0.54728  0.05413  0.23151  1.0000
  C   C900      1.0  0.42351  0.11244  0.19702  1.0000
  H   H1617     1.0  0.32518  0.37689  0.02668  1.0000
  H   H1618     1.0  0.45831  0.25068  0.02716  1.0000
  H   H1619     1.0  0.36238  0.26872  0.04543  1.0000
  C   C901      1.0  0.43831  0.19166  0.99456  1.0000
  H   H1620     1.0  0.64772  0.02327  0.08581  1.0000
  C   C902      1.0  0.64174  0.13318  0.11679  1.0000
  C   C903      1.0  0.37884  0.06381  0.23260  1.0000
  C   C904      1.0  0.65160  0.37126  0.11162  1.0000
  H   H1621     1.0  0.62254  0.03572  0.10761  1.0000
  H   H1622     1.0  0.35609  0.98494  0.21139  1.0000
  C   C905      1.0  0.62754  0.05110  0.10397  1.0000
  H   H1623     1.0  0.62721  0.98481  0.21183  1.0000
  H   H1624     1.0  0.56442  0.01949  0.22425  1.0000
  H   H1625     1.0  0.65379  0.25077  0.98950  1.0000
  H   H1626     1.0  0.32915  0.28909  0.01062  1.0000
  H   H1627     1.0  0.58090  0.07190  0.08798  1.0000
  C   C906      1.0  0.63154  0.38641  0.10880  1.0000
  C   C907      1.0  0.45695  0.00292  0.23116  1.0000
  C   C908      1.0  0.39607  0.20623  0.99600  1.0000
  H   H1628     1.0  0.37165  0.00347  0.19928  1.0000
  H   H1629     1.0  0.48721  0.20054  0.00165  1.0000
  C   C909      1.0  0.62873  0.40363  0.12004  1.0000
  C   C910      1.0  0.33332  0.34358  0.03069  1.0000
  H   H1630     1.0  0.65331  0.39257  0.05417  1.0000
  H   H1631     1.0  0.64513  0.08183  0.10070  1.0000
  H   H1632     1.0  0.32272  0.34215  0.04278  1.0000
  H   H1633     1.0  0.42705  0.16351  0.22710  1.0000
  H   H1634     1.0  0.61771  0.37844  0.11209  1.0000
  N   N52       1.0  0.52997  0.98437  0.16406  1.0000
  C   C911      1.0  0.43988  0.15322  0.23287  1.0000
  H   H1635     1.0  0.34089  0.30270  0.04280  1.0000
  C   C912      1.0  0.47669  0.07020  0.23111  1.0000
  H   H1636     1.0  0.53074  0.09358  0.23374  1.0000
  H   H1637     1.0  0.49339  0.06664  0.23260  1.0000
  C   C913      1.0  0.41992  0.99650  0.23285  1.0000
  H   H1638     1.0  0.45383  0.12179  0.23482  1.0000
  C   C914      1.0  0.32645  0.28855  0.08165  1.0000
  H   H1639     1.0  0.65113  0.28928  0.05505  1.0000
  H   H1640     1.0  0.64052  0.01746  0.12737  1.0000
  C   C915      1.0  0.57549  0.01970  0.23340  1.0000
  H   H1641     1.0  0.37987  0.00898  0.22712  1.0000
  H   H1642     1.0  0.64884  0.04632  0.07202  1.0000
  H   H1643     1.0  0.34786  0.33281  0.03189  1.0000
  H   H1644     1.0  0.42693  0.98566  0.22360  1.0000
  H   H1645     1.0  0.59037  0.01029  0.22912  1.0000
  H   H1646     1.0  0.32802  0.45231  0.99508  1.0000
  H   H1647     1.0  0.32647  0.28268  0.04156  1.0000
  C   C916      1.0  0.60688  0.98160  0.14763  1.0000
  C   C917      1.0  0.38831  0.98022  0.21639  1.0000
  C   C918      1.0  0.32421  0.46450  0.00359  1.0000
  H   H1648     1.0  0.65426  0.27261  0.01120  1.0000
  C   C919      1.0  0.32169  0.31008  0.07935  1.0000
  Fe  Fe97      1.0  0.63921  0.05462  0.29768  1.0000
  S   S194      1.0  0.62411  0.07214  0.31934  1.0000
  H   H1649     1.0  0.36933  0.98767  0.23926  1.0000
  H   H1650     1.0  0.38042  0.00721  0.29160  1.0000
  S   S195      1.0  0.62892  0.02890  0.34390  1.0000
  C   C920      1.0  0.34796  0.04677  0.38189  1.0000
  Fe  Fe98      1.0  0.60576  0.04595  0.32698  1.0000
  S   S196      1.0  0.57139  0.05072  0.33676  1.0000
  H   H1651     1.0  0.32937  0.10166  0.34235  1.0000
  S   S197      1.0  0.61937  0.02952  0.30452  1.0000
  Fe  Fe99      1.0  0.46416  0.04208  0.30324  1.0000
  S   S198      1.0  0.45075  0.03533  0.28073  1.0000
  S   S199      1.0  0.49907  0.04063  0.29540  1.0000
  Fe  Fe100     1.0  0.42138  0.04263  0.32564  1.0000
  S   S200      1.0  0.40562  0.03589  0.30453  1.0000
  S   S201      1.0  0.40457  0.04297  0.35282  1.0000
  Fe  Fe101     1.0  0.43406  0.01332  0.29914  1.0000
  H   H1652     1.0  0.34227  0.04536  0.39534  1.0000
  Fe  Fe102     1.0  0.42382  0.05858  0.28796  1.0000
  S   S202      1.0  0.40937  0.08053  0.26743  1.0000
  S   S203      1.0  0.44906  0.01810  0.32127  1.0000
  S   S204      1.0  0.43794  0.06743  0.30934  1.0000
  C   C921      1.0  0.37725  0.04629  0.35899  1.0000
  C   C922      1.0  0.36315  0.05094  0.34705  1.0000
  C   C923      1.0  0.36949  0.04415  0.37643  1.0000
  H   H1653     1.0  0.36883  0.05281  0.33360  1.0000
  H   H1654     1.0  0.38022  0.04066  0.38580  1.0000
  H   H1655     1.0  0.34112  0.00930  0.41670  1.0000
  H   H1656     1.0  0.56076  0.99736  0.32559  1.0000
  H   H1657     1.0  0.33094  0.05727  0.34311  1.0000
  H   H1658     1.0  0.49452  0.00523  0.32335  1.0000
  C   C924      1.0  0.55141  0.04825  0.32497  1.0000
  C   C925      1.0  0.53063  0.05344  0.33184  1.0000
  C   C926      1.0  0.51430  0.05090  0.32315  1.0000
  C   C927      1.0  0.51869  0.04333  0.30740  1.0000
  C   C928      1.0  0.53944  0.03794  0.30063  1.0000
  C   C929      1.0  0.55573  0.04028  0.30939  1.0000
  H   H1659     1.0  0.52713  0.05945  0.34397  1.0000
  H   H1660     1.0  0.49838  0.05511  0.32849  1.0000
  H   H1661     1.0  0.54290  0.03201  0.28848  1.0000
  H   H1662     1.0  0.57162  0.03598  0.30407  1.0000
  H   H1663     1.0  0.37100  0.07923  0.25512  1.0000
  C   C930      1.0  0.40373  0.06872  0.25069  1.0000
  H   H1664     1.0  0.32284  0.12251  0.35517  1.0000
  H   H1665     1.0  0.59100  0.07237  0.24830  1.0000
  H   H1666     1.0  0.52258  0.02418  0.26081  1.0000
  C   C931      1.0  0.33389  0.05145  0.36992  1.0000
  C   C932      1.0  0.57518  0.08013  0.25242  1.0000
  C   C933      1.0  0.56940  0.07293  0.27150  1.0000
  C   C934      1.0  0.37777  0.99036  0.35539  1.0000
  H   H1667     1.0  0.49279  0.08283  0.27243  1.0000
  C   C935      1.0  0.52341  0.07739  0.25821  1.0000
  C   C936      1.0  0.50378  0.09175  0.26370  1.0000
  C   C937      1.0  0.58703  0.07395  0.28163  1.0000
  C   C938      1.0  0.63623  0.02945  0.24253  1.0000
  H   H1668     1.0  0.38109  0.00075  0.36400  1.0000
  H   H1669     1.0  0.57410  0.98865  0.37001  1.0000
  H   H1670     1.0  0.55307  0.04780  0.25272  1.0000
  C   C939      1.0  0.50703  0.99236  0.32608  1.0000
  C   C940      1.0  0.34309  0.99233  0.41966  1.0000
  H   H1671     1.0  0.56936  0.01273  0.24624  1.0000
  H   H1672     1.0  0.35316  0.01314  0.28967  1.0000
  H   H1673     1.0  0.52990  0.98909  0.27500  1.0000
  H   H1674     1.0  0.57708  0.09647  0.25178  1.0000
  H   H1675     1.0  0.56626  0.05690  0.27352  1.0000
  H   H1676     1.0  0.55569  0.08316  0.27680  1.0000
  C   C941      1.0  0.34771  0.98981  0.38795  1.0000
  C   C942      1.0  0.36893  0.01401  0.28274  1.0000
  C   C943      1.0  0.38334  0.07128  0.24696  1.0000
  H   H1677     1.0  0.64162  0.03008  0.26838  1.0000
  H   H1678     1.0  0.56706  0.99860  0.29344  1.0000
  H   H1679     1.0  0.53008  0.06994  0.26982  1.0000
  H   H1680     1.0  0.51931  0.01249  0.24241  1.0000
  H   H1681     1.0  0.58618  0.00351  0.32424  1.0000
  N   N53       1.0  0.40065  0.98989  0.24332  1.0000
  H   H1682     1.0  0.59220  0.08929  0.27900  1.0000
  H   H1683     1.0  0.58183  0.07102  0.29550  1.0000
  H   H1684     1.0  0.60032  0.06211  0.27828  1.0000
  H   H1685     1.0  0.63683  0.01297  0.24401  1.0000
  H   H1686     1.0  0.49934  0.03162  0.25082  1.0000
  H   H1687     1.0  0.59083  0.04088  0.24283  1.0000
  H   H1688     1.0  0.38562  0.98710  0.32835  1.0000
  H   H1689     1.0  0.49267  0.00883  0.27742  1.0000
  C   C944      1.0  0.35408  0.99005  0.35701  1.0000
  H   H1690     1.0  0.49605  0.09916  0.25248  1.0000
  H   H1691     1.0  0.52592  0.02577  0.37190  1.0000
  H   H1692     1.0  0.58096  0.00829  0.35364  1.0000
  Fe  Fe103     1.0  0.64417  0.01479  0.32064  1.0000
  C   C945      1.0  0.53887  0.08906  0.24528  1.0000
  H   H1693     1.0  0.61908  0.12102  0.31943  1.0000
  H   H1694     1.0  0.34297  0.00663  0.38519  1.0000
  C   C946      1.0  0.63863  0.06036  0.25447  1.0000
  C   C947      1.0  0.54831  0.00451  0.35800  1.0000
  C   C948      1.0  0.57166  0.99536  0.35680  1.0000
  S   S205      1.0  0.64265  0.07274  0.27151  1.0000
  H   H1695     1.0  0.40484  0.00250  0.26588  1.0000
  C   C949      1.0  0.39348  0.00445  0.25659  1.0000
  H   H1696     1.0  0.52377  0.99613  0.30111  1.0000
  H   H1697     1.0  0.51860  0.06517  0.25223  1.0000
  H   H1698     1.0  0.46785  0.07438  0.24336  1.0000
  H   H1699     1.0  0.54010  0.10361  0.25015  1.0000
  H   H1700     1.0  0.35948  0.00869  0.25947  1.0000
  H   H1701     1.0  0.55205  0.03135  0.36941  1.0000
  H   H1702     1.0  0.54445  0.01015  0.38459  1.0000
  H   H1703     1.0  0.37059  0.03041  0.27869  1.0000
  H   H1704     1.0  0.39276  0.02069  0.25054  1.0000
  H   H1705     1.0  0.37079  0.98595  0.27195  1.0000
  H   H1706     1.0  0.51878  0.99844  0.33176  1.0000
  C   C950      1.0  0.51130  0.01849  0.25428  1.0000
  C   C951      1.0  0.54241  0.01877  0.37185  1.0000
  C   C952      1.0  0.38621  0.99830  0.33724  1.0000
  C   C953      1.0  0.34164  0.05349  0.35249  1.0000
  H   H1707     1.0  0.59396  0.00157  0.29300  1.0000
  H   H1708     1.0  0.37718  0.01321  0.33291  1.0000
  H   H1709     1.0  0.32523  0.09624  0.36519  1.0000
  C   C954      1.0  0.62633  0.12274  0.33072  1.0000
  C   C955      1.0  0.51686  0.98304  0.27113  1.0000
  C   C956      1.0  0.63887  0.03913  0.25638  1.0000
  H   H1710     1.0  0.34706  0.00647  0.35548  1.0000
  H   H1711     1.0  0.61699  0.13561  0.33707  1.0000
  H   H1712     1.0  0.43243  0.01339  0.24973  1.0000
  H   H1713     1.0  0.62611  0.10849  0.33986  1.0000
  H   H1714     1.0  0.46851  0.00701  0.23830  1.0000
  H   H1715     1.0  0.53824  0.99234  0.36112  1.0000
  C   C957      1.0  0.50088  0.00191  0.26610  1.0000
  H   H1716     1.0  0.50753  0.10372  0.27060  1.0000
  H   H1717     1.0  0.54453  0.01357  0.34591  1.0000
  H   H1718     1.0  0.48927  0.99746  0.25921  1.0000
  C   C958      1.0  0.37216  0.00224  0.26728  1.0000
  H   H1719     1.0  0.40255  0.00067  0.33686  1.0000
  H   H1720     1.0  0.36448  0.98801  0.38933  1.0000
  C   C959      1.0  0.43720  0.99954  0.24305  1.0000
  H   H1721     1.0  0.63508  0.08834  0.23719  1.0000
  H   H1722     1.0  0.44070  0.98613  0.25266  1.0000
  H   H1723     1.0  0.33351  0.98831  0.43196  1.0000
  H   H1724     1.0  0.35050  0.98368  0.34583  1.0000
  H   H1725     1.0  0.48731  0.98700  0.30010  1.0000
  H   H1726     1.0  0.64302  0.99303  0.29128  1.0000
  S   S206      1.0  0.43232  0.98308  0.29072  1.0000
  H   H1727     1.0  0.43714  0.97973  0.32649  1.0000
  H   H1728     1.0  0.43542  0.05666  0.24275  1.0000
  C   C960      1.0  0.33623  0.98265  0.40563  1.0000
  H   H1729     1.0  0.61104  0.98470  0.34124  1.0000
  N   N54       1.0  0.56027  0.07759  0.24051  1.0000
  C   C961      1.0  0.57703  0.99045  0.32680  1.0000
  H   H1730     1.0  0.35960  0.98659  0.42105  1.0000
  H   H1731     1.0  0.43658  0.15280  0.24693  1.0000
  C   C962      1.0  0.51704  0.98361  0.30969  1.0000
  C   C963      1.0  0.58289  0.99032  0.29468  1.0000
  Fe  Fe104     1.0  0.64881  0.05353  0.33422  1.0000
  H   H1732     1.0  0.50047  0.98036  0.33547  1.0000
  C   C964      1.0  0.41965  0.05866  0.23993  1.0000
  C   C965      1.0  0.55888  0.05528  0.24001  1.0000
  C   C966      1.0  0.64855  0.12718  0.32541  1.0000
  N   N55       1.0  0.57902  0.97958  0.34455  1.0000
  H   H1733     1.0  0.58748  0.98033  0.28436  1.0000
  C   C967      1.0  0.63525  0.07191  0.23874  1.0000
  H   H1734     1.0  0.64783  0.14197  0.31699  1.0000
  H   H1735     1.0  0.65451  0.10924  0.30448  1.0000
  N   N56       1.0  0.34461  0.97905  0.37339  1.0000
  C   C968      1.0  0.32188  0.97924  0.37252  1.0000
  H   H1736     1.0  0.65476  0.12902  0.33716  1.0000
  Fe  Fe105     1.0  0.45116  0.00124  0.66367  1.0000
  S   S207      1.0  0.44865  0.03052  0.64592  1.0000
  C   C969      1.0  0.51629  0.99245  0.63809  1.0000
  Fe  Fe106     1.0  0.43092  0.02150  0.69479  1.0000
  S   S208      1.0  0.42669  0.05263  0.67950  1.0000
  S   S209      1.0  0.42345  0.01136  0.72299  1.0000
  Fe  Fe107     1.0  0.41630  0.03663  0.65972  1.0000
  S   S210      1.0  0.38808  0.05074  0.64606  1.0000
  Fe  Fe108     1.0  0.45933  0.04347  0.66707  1.0000
  S   S211      1.0  0.48472  0.06373  0.66283  1.0000
  S   S212      1.0  0.41828  0.00624  0.67612  1.0000
  S   S213      1.0  0.46396  0.01354  0.68375  1.0000
  H   H1737     1.0  0.34402  0.98987  0.70326  1.0000
  C   C970      1.0  0.55915  0.07149  0.72472  1.0000
  Fe  Fe109     1.0  0.60802  0.03169  0.66401  1.0000
  S   S214      1.0  0.61684  0.02560  0.69043  1.0000
  S   S215      1.0  0.57814  0.02037  0.66141  1.0000
  Fe  Fe110     1.0  0.63294  0.05313  0.68338  1.0000
  S   S216      1.0  0.62397  0.07613  0.70226  1.0000
  H   H1738     1.0  0.33069  0.05520  0.61204  1.0000
  H   H1739     1.0  0.36552  0.00167  0.66715  1.0000
  S   S217      1.0  0.62204  0.06086  0.65745  1.0000
  S   S218      1.0  0.63686  0.01295  0.65278  1.0000
  C   C971      1.0  0.62998  0.06914  0.72323  1.0000
  C   C972      1.0  0.64851  0.05673  0.72664  1.0000
  H   H1740     1.0  0.41086  0.01128  0.56106  1.0000
  C   C973      1.0  0.49850  0.98780  0.73164  1.0000
  C   C974      1.0  0.39970  0.06089  0.59228  1.0000
  N   N57       1.0  0.41658  0.00259  0.58721  1.0000
  H   H1741     1.0  0.39817  0.02206  0.60474  1.0000
  C   C975      1.0  0.34266  0.04495  0.61814  1.0000
  C   C976      1.0  0.41354  0.04241  0.58532  1.0000
  H   H1742     1.0  0.55964  0.98562  0.62212  1.0000
  H   H1743     1.0  0.63090  0.99477  0.62069  1.0000
  H   H1744     1.0  0.57574  0.06477  0.72182  1.0000
  C   C977      1.0  0.37164  0.03981  0.63517  1.0000
  C   C978      1.0  0.36090  0.01096  0.62491  1.0000
  C   C979      1.0  0.37406  0.01878  0.63399  1.0000
  H   H1745     1.0  0.36308  0.99474  0.62393  1.0000
  H   H1746     1.0  0.38629  0.00863  0.63981  1.0000
  H   H1747     1.0  0.53494  0.02973  0.72388  1.0000
  H   H1748     1.0  0.61627  0.99669  0.72270  1.0000
  H   H1749     1.0  0.42656  0.98767  0.64551  1.0000
  H   H1750     1.0  0.56944  0.09800  0.66310  1.0000
  C   C980      1.0  0.34097  0.02420  0.67669  1.0000
  H   H1751     1.0  0.41874  0.05613  0.71865  1.0000
  H   H1752     1.0  0.48769  0.00559  0.62755  1.0000
  H   H1753     1.0  0.48192  0.98605  0.73219  1.0000
  C   C981      1.0  0.51081  0.05187  0.66231  1.0000
  C   C982      1.0  0.51570  0.03057  0.66548  1.0000
  C   C983      1.0  0.53642  0.02135  0.66501  1.0000
  C   C984      1.0  0.55256  0.03325  0.66159  1.0000
  C   C985      1.0  0.54783  0.05461  0.65852  1.0000
  C   C986      1.0  0.52697  0.06388  0.65888  1.0000
  H   H1754     1.0  0.50353  0.02114  0.66807  1.0000
  H   H1755     1.0  0.53999  0.00483  0.66738  1.0000
  H   H1756     1.0  0.56020  0.06390  0.65572  1.0000
  H   H1757     1.0  0.52333  0.08038  0.65637  1.0000
  H   H1758     1.0  0.53075  0.99807  0.63953  1.0000
  H   H1759     1.0  0.57117  0.00738  0.70166  1.0000
  H   H1760     1.0  0.41548  0.04572  0.57122  1.0000
  H   H1761     1.0  0.44502  0.02541  0.56491  1.0000
  N   N58       1.0  0.54706  0.06847  0.71082  1.0000
  C   C987      1.0  0.55078  0.08486  0.69597  1.0000
  C   C988      1.0  0.52406  0.07128  0.71689  1.0000
  H   H1762     1.0  0.59210  0.10480  0.66972  1.0000
  C   C989      1.0  0.55457  0.04791  0.70456  1.0000
  C   C990      1.0  0.55102  0.02873  0.71737  1.0000
  C   C991      1.0  0.57376  0.08741  0.68963  1.0000
  H   H1763     1.0  0.51922  0.08667  0.72134  1.0000
  C   C992      1.0  0.50974  0.06937  0.70358  1.0000
  C   C993      1.0  0.48705  0.07061  0.71143  1.0000
  C   C994      1.0  0.55514  0.00945  0.70845  1.0000
  C   C995      1.0  0.57553  0.10313  0.67375  1.0000
  H   H1764     1.0  0.55936  0.08815  0.72502  1.0000
  H   H1765     1.0  0.54270  0.10013  0.69922  1.0000
  H   H1766     1.0  0.54411  0.08187  0.68475  1.0000
  H   H1767     1.0  0.42886  0.00077  0.61111  1.0000
  H   H1768     1.0  0.50800  0.98853  0.65095  1.0000
  C   C996      1.0  0.34516  0.02395  0.61686  1.0000
  H   H1769     1.0  0.46190  0.01826  0.53643  1.0000
  H   H1770     1.0  0.54763  0.04690  0.69297  1.0000
  H   H1771     1.0  0.57150  0.04612  0.70032  1.0000
  H   H1772     1.0  0.49947  0.02346  0.63639  1.0000
  C   C997      1.0  0.34758  0.98681  0.68972  1.0000
  H   H1773     1.0  0.58084  0.09295  0.69952  1.0000
  H   H1774     1.0  0.58311  0.07283  0.68628  1.0000
  H   H1775     1.0  0.54398  0.01045  0.69915  1.0000
  H   H1776     1.0  0.34869  0.03746  0.67039  1.0000
  H   H1777     1.0  0.51062  0.08197  0.69290  1.0000
  H   H1778     1.0  0.51397  0.05451  0.69835  1.0000
  Fe  Fe111     1.0  0.64630  0.00834  0.67885  1.0000
  H   H1779     1.0  0.38396  0.06269  0.58838  1.0000
  C   C998      1.0  0.35579  0.05279  0.62725  1.0000
  H   H1780     1.0  0.47716  0.07111  0.70123  1.0000
  H   H1781     1.0  0.52012  0.06026  0.72818  1.0000
  H   H1782     1.0  0.64306  0.00687  0.60101  1.0000
  H   H1783     1.0  0.50230  0.00013  0.72125  1.0000
  H   H1784     1.0  0.56691  0.11832  0.67645  1.0000
  H   H1785     1.0  0.38925  0.02537  0.58452  1.0000
  C   C999      1.0  0.50272  0.01023  0.62893  1.0000
  H   H1786     1.0  0.56204  0.02662  0.72691  1.0000
  H   H1787     1.0  0.42870  0.04126  0.59002  1.0000
  H   H1788     1.0  0.35031  0.03894  0.73158  1.0000
  C   C1000     1.0  0.35729  0.00541  0.67964  1.0000
  H   H1789     1.0  0.64781  0.01316  0.73152  1.0000
  C   C1001     1.0  0.40349  0.02267  0.59088  1.0000
  H   H1790     1.0  0.51067  0.01529  0.61615  1.0000
  H   H1791     1.0  0.37697  0.99642  0.73471  1.0000
  H   H1792     1.0  0.40657  0.07507  0.58732  1.0000
  H   H1793     1.0  0.36880  0.00965  0.68684  1.0000
  S   S219      1.0  0.32965  0.01307  0.60507  1.0000
  H   H1794     1.0  0.39838  0.05906  0.60640  1.0000
  H   H1795     1.0  0.35375  0.06909  0.62807  1.0000
  C   C1002     1.0  0.61441  0.98441  0.73355  1.0000
  H   H1796     1.0  0.48202  0.08468  0.71781  1.0000
  H   H1797     1.0  0.59634  0.98320  0.62523  1.0000
  C   C1003     1.0  0.64547  0.99448  0.61172  1.0000
  H   H1798     1.0  0.38642  0.98909  0.57113  1.0000
  H   H1799     1.0  0.55309  0.99592  0.71800  1.0000
  H   H1800     1.0  0.33217  0.02828  0.68897  1.0000
  H   H1801     1.0  0.33224  0.98701  0.68559  1.0000
  H   H1802     1.0  0.37174  0.00022  0.58918  1.0000
  C   C1004     1.0  0.38325  0.98717  0.58523  1.0000
  H   H1803     1.0  0.48463  0.05685  0.72068  1.0000
  H   H1804     1.0  0.60226  0.08707  0.73404  1.0000
  H   H1805     1.0  0.42506  0.98651  0.56489  1.0000
  H   H1806     1.0  0.43429  0.02458  0.53643  1.0000
  H   H1807     1.0  0.61411  0.98832  0.68277  1.0000
  C   C1005     1.0  0.44399  0.01048  0.56087  1.0000
  H   H1808     1.0  0.45734  0.99952  0.56509  1.0000
  H   H1809     1.0  0.47840  0.98681  0.59416  1.0000
  C   C1006     1.0  0.42328  0.00240  0.56832  1.0000
  C   C1007     1.0  0.44678  0.01299  0.54141  1.0000
  H   H1810     1.0  0.46669  0.98260  0.61607  1.0000
  H   H1811     1.0  0.44654  0.99814  0.53669  1.0000
  H   H1812     1.0  0.36099  0.02375  0.71459  1.0000
  C   C1008     1.0  0.43455  0.99883  0.59750  1.0000
  H   H1813     1.0  0.44509  0.01046  0.59335  1.0000
  C   C1009     1.0  0.40338  0.98578  0.59352  1.0000
  C   C1010     1.0  0.36331  0.02723  0.72726  1.0000
  Fe  Fe112     1.0  0.65211  0.04134  0.64857  1.0000
  H   H1814     1.0  0.37807  0.03368  0.72585  1.0000
  H   H1815     1.0  0.65233  0.98965  0.72266  1.0000
  H   H1816     1.0  0.34474  0.98387  0.65589  1.0000
  H   H1817     1.0  0.58115  0.98407  0.64578  1.0000
  H   H1818     1.0  0.39882  0.98519  0.60753  1.0000
  C   C1011     1.0  0.41874  0.05056  0.73204  1.0000
  H   H1819     1.0  0.33012  0.02128  0.66823  1.0000
  H   H1820     1.0  0.52858  0.97911  0.61495  1.0000
  C   C1012     1.0  0.65496  0.99679  0.73376  1.0000
  Fe  Fe113     1.0  0.41293  0.06354  0.80437  1.0000
  S   S220      1.0  0.38605  0.06547  0.82517  1.0000
  S   S221      1.0  0.41019  0.07527  0.77662  1.0000
  Fe  Fe114     1.0  0.44288  0.04316  0.82857  1.0000
  S   S222      1.0  0.41862  0.04254  0.85143  1.0000
  S   S223      1.0  0.47574  0.02810  0.82993  1.0000
  Fe  Fe115     1.0  0.39902  0.03293  0.83411  1.0000
  S   S224      1.0  0.37562  0.01094  0.84260  1.0000
  Fe  Fe116     1.0  0.40760  0.07510  0.84095  1.0000
  S   S225      1.0  0.39586  0.09851  0.85980  1.0000
  S   S226      1.0  0.42439  0.03052  0.81237  1.0000
  S   S227      1.0  0.43334  0.07634  0.81920  1.0000
  Fe  Fe117     1.0  0.61928  0.05922  0.79785  1.0000
  S   S228      1.0  0.62279  0.04720  0.82519  1.0000
  H   H1821     1.0  0.41660  0.03080  0.78009  1.0000
  Fe  Fe118     1.0  0.57317  0.06903  0.80516  1.0000
  S   S229      1.0  0.57282  0.05762  0.83291  1.0000
  S   S230      1.0  0.54384  0.08136  0.79389  1.0000
  Fe  Fe119     1.0  0.59972  0.07494  0.83158  1.0000
  S   S231      1.0  0.59923  0.09210  0.85459  1.0000
  Fe  Fe120     1.0  0.59563  0.03109  0.82408  1.0000
  S   S232      1.0  0.59464  0.99811  0.83629  1.0000
  S   S233      1.0  0.59842  0.08818  0.80416  1.0000
  S   S234      1.0  0.59376  0.04137  0.79637  1.0000
  Fe  Fe121     1.0  0.40415  0.22676  0.91055  1.0000
  S   S235      1.0  0.40989  0.19313  0.92123  1.0000
  S   S236      1.0  0.37041  0.24108  0.90812  1.0000
  Fe  Fe122     1.0  0.45098  0.22878  0.90283  1.0000
  S   S237      1.0  0.45960  0.19591  0.91259  1.0000
  S   S238      1.0  0.47407  0.25015  0.89102  1.0000
  Fe  Fe123     1.0  0.43451  0.18949  0.89868  1.0000
  S   S239      1.0  0.44333  0.16622  0.87938  1.0000
  Fe  Fe124     1.0  0.43435  0.20246  0.93418  1.0000
  S   S240      1.0  0.44454  0.19080  0.96010  1.0000
  S   S241      1.0  0.42745  0.22240  0.88737  1.0000
  S   S242      1.0  0.42710  0.23608  0.92516  1.0000
  S   S243      1.0  0.61799  0.23642  0.91803  1.0000
  S   S244      1.0  0.62468  0.22921  0.87804  1.0000
  Fe  Fe125     1.0  0.59767  0.23259  0.89876  1.0000
  S   S245      1.0  0.56870  0.25538  0.89524  1.0000
  S   S246      1.0  0.59740  0.19895  0.90627  1.0000
  H   H1822     1.0  0.61596  0.00732  0.74975  1.0000
  H   H1823     1.0  0.37845  0.13474  0.83738  1.0000
  H   H1824     1.0  0.63219  0.25817  0.94525  1.0000
  H   H1825     1.0  0.32797  0.26022  0.91287  1.0000
  H   H1826     1.0  0.38118  0.02003  0.75619  1.0000
  C   C1013     1.0  0.35918  0.26735  0.90787  1.0000
  C   C1014     1.0  0.33745  0.27239  0.91016  1.0000
  H   H1827     1.0  0.53765  0.25147  0.93890  1.0000
  C   C1015     1.0  0.33989  0.30897  0.90497  1.0000
  C   C1016     1.0  0.36161  0.30393  0.90288  1.0000
  C   C1017     1.0  0.37121  0.28329  0.90449  1.0000
  H   H1828     1.0  0.57168  0.07687  0.75597  1.0000
  H   H1829     1.0  0.65146  0.05285  0.88106  1.0000
  H   H1830     1.0  0.37113  0.31606  0.89979  1.0000
  H   H1831     1.0  0.38792  0.27972  0.90267  1.0000
  H   H1832     1.0  0.63445  0.27441  0.96992  1.0000
  H   H1833     1.0  0.39868  0.98587  0.75563  1.0000
  H   H1834     1.0  0.57387  0.15787  0.85052  1.0000
  H   H1835     1.0  0.62388  0.98796  0.78392  1.0000
  C   C1018     1.0  0.42142  0.02247  0.75474  1.0000
  C   C1019     1.0  0.36237  0.17252  0.91424  1.0000
  H   H1836     1.0  0.40074  0.20649  0.96861  1.0000
  H   H1837     1.0  0.58670  0.23312  0.84066  1.0000
  H   H1838     1.0  0.58885  0.99695  0.80105  1.0000
  C   C1020     1.0  0.61097  0.23579  0.97874  1.0000
  C   C1021     1.0  0.50050  0.24972  0.89322  1.0000
  C   C1022     1.0  0.51420  0.23179  0.89752  1.0000
  C   C1023     1.0  0.53541  0.23291  0.89808  1.0000
  C   C1024     1.0  0.54272  0.25198  0.89464  1.0000
  C   C1025     1.0  0.52885  0.26963  0.89059  1.0000
  C   C1026     1.0  0.50807  0.26849  0.88972  1.0000
  H   H1839     1.0  0.50853  0.21718  0.90002  1.0000
  H   H1840     1.0  0.54607  0.21921  0.90120  1.0000
  H   H1841     1.0  0.53428  0.28439  0.88788  1.0000
  H   H1842     1.0  0.49775  0.28237  0.88627  1.0000
  C   C1027     1.0  0.60615  0.11622  0.85687  1.0000
  H   H1843     1.0  0.57998  0.19818  0.83901  1.0000
  C   C1028     1.0  0.60566  0.12152  0.87335  1.0000
  C   C1029     1.0  0.36178  0.46377  0.98021  1.0000
  H   H1844     1.0  0.60065  0.11109  0.88429  1.0000
  C   C1030     1.0  0.40968  0.11681  0.86526  1.0000
  C   C1031     1.0  0.42584  0.12440  0.85410  1.0000
  C   C1032     1.0  0.43586  0.13959  0.85865  1.0000
  C   C1033     1.0  0.42992  0.14729  0.87439  1.0000
  C   C1034     1.0  0.41382  0.13965  0.88558  1.0000
  C   C1035     1.0  0.40366  0.12460  0.88097  1.0000
  H   H1845     1.0  0.43038  0.11877  0.84187  1.0000
  H   H1846     1.0  0.44819  0.14555  0.84985  1.0000
  H   H1847     1.0  0.40928  0.14522  0.89784  1.0000
  H   H1848     1.0  0.39116  0.11880  0.88968  1.0000
  C   C1036     1.0  0.49474  0.04179  0.81814  1.0000
  C   C1037     1.0  0.48936  0.05995  0.80760  1.0000
  C   C1038     1.0  0.50464  0.07170  0.79956  1.0000
  C   C1039     1.0  0.52530  0.06534  0.80213  1.0000
  C   C1040     1.0  0.53086  0.04658  0.81184  1.0000
  C   C1041     1.0  0.51558  0.03479  0.81981  1.0000
  H   H1849     1.0  0.47344  0.06521  0.80587  1.0000
  H   H1850     1.0  0.50037  0.08602  0.79176  1.0000
  H   H1851     1.0  0.54688  0.04124  0.81348  1.0000
  H   H1852     1.0  0.51990  0.02053  0.82768  1.0000
  H   H1853     1.0  0.35826  0.14508  0.86485  1.0000
  H   H1854     1.0  0.47351  0.21228  0.97441  1.0000
  H   H1855     1.0  0.34546  0.27853  0.87207  1.0000
  H   H1856     1.0  0.35151  0.13182  0.83985  1.0000
  S   S247      1.0  0.62902  0.17596  0.86421  1.0000
  H   H1857     1.0  0.42925  0.20540  0.85198  1.0000
  H   H1858     1.0  0.50999  0.03284  0.78312  1.0000
  C   C1042     1.0  0.45498  0.98046  0.79903  1.0000
  H   H1859     1.0  0.63788  0.05380  0.86293  1.0000
  C   C1043     1.0  0.50516  0.22051  0.97046  1.0000
  H   H1860     1.0  0.49072  0.19711  0.85568  1.0000
  H   H1861     1.0  0.51873  0.02992  0.76140  1.0000
  C   C1044     1.0  0.61923  0.15328  0.86188  1.0000
  H   H1862     1.0  0.48256  0.00684  0.79760  1.0000
  H   H1863     1.0  0.51071  0.17863  0.88790  1.0000
  H   H1864     1.0  0.34634  0.31497  0.86937  1.0000
  H   H1865     1.0  0.49484  0.02524  0.74363  1.0000
  C   C1045     1.0  0.51124  0.02211  0.77343  1.0000
  H   H1866     1.0  0.53028  0.20459  0.87170  1.0000
  H   H1867     1.0  0.48163  0.13324  0.89524  1.0000
  H   H1868     1.0  0.54010  0.15198  0.88319  1.0000
  H   H1869     1.0  0.42315  0.22246  0.83320  1.0000
  H   H1870     1.0  0.57402  0.24566  0.94323  1.0000
  H   H1871     1.0  0.48753  0.05646  0.74973  1.0000
  N   N59       1.0  0.50851  0.22198  0.95128  1.0000
  H   H1872     1.0  0.47787  0.18839  0.87623  1.0000
  N   N60       1.0  0.48916  0.07753  0.86248  1.0000
  C   C1046     1.0  0.46607  0.07715  0.86581  1.0000
  C   C1047     1.0  0.49467  0.08666  0.84428  1.0000
  C   C1048     1.0  0.49963  0.05549  0.86421  1.0000
  C   C1049     1.0  0.49680  0.08897  0.87476  1.0000
  C   C1050     1.0  0.48176  0.10751  0.88141  1.0000
  C   C1051     1.0  0.45835  0.06485  0.88294  1.0000
  C   C1052     1.0  0.52356  0.05201  0.85979  1.0000
  C   C1053     1.0  0.48603  0.10944  0.83953  1.0000
  C   C1054     1.0  0.43520  0.07090  0.88819  1.0000
  C   C1055     1.0  0.53258  0.02972  0.86499  1.0000
  H   H1873     1.0  0.46088  0.07030  0.85550  1.0000
  H   H1874     1.0  0.45730  0.09283  0.86525  1.0000
  H   H1875     1.0  0.48952  0.07755  0.83554  1.0000
  H   H1876     1.0  0.49321  0.04643  0.85607  1.0000
  H   H1877     1.0  0.49635  0.04807  0.87750  1.0000
  H   H1878     1.0  0.50076  0.07847  0.88635  1.0000
  H   H1879     1.0  0.46895  0.10205  0.89067  1.0000
  H   H1880     1.0  0.46101  0.04820  0.88159  1.0000
  H   H1881     1.0  0.46672  0.06715  0.89340  1.0000
  H   H1882     1.0  0.53098  0.06198  0.86627  1.0000
  H   H1883     1.0  0.52797  0.05523  0.84587  1.0000
  H   H1884     1.0  0.46911  0.11243  0.84312  1.0000
  H   H1885     1.0  0.48522  0.13260  0.81748  1.0000
  H   H1886     1.0  0.50534  0.12694  0.88148  1.0000
  H   H1887     1.0  0.43006  0.06117  0.90004  1.0000
  H   H1888     1.0  0.43184  0.08718  0.89063  1.0000
  H   H1889     1.0  0.42624  0.06868  0.87807  1.0000
  H   H1890     1.0  0.52977  0.02575  0.87902  1.0000
  H   H1891     1.0  0.52557  0.01917  0.85872  1.0000
  H   H1892     1.0  0.54957  0.02742  0.86097  1.0000
  C   C1056     1.0  0.56789  0.19090  0.86597  1.0000
  C   C1057     1.0  0.55114  0.17064  0.89886  1.0000
  C   C1058     1.0  0.54802  0.15423  0.91407  1.0000
  H   H1893     1.0  0.35984  0.22778  0.87151  1.0000
  H   H1894     1.0  0.56723  0.15083  0.88063  1.0000
  H   H1895     1.0  0.52207  0.99892  0.79378  1.0000
  H   H1896     1.0  0.56378  0.20023  0.87678  1.0000
  H   H1897     1.0  0.56585  0.17628  0.89963  1.0000
  H   H1898     1.0  0.53317  0.14830  0.91434  1.0000
  H   H1899     1.0  0.56099  0.14130  0.91341  1.0000
  H   H1900     1.0  0.54772  0.16089  0.92606  1.0000
  H   H1901     1.0  0.48113  0.10776  0.81350  1.0000
  C   C1059     1.0  0.37565  0.28134  0.85881  1.0000
  H   H1902     1.0  0.34302  0.02032  0.79015  1.0000
  H   H1903     1.0  0.40337  0.19419  0.83650  1.0000
  N   N61       1.0  0.55167  0.17721  0.86607  1.0000
  C   C1060     1.0  0.53086  0.19057  0.86543  1.0000
  C   C1061     1.0  0.54300  0.23753  0.94742  1.0000
  H   H1904     1.0  0.47458  0.11786  0.87115  1.0000
  C   C1062     1.0  0.36412  0.00767  0.73991  1.0000
  C   C1063     1.0  0.35823  0.01829  0.79487  1.0000
  C   C1064     1.0  0.36245  0.14322  0.83807  1.0000
  H   H1905     1.0  0.36805  0.15579  0.91529  1.0000
  C   C1065     1.0  0.54865  0.00889  0.77793  1.0000
  C   C1066     1.0  0.48950  0.01298  0.75343  1.0000
  C   C1067     1.0  0.41762  0.03641  0.76678  1.0000
  C   C1068     1.0  0.48267  0.00193  0.78480  1.0000
  C   C1069     1.0  0.35209  0.28576  0.85949  1.0000
  H   H1906     1.0  0.48295  0.20653  0.94804  1.0000
  H   H1907     1.0  0.45851  0.07777  0.77770  1.0000
  C   C1070     1.0  0.46810  0.26786  0.93444  1.0000
  H   H1908     1.0  0.45202  0.26921  0.93137  1.0000
  H   H1909     1.0  0.35514  0.31635  0.84728  1.0000
  C   C1071     1.0  0.49162  0.19513  0.86959  1.0000
  H   H1910     1.0  0.37365  0.15876  0.88278  1.0000
  H   H1911     1.0  0.58312  0.18153  0.86799  1.0000
  H   H1912     1.0  0.55441  0.01285  0.76428  1.0000
  C   C1072     1.0  0.61926  0.14820  0.84538  1.0000
  N   N62       1.0  0.48990  0.01827  0.77109  1.0000
  H   H1913     1.0  0.54162  0.13884  0.85988  1.0000
  H   H1914     1.0  0.56831  0.12870  0.83633  1.0000
  H   H1915     1.0  0.49352  0.98737  0.78477  1.0000
  H   H1916     1.0  0.32523  0.24815  0.87244  1.0000
  C   C1073     1.0  0.41536  0.06454  0.74414  1.0000
  C   C1074     1.0  0.36612  0.03904  0.79225  1.0000
  C   C1075     1.0  0.37435  0.00126  0.78698  1.0000
  H   H1917     1.0  0.35512  0.01379  0.80884  1.0000
  H   H1918     1.0  0.39270  0.47257  0.97726  1.0000
  H   H1919     1.0  0.42373  0.00620  0.75897  1.0000
  H   H1920     1.0  0.55914  0.99553  0.78323  1.0000
  H   H1921     1.0  0.35271  0.45714  0.97237  1.0000
  C   C1076     1.0  0.37434  0.17072  0.85168  1.0000
  H   H1922     1.0  0.58190  0.05132  0.75054  1.0000
  C   C1077     1.0  0.61173  0.22388  0.96548  1.0000
  H   H1923     1.0  0.38612  0.21758  0.84021  1.0000
  H   H1924     1.0  0.60714  0.25227  0.97639  1.0000
  H   H1925     1.0  0.44899  0.00977  0.78443  1.0000
  C   C1078     1.0  0.58448  0.22224  0.85244  1.0000
  Fe  Fe126     1.0  0.64517  0.22986  0.89813  1.0000
  C   C1079     1.0  0.33182  0.35200  0.84471  1.0000
  C   C1080     1.0  0.55766  0.16593  0.85058  1.0000
  H   H1926     1.0  0.54057  0.24138  0.96065  1.0000
  H   H1927     1.0  0.38093  0.28931  0.86830  1.0000
  H   H1928     1.0  0.38056  0.26460  0.86186  1.0000
  H   H1929     1.0  0.38325  0.28647  0.84592  1.0000
  H   H1930     1.0  0.56179  0.05480  0.76808  1.0000
  C   C1081     1.0  0.56630  0.23229  0.94238  1.0000
  C   C1082     1.0  0.65369  0.05287  0.74336  1.0000
  H   H1931     1.0  0.51171  0.08588  0.84093  1.0000
  N   N63       1.0  0.37044  0.18607  0.86444  1.0000
  H   H1932     1.0  0.37547  0.17874  0.83844  1.0000
  C   C1083     1.0  0.55323  0.13785  0.83364  1.0000
  H   H1933     1.0  0.53508  0.21637  0.93222  1.0000
  H   H1934     1.0  0.48294  0.16853  0.94669  1.0000
  H   H1935     1.0  0.52864  0.19650  0.85197  1.0000
  C   C1084     1.0  0.41465  0.05750  0.76160  1.0000
  H   H1936     1.0  0.34933  0.00156  0.74045  1.0000
  S   S248      1.0  0.64785  0.19548  0.90512  1.0000
  H   H1937     1.0  0.51092  0.16593  0.86966  1.0000
  C   C1085     1.0  0.36726  0.01216  0.75781  1.0000
  H   H1938     1.0  0.49964  0.11090  0.90144  1.0000
  H   H1939     1.0  0.35402  0.02383  0.76178  1.0000
  H   H1940     1.0  0.55759  0.17686  0.83868  1.0000
  C   C1086     1.0  0.65431  0.09657  0.80326  1.0000
  C   C1087     1.0  0.37151  0.18331  0.89730  1.0000
  H   H1941     1.0  0.57675  0.23112  0.86296  1.0000
  H   H1942     1.0  0.49977  0.97962  0.75841  1.0000
  C   C1088     1.0  0.39007  0.19543  0.86333  1.0000
  Fe  Fe127     1.0  0.62536  0.19522  0.88646  1.0000
  C   C1089     1.0  0.47499  0.03789  0.77308  1.0000
  S   S249      1.0  0.64694  0.05635  0.77761  1.0000
  C   C1090     1.0  0.48240  0.05792  0.76332  1.0000
  H   H1943     1.0  0.61182  0.30649  0.91981  1.0000
  C   C1091     1.0  0.46520  0.07621  0.76428  1.0000
  H   H1944     1.0  0.47114  0.04022  0.78676  1.0000
  H   H1945     1.0  0.45992  0.03694  0.76879  1.0000
  H   H1946     1.0  0.38847  0.20692  0.87237  1.0000
  H   H1947     1.0  0.62463  0.15847  0.83446  1.0000
  H   H1948     1.0  0.53957  0.20567  0.95324  1.0000
  C   C1092     1.0  0.57144  0.20633  0.84968  1.0000
  H   H1949     1.0  0.49557  0.06178  0.76877  1.0000
  H   H1950     1.0  0.60538  0.28243  0.93106  1.0000
  H   H1951     1.0  0.59995  0.21456  0.85551  1.0000
  H   H1952     1.0  0.45275  0.07438  0.75694  1.0000
  H   H1953     1.0  0.55655  0.21468  0.84584  1.0000
  H   H1954     1.0  0.47146  0.09053  0.75867  1.0000
  H   H1955     1.0  0.33818  0.19475  0.86090  1.0000
  H   H1956     1.0  0.51197  0.23273  0.97482  1.0000
  C   C1093     1.0  0.34649  0.21984  0.87096  1.0000
  H   H1957     1.0  0.36714  0.17883  0.92493  1.0000
  C   C1094     1.0  0.54375  0.15010  0.84837  1.0000
  C   C1095     1.0  0.62161  0.99062  0.74948  1.0000
  H   H1958     1.0  0.50337  0.17028  0.92909  1.0000
  H   H1959     1.0  0.46579  0.23967  0.95093  1.0000
  C   C1096     1.0  0.41682  0.21640  0.84626  1.0000
  H   H1960     1.0  0.40275  0.18338  0.86741  1.0000
  H   H1961     1.0  0.49106  0.21040  0.87384  1.0000
  H   H1962     1.0  0.46088  0.98941  0.77211  1.0000
  C   C1097     1.0  0.64515  0.26699  0.93991  1.0000
  C   C1098     1.0  0.35491  0.97990  0.83982  1.0000
  H   H1963     1.0  0.65036  0.07318  0.83529  1.0000
  H   H1964     1.0  0.41213  0.22946  0.85387  1.0000
  H   H1965     1.0  0.61283  0.12615  0.83012  1.0000
  H   H1966     1.0  0.55564  0.14822  0.82155  1.0000
  C   C1099     1.0  0.48246  0.22253  0.97906  1.0000
  H   H1967     1.0  0.38979  0.00659  0.78427  1.0000
  H   H1968     1.0  0.52842  0.15816  0.84528  1.0000
  H   H1969     1.0  0.38956  0.16080  0.85282  1.0000
  H   H1970     1.0  0.34762  0.27829  0.84934  1.0000
  C   C1100     1.0  0.50000  0.20518  0.94490  1.0000
  H   H1971     1.0  0.57290  0.21898  0.95097  1.0000
  C   C1101     1.0  0.47625  0.24536  0.93977  1.0000
  H   H1972     1.0  0.47513  0.23668  0.92916  1.0000
  H   H1973     1.0  0.62410  0.28281  0.91211  1.0000
  C   C1102     1.0  0.50860  0.18286  0.95159  1.0000
  S   S250      1.0  0.32874  0.33523  0.90090  1.0000
  C   C1103     1.0  0.55112  0.06330  0.74332  1.0000
  C   C1104     1.0  0.42912  0.19585  0.97945  1.0000
  C   C1105     1.0  0.42149  0.02946  0.73737  1.0000
  C   C1106     1.0  0.49996  0.16744  0.94317  1.0000
  C   C1107     1.0  0.35798  0.15600  0.85297  1.0000
  H   H1974     1.0  0.53751  0.07402  0.74823  1.0000
  C   C1108     1.0  0.32786  0.29304  0.90899  1.0000
  C   C1109     1.0  0.32956  0.23594  0.86392  1.0000
  C   C1110     1.0  0.49916  0.24277  0.94323  1.0000
  H   H1975     1.0  0.33572  0.99756  0.77580  1.0000
  H   H1976     1.0  0.33383  0.38412  0.83611  1.0000
  H   H1977     1.0  0.50281  0.20687  0.93072  1.0000
  C   C1111     1.0  0.64077  0.98765  0.78282  1.0000
  C   C1112     1.0  0.64005  0.06084  0.75680  1.0000
  H   H1978     1.0  0.64727  0.29837  0.92703  1.0000
  C   C1113     1.0  0.40798  0.20335  0.98017  1.0000
  H   H1979     1.0  0.50413  0.17978  0.96555  1.0000
  H   H1980     1.0  0.33313  0.31590  0.98326  1.0000
  H   H1981     1.0  0.54270  0.12706  0.83196  1.0000
  H   H1982     1.0  0.34518  0.17507  0.91545  1.0000
  H   H1983     1.0  0.36946  0.04464  0.77852  1.0000
  C   C1114     1.0  0.59085  0.98139  0.80728  1.0000
  H   H1984     1.0  0.41306  0.08086  0.73999  1.0000
  C   C1115     1.0  0.64473  0.00033  0.79615  1.0000
  H   H1985     1.0  0.33577  0.31068  0.82776  1.0000
  H   H1986     1.0  0.52569  0.17980  0.94878  1.0000
  H   H1987     1.0  0.45465  0.98664  0.81128  1.0000
  H   H1988     1.0  0.36647  0.19997  0.89723  1.0000
  H   H1989     1.0  0.50705  0.15162  0.94754  1.0000
  Fe  Fe128     1.0  0.61972  0.20238  0.92419  1.0000
  H   H1990     1.0  0.61199  0.14360  0.88863  1.0000
  C   C1116     1.0  0.61207  0.13996  0.87586  1.0000
  C   C1117     1.0  0.61266  0.12986  0.84286  1.0000
  S   S251      1.0  0.61818  0.18730  0.95160  1.0000
  H   H1991     1.0  0.50693  0.11234  0.81567  1.0000
  H   H1992     1.0  0.35503  0.20859  0.84631  1.0000
  C   C1118     1.0  0.49288  0.12037  0.89045  1.0000
  H   H1993     1.0  0.49376  0.11934  0.84585  1.0000
  C   C1119     1.0  0.55249  0.16172  0.88181  1.0000
  H   H1994     1.0  0.53835  0.18360  0.90006  1.0000
  C   C1120     1.0  0.49016  0.11585  0.82036  1.0000
  C   C1121     1.0  0.36541  0.17474  0.88201  1.0000
  H   H1995     1.0  0.51164  0.09446  0.86891  1.0000
  H   H1996     1.0  0.47327  0.01260  0.75123  1.0000
  H   H1997     1.0  0.47781  0.27405  0.92290  1.0000
  H   H1998     1.0  0.50077  0.25493  0.95096  1.0000
  H   H1999     1.0  0.38862  0.18055  0.89683  1.0000
  C   C1122     1.0  0.62124  0.07270  0.75345  1.0000
  C   C1123     1.0  0.39818  0.20580  0.84549  1.0000
  H   H2000     1.0  0.60838  0.23124  0.95313  1.0000
  H   H2001     1.0  0.63469  0.07584  0.87441  1.0000
  C   C1124     1.0  0.53165  0.21933  0.94576  1.0000
  C   C1125     1.0  0.51133  0.18096  0.87383  1.0000
  C   C1126     1.0  0.56770  0.06150  0.75511  1.0000
  C   C1127     1.0  0.61816  0.29029  0.92376  1.0000
  H   H2002     1.0  0.34863  0.17320  0.88457  1.0000
  C   C1128     1.0  0.61664  0.20256  0.96828  1.0000
  H   H2003     1.0  0.50784  0.24674  0.93044  1.0000
  C   C1129     1.0  0.62038  0.19321  0.98467  1.0000
  C   C1130     1.0  0.46104  0.99619  0.78397  1.0000
  C   C1131     1.0  0.52670  0.00349  0.77997  1.0000
  H   H2004     1.0  0.56962  0.22862  0.92906  1.0000
  H   H2005     1.0  0.38043  0.03777  0.79832  1.0000
  H   H2006     1.0  0.35427  0.05053  0.79832  1.0000
  C   C1132     1.0  0.64432  0.11223  0.78985  1.0000
  H   H2007     1.0  0.64396  0.09539  0.84551  1.0000
  C   C1133     1.0  0.63549  0.28953  0.93469  1.0000
  C   C1134     1.0  0.37429  0.98661  0.83668  1.0000
  H   H2008     1.0  0.34209  0.16447  0.85279  1.0000
  N   N64       1.0  0.64467  0.98634  0.75014  1.0000
  H   H2009     1.0  0.54907  0.02198  0.78498  1.0000
  C   C1135     1.0  0.34422  0.30915  0.85746  1.0000
  H   H2010     1.0  0.51953  0.99444  0.74727  1.0000
  H   H2011     1.0  0.62867  0.29750  0.94589  1.0000
  C   C1136     1.0  0.50288  0.99280  0.74872  1.0000
  H   H2012     1.0  0.32401  0.45318  0.90143  1.0000
  H   H2013     1.0  0.33700  0.34750  0.83177  1.0000
  C   C1137     1.0  0.34913  0.98516  0.77447  1.0000
  H   H2014     1.0  0.34576  0.35063  0.85133  1.0000
  H   H2015     1.0  0.52725  0.98996  0.77333  1.0000
  N   N65       1.0  0.36933  0.99383  0.77131  1.0000
  H   H2016     1.0  0.36059  0.15317  0.82584  1.0000
  C   C1138     1.0  0.65150  0.27467  0.96757  1.0000
  H   H2017     1.0  0.63858  0.99354  0.80905  1.0000
  H   H2018     1.0  0.61071  0.07903  0.76372  1.0000
  C   C1139     1.0  0.35241  0.20199  0.85989  1.0000
  C   C1140     1.0  0.38273  0.46644  0.96975  1.0000
  H   H2019     1.0  0.34014  0.21399  0.88405  1.0000
  H   H2020     1.0  0.54614  0.04811  0.74443  1.0000
  H   H2021     1.0  0.65175  0.23533  0.96522  1.0000
  C   C1141     1.0  0.64592  0.06286  0.86981  1.0000
  H   H2022     1.0  0.39074  0.45138  0.96616  1.0000
  H   H2023     1.0  0.61305  0.98305  0.76099  1.0000
  H   H2024     1.0  0.63132  0.12262  0.79596  1.0000
  H   H2025     1.0  0.32925  0.47726  0.95898  1.0000
  H   H2026     1.0  0.63810  0.10410  0.78097  1.0000
  H   H2027     1.0  0.37647  0.98849  0.79739  1.0000
  H   H2028     1.0  0.64225  0.08757  0.81014  1.0000
  H   H2029     1.0  0.46798  0.27716  0.94491  1.0000
  C   C1142     1.0  0.59167  0.98134  0.73676  1.0000
  H   H2030     1.0  0.65210  0.26094  0.92775  1.0000
  C   C1143     1.0  0.61643  0.07717  0.73666  1.0000
  H   H2031     1.0  0.58176  0.99564  0.74021  1.0000
  H   H2032     1.0  0.47490  0.23864  0.97662  1.0000
  H   H2033     1.0  0.63669  0.01626  0.79393  1.0000
  H   H2034     1.0  0.64425  0.01304  0.76281  1.0000
  H   H2035     1.0  0.65049  0.11821  0.82135  1.0000
  C   C1144     1.0  0.64961  0.99618  0.76466  1.0000
  H   H2036     1.0  0.33517  0.24300  0.85098  1.0000
  H   H2037     1.0  0.34166  0.98954  0.84556  1.0000
  H   H2038     1.0  0.51367  0.20590  0.97614  1.0000
  H   H2039     1.0  0.65348  0.29119  0.96497  1.0000
  H   H2040     1.0  0.38059  0.47707  0.95788  1.0000
  N   N66       1.0  0.32213  0.31548  0.85360  1.0000
  C   C1145     1.0  0.32220  0.37456  0.84305  1.0000
  H   H2041     1.0  0.40648  0.97881  0.82699  1.0000
  Fe  Fe129     1.0  0.41077  0.73576  0.07566  1.0000
  S   S252      1.0  0.41082  0.70755  0.09468  1.0000
  S   S253      1.0  0.40616  0.76901  0.08084  1.0000
  Fe  Fe130     1.0  0.42439  0.71024  0.04563  1.0000
  S   S254      1.0  0.42556  0.68027  0.06268  1.0000
  S   S255      1.0  0.43749  0.70984  0.01797  1.0000
  Fe  Fe131     1.0  0.39527  0.69449  0.07600  1.0000
  S   S256      1.0  0.36422  0.68201  0.08266  1.0000
  Fe  Fe132     1.0  0.44095  0.69618  0.07931  1.0000
  S   S257      1.0  0.47037  0.68355  0.09114  1.0000
  S   S258      1.0  0.39340  0.72381  0.05783  1.0000
  S   S259      1.0  0.44149  0.72509  0.06143  1.0000
  Fe  Fe133     1.0  0.62783  0.71620  0.04404  1.0000
  S   S260      1.0  0.61304  0.68769  0.04914  1.0000
  H   H2042     1.0  0.53259  0.67151  0.03663  1.0000
  Fe  Fe134     1.0  0.61491  0.72722  0.08058  1.0000
  S   S261      1.0  0.59893  0.69903  0.08763  1.0000
  S   S262      1.0  0.61381  0.74487  0.10355  1.0000
  Fe  Fe135     1.0  0.62739  0.68206  0.07343  1.0000
  H   H2043     1.0  0.52567  0.75439  0.00555  1.0000
  Fe  Fe136     1.0  0.58639  0.70734  0.06251  1.0000
  S   S263      1.0  0.55501  0.71090  0.05302  1.0000
  H   H2044     1.0  0.60295  0.75745  0.99189  1.0000
  S   S264      1.0  0.60064  0.73642  0.05619  1.0000
  S   S265      1.0  0.59197  0.88436  0.14533  1.0000
  Fe  Fe137     1.0  0.60929  0.84619  0.18329  1.0000
  S   S266      1.0  0.59480  0.87829  0.18665  1.0000
  Fe  Fe138     1.0  0.57276  0.87346  0.16938  1.0000
  S   S267      1.0  0.53958  0.88847  0.17402  1.0000
  H   H2045     1.0  0.62135  0.78400  0.01262  1.0000
  S   S268      1.0  0.58530  0.84011  0.16816  1.0000
  Fe  Fe139     1.0  0.40728  0.82960  0.16036  1.0000
  S   S269      1.0  0.43512  0.81612  0.17336  1.0000
  S   S270      1.0  0.39156  0.80550  0.15153  1.0000
  Fe  Fe140     1.0  0.41060  0.87303  0.16818  1.0000
  S   S271      1.0  0.43887  0.86216  0.18123  1.0000
  S   S272      1.0  0.39647  0.90629  0.16966  1.0000
  Fe  Fe141     1.0  0.44880  0.84336  0.15961  1.0000
  S   S273      1.0  0.48150  0.83766  0.14720  1.0000
  Fe  Fe142     1.0  0.42219  0.83618  0.19373  1.0000
  S   S274      1.0  0.42358  0.82300  0.22130  1.0000
  S   S275      1.0  0.42189  0.85607  0.14523  1.0000
  S   S276      1.0  0.39302  0.84783  0.18207  1.0000
  H   H2046     1.0  0.48771  0.64557  0.02514  1.0000
  C   C1146     1.0  0.41174  0.92643  0.16459  1.0000
  C   C1147     1.0  0.43147  0.92373  0.15526  1.0000
  C   C1148     1.0  0.44246  0.94054  0.15032  1.0000
  C   C1149     1.0  0.57983  0.89170  0.10109  1.0000
  C   C1150     1.0  0.41468  0.96256  0.16485  1.0000
  C   C1151     1.0  0.40351  0.94585  0.16949  1.0000
  H   H2047     1.0  0.43794  0.90887  0.15139  1.0000
  H   H2048     1.0  0.45742  0.93848  0.14266  1.0000
  C   C1152     1.0  0.33559  0.65658  0.08092  1.0000
  H   H2049     1.0  0.38824  0.94804  0.17664  1.0000
  C   C1153     1.0  0.52275  0.87414  0.16761  1.0000
  C   C1154     1.0  0.52919  0.85352  0.16560  1.0000
  C   C1155     1.0  0.51614  0.84219  0.15988  1.0000
  C   C1156     1.0  0.49663  0.85153  0.15596  1.0000
  C   C1157     1.0  0.48969  0.87194  0.15866  1.0000
  C   C1158     1.0  0.50283  0.88330  0.16444  1.0000
  H   H2050     1.0  0.54415  0.84614  0.16851  1.0000
  H   H2051     1.0  0.52132  0.82625  0.15819  1.0000
  H   H2052     1.0  0.47444  0.87912  0.15583  1.0000
  H   H2053     1.0  0.49771  0.89927  0.16604  1.0000
  C   C1159     1.0  0.47948  0.96168  0.18473  1.0000
  H   H2054     1.0  0.61345  0.67175  0.99479  1.0000
  N   N67       1.0  0.38062  0.65792  0.01493  1.0000
  C   C1160     1.0  0.32895  0.63843  0.07785  1.0000
  C   C1161     1.0  0.61241  0.77089  0.10753  1.0000
  C   C1162     1.0  0.61410  0.78720  0.09446  1.0000
  C   C1163     1.0  0.61352  0.80736  0.09839  1.0000
  C   C1164     1.0  0.61122  0.81160  0.11540  1.0000
  C   C1165     1.0  0.60940  0.79531  0.12845  1.0000
  C   C1166     1.0  0.60999  0.77517  0.12452  1.0000
  H   H2055     1.0  0.61604  0.78426  0.08133  1.0000
  H   H2056     1.0  0.60752  0.79823  0.14158  1.0000
  H   H2057     1.0  0.50902  0.88427  0.21945  1.0000
  C   C1167     1.0  0.35673  0.65891  0.07822  1.0000
  H   H2058     1.0  0.59348  0.67145  0.13265  1.0000
  C   C1168     1.0  0.34343  0.62223  0.07218  1.0000
  C   C1169     1.0  0.36456  0.62458  0.06954  1.0000
  C   C1170     1.0  0.37117  0.64281  0.07238  1.0000
  H   H2059     1.0  0.37594  0.61207  0.06542  1.0000
  H   H2060     1.0  0.38749  0.64420  0.07042  1.0000
  C   C1171     1.0  0.49402  0.69105  0.08065  1.0000
  C   C1172     1.0  0.49521  0.70163  0.06421  1.0000
  C   C1173     1.0  0.51398  0.70768  0.05609  1.0000
  C   C1174     1.0  0.53193  0.70293  0.06416  1.0000
  C   C1175     1.0  0.53095  0.69212  0.08054  1.0000
  C   C1176     1.0  0.51200  0.68623  0.08877  1.0000
  H   H2061     1.0  0.48175  0.70488  0.05758  1.0000
  H   H2062     1.0  0.51460  0.71601  0.04342  1.0000
  H   H2063     1.0  0.54473  0.68832  0.08686  1.0000
  H   H2064     1.0  0.51128  0.67787  0.10144  1.0000
  C   C1177     1.0  0.39899  0.79475  0.13211  1.0000
  C   C1178     1.0  0.40418  0.80691  0.11678  1.0000
  C   C1179     1.0  0.40700  0.79860  0.10122  1.0000
  C   C1180     1.0  0.40527  0.77792  0.10084  1.0000
  C   C1181     1.0  0.40118  0.76545  0.11623  1.0000
  C   C1182     1.0  0.39761  0.77395  0.13174  1.0000
  H   H2065     1.0  0.40501  0.82299  0.11686  1.0000
  H   H2066     1.0  0.41005  0.80841  0.08940  1.0000
  H   H2067     1.0  0.39969  0.74954  0.11612  1.0000
  H   H2068     1.0  0.39345  0.76447  0.14352  1.0000
  H   H2069     1.0  0.59931  0.93305  0.14321  1.0000
  C   C1183     1.0  0.62781  0.71986  0.00146  1.0000
  C   C1184     1.0  0.60766  0.71524  0.00616  1.0000
  H   H2070     1.0  0.55021  0.97688  0.14132  1.0000
  H   H2071     1.0  0.60120  0.71357  0.01942  1.0000
  H   H2072     1.0  0.51594  0.86221  0.05826  1.0000
  C   C1185     1.0  0.39972  0.71916  0.00557  1.0000
  C   C1186     1.0  0.42091  0.71216  0.00228  1.0000
  C   C1187     1.0  0.53751  0.97070  0.15026  1.0000
  H   H2073     1.0  0.36099  0.76178  0.07544  1.0000
  H   H2074     1.0  0.39321  0.72345  0.01799  1.0000
  H   H2075     1.0  0.48056  0.89106  0.12140  1.0000
  H   H2076     1.0  0.33976  0.67853  0.02045  1.0000
  S   S277      1.0  0.64260  0.64998  0.08360  1.0000
  H   H2077     1.0  0.54409  0.84997  0.19962  1.0000
  H   H2078     1.0  0.34366  0.66528  0.04121  1.0000
  C   C1188     1.0  0.55820  0.75719  0.00547  1.0000
  H   H2079     1.0  0.41091  0.64587  0.00261  1.0000
  H   H2080     1.0  0.53812  0.89574  0.08115  1.0000
  H   H2081     1.0  0.55805  0.84440  0.21779  1.0000
  H   H2082     1.0  0.35506  0.65656  0.00112  1.0000
  H   H2083     1.0  0.57922  0.64814  0.98894  1.0000
  H   H2084     1.0  0.53980  0.87299  0.05345  1.0000
  H   H2085     1.0  0.56689  0.65114  0.02673  1.0000
  H   H2086     1.0  0.51443  0.86552  0.08866  1.0000
  H   H2087     1.0  0.45489  0.91695  0.18548  1.0000
  H   H2088     1.0  0.38809  0.96365  0.22072  1.0000
  N   N68       1.0  0.48526  0.86452  0.22534  1.0000
  H   H2089     1.0  0.56626  0.82065  0.13176  1.0000
  C   C1189     1.0  0.50936  0.90226  0.10949  1.0000
  H   H2090     1.0  0.62359  0.68263  0.14230  1.0000
  C   C1190     1.0  0.37225  0.67437  0.02635  1.0000
  H   H2091     1.0  0.62575  0.64881  0.02370  1.0000
  C   C1191     1.0  0.54154  0.67655  0.02429  1.0000
  H   H2092     1.0  0.50816  0.86936  0.20321  1.0000
  H   H2093     1.0  0.36504  0.76809  0.10365  1.0000
  H   H2094     1.0  0.54348  0.73089  0.00308  1.0000
  H   H2095     1.0  0.33845  0.79815  0.12988  1.0000
  N   N69       1.0  0.63391  0.91230  0.22346  1.0000
  C   C1192     1.0  0.55866  0.80820  0.99521  1.0000
  H   H2096     1.0  0.49412  0.66110  0.05797  1.0000
  H   H2097     1.0  0.64335  0.68133  0.10504  1.0000
  H   H2098     1.0  0.46361  0.82319  0.19926  1.0000
  N   N70       1.0  0.47894  0.75368  0.10426  1.0000
  C   C1193     1.0  0.47677  0.76822  0.11745  1.0000
  C   C1194     1.0  0.50019  0.74114  0.10374  1.0000
  C   C1195     1.0  0.47580  0.76612  0.08726  1.0000
  C   C1196     1.0  0.46285  0.73935  0.10848  1.0000
  C   C1197     1.0  0.46195  0.72679  0.12642  1.0000
  C   C1198     1.0  0.45490  0.78041  0.12145  1.0000
  C   C1199     1.0  0.48238  0.75439  0.07147  1.0000
  C   C1200     1.0  0.51866  0.75359  0.09917  1.0000
  C   C1201     1.0  0.53930  0.73949  0.09656  1.0000
  C   C1202     1.0  0.44363  0.71472  0.12983  1.0000
  C   C1203     1.0  0.45503  0.79542  0.13417  1.0000
  C   C1204     1.0  0.47542  0.76732  0.05539  1.0000
  H   H2099     1.0  0.48739  0.77989  0.11327  1.0000
  H   H2100     1.0  0.48181  0.76001  0.12962  1.0000
  H   H2101     1.0  0.50229  0.73221  0.11638  1.0000
  H   H2102     1.0  0.50193  0.72936  0.09488  1.0000
  H   H2103     1.0  0.48414  0.77970  0.08514  1.0000
  H   H2104     1.0  0.45915  0.77265  0.08708  1.0000
  H   H2105     1.0  0.44710  0.74788  0.10695  1.0000
  H   H2106     1.0  0.46549  0.72789  0.09927  1.0000
  H   H2107     1.0  0.46014  0.73675  0.13666  1.0000
  H   H2108     1.0  0.47623  0.71552  0.12746  1.0000
  H   H2109     1.0  0.44955  0.78947  0.10976  1.0000
  H   H2110     1.0  0.44347  0.77003  0.12708  1.0000
  H   H2111     1.0  0.47548  0.74008  0.07320  1.0000
  H   H2112     1.0  0.49947  0.75031  0.06920  1.0000
  H   H2113     1.0  0.51724  0.76441  0.08737  1.0000
  H   H2114     1.0  0.51948  0.76252  0.10968  1.0000
  H   H2115     1.0  0.54130  0.72783  0.10784  1.0000
  H   H2116     1.0  0.54013  0.73164  0.08512  1.0000
  H   H2117     1.0  0.55229  0.74865  0.09458  1.0000
  H   H2118     1.0  0.44490  0.70399  0.12019  1.0000
  H   H2119     1.0  0.44350  0.70562  0.14261  1.0000
  H   H2120     1.0  0.42879  0.72530  0.12952  1.0000
  H   H2121     1.0  0.46580  0.80665  0.12896  1.0000
  H   H2122     1.0  0.43929  0.80408  0.13681  1.0000
  H   H2123     1.0  0.45969  0.78709  0.14638  1.0000
  H   H2124     1.0  0.48050  0.75854  0.04434  1.0000
  H   H2125     1.0  0.45825  0.77104  0.05676  1.0000
  H   H2126     1.0  0.48233  0.78176  0.05285  1.0000
  H   H2127     1.0  0.65012  0.66029  0.12019  1.0000
  H   H2128     1.0  0.33875  0.52939  0.02286  1.0000
  H   H2129     1.0  0.36573  0.67985  0.99596  1.0000
  H   H2130     1.0  0.33560  0.77591  0.07622  1.0000
  C   C1205     1.0  0.42929  0.70696  0.98606  1.0000
  S   S278      1.0  0.64314  0.72272  0.01701  1.0000
  H   H2131     1.0  0.51166  0.64567  0.03324  1.0000
  C   C1206     1.0  0.37596  0.63767  0.02460  1.0000
  H   H2132     1.0  0.57981  0.71007  0.99746  1.0000
  H   H2133     1.0  0.54434  0.83694  0.00442  1.0000
  H   H2134     1.0  0.46251  0.84589  0.22148  1.0000
  H   H2135     1.0  0.47826  0.91838  0.11530  1.0000
  C   C1207     1.0  0.61340  0.78712  0.98669  1.0000
  H   H2136     1.0  0.63261  0.88039  0.22178  1.0000
  H   H2137     1.0  0.46530  0.95948  0.17967  1.0000
  H   H2138     1.0  0.32424  0.66886  0.08550  1.0000
  H   H2139     1.0  0.58690  0.96966  0.13373  1.0000
  H   H2140     1.0  0.44379  0.66612  0.00907  1.0000
  C   C1208     1.0  0.62925  0.95206  0.21915  1.0000
  H   H2141     1.0  0.61494  0.81978  0.08816  1.0000
  C   C1209     1.0  0.43964  0.65368  0.01923  1.0000
  C   C1210     1.0  0.49184  0.70993  0.99066  1.0000
  H   H2142     1.0  0.37433  0.69610  0.11697  1.0000
  C   C1211     1.0  0.62335  0.68232  0.12854  1.0000
  C   C1212     1.0  0.34809  0.76836  0.10726  1.0000
  H   H2143     1.0  0.56799  0.81501  0.11005  1.0000
  C   C1213     1.0  0.34147  0.69800  0.03908  1.0000
  H   H2144     1.0  0.57178  0.74726  0.01043  1.0000
  H   H2145     1.0  0.59543  0.78865  0.22305  1.0000
  H   H2146     1.0  0.60636  0.85670  0.22508  1.0000
  H   H2147     1.0  0.37394  0.61970  0.00419  1.0000
  H   H2148     1.0  0.43568  0.75123  0.98989  1.0000
  H   H2149     1.0  0.61534  0.65134  0.13379  1.0000
  C   C1214     1.0  0.34839  0.67786  0.03143  1.0000
  H   H2150     1.0  0.59454  0.93047  0.21469  1.0000
  H   H2151     1.0  0.36549  0.85588  0.23488  1.0000
  H   H2152     1.0  0.63928  0.95282  0.22893  1.0000
  H   H2153     1.0  0.47788  0.70881  0.00006  1.0000
  H   H2154     1.0  0.55890  0.87557  0.07931  1.0000
  C   C1215     1.0  0.59868  0.96582  0.14218  1.0000
  H   H2155     1.0  0.34706  0.69406  0.12040  1.0000
  Fe  Fe143     1.0  0.61507  0.88714  0.16250  1.0000
  H   H2156     1.0  0.57433  0.67440  0.01423  1.0000
  H   H2157     1.0  0.64113  0.62049  0.99271  1.0000
  C   C1216     1.0  0.54002  0.74494  0.00957  1.0000
  H   H2158     1.0  0.46957  0.66578  0.04960  1.0000
  C   C1217     1.0  0.48455  0.65544  0.04986  1.0000
  C   C1218     1.0  0.56434  0.66816  0.02555  1.0000
  H   H2159     1.0  0.45336  0.87892  0.22437  1.0000
  H   H2160     1.0  0.51674  0.91585  0.11022  1.0000
  H   H2161     1.0  0.36018  0.48801  0.99520  1.0000
  H   H2162     1.0  0.52503  0.97081  0.14225  1.0000
  H   H2163     1.0  0.48722  0.94640  0.18980  1.0000
  H   H2164     1.0  0.36026  0.69656  0.13801  1.0000
  C   C1219     1.0  0.62325  0.82616  0.22505  1.0000
  C   C1220     1.0  0.54517  0.85475  0.21214  1.0000
  C   C1221     1.0  0.61497  0.84413  0.23241  1.0000
  H   H2165     1.0  0.48144  0.63992  0.05574  1.0000
  H   H2166     1.0  0.33912  0.72941  0.12885  1.0000
  H   H2167     1.0  0.60864  0.76277  0.13478  1.0000
  C   C1222     1.0  0.37833  0.59906  0.02682  1.0000
  H   H2168     1.0  0.53574  0.93505  0.13578  1.0000
  C   C1223     1.0  0.63140  0.97055  0.20567  1.0000
  H   H2169     1.0  0.65211  0.71412  0.10513  1.0000
  C   C1224     1.0  0.36997  0.66292  0.99899  1.0000
  C   C1225     1.0  0.55031  0.93555  0.14102  1.0000
  H   H2170     1.0  0.55514  0.95703  0.18642  1.0000
  H   H2171     1.0  0.48907  0.66983  0.99192  1.0000
  C   C1226     1.0  0.41641  0.65688  0.02533  1.0000
  C   C1227     1.0  0.49702  0.67618  0.02207  1.0000
  H   H2172     1.0  0.48094  0.68216  0.01934  1.0000
  H   H2173     1.0  0.49348  0.74087  0.99575  1.0000
  H   H2174     1.0  0.43794  0.90451  0.20201  1.0000
  H   H2175     1.0  0.65106  0.75213  0.12388  1.0000
  Fe  Fe144     1.0  0.60617  0.85101  0.14502  1.0000
  H   H2176     1.0  0.37708  0.68921  0.02022  1.0000
  S   S279      1.0  0.33628  0.59891  0.06785  1.0000
  H   H2177     1.0  0.33891  0.74578  0.04005  1.0000
  C   C1228     1.0  0.63005  0.95570  0.16303  1.0000
  C   C1229     1.0  0.34385  0.80392  0.11649  1.0000
  H   H2178     1.0  0.55697  0.91960  0.14541  1.0000
  H   H2179     1.0  0.58928  0.77574  0.00480  1.0000
  C   C1230     1.0  0.55204  0.83139  0.99228  1.0000
  H   H2180     1.0  0.44438  0.63865  0.01426  1.0000
  C   C1231     1.0  0.52956  0.86570  0.08057  1.0000
  N   N71       1.0  0.54433  0.87806  0.10518  1.0000
  S   S280      1.0  0.61017  0.83749  0.11956  1.0000
  S   S281      1.0  0.63165  0.91407  0.16423  1.0000
  H   H2181     1.0  0.44828  0.65392  0.03006  1.0000
  H   H2182     1.0  0.37053  0.72603  0.99527  1.0000
  C   C1232     1.0  0.62156  0.93992  0.15786  1.0000
  C   C1233     1.0  0.43402  0.96006  0.15492  1.0000
  H   H2183     1.0  0.34345  0.79798  0.09106  1.0000
  H   H2184     1.0  0.48440  0.80665  0.20891  1.0000
  C   C1234     1.0  0.62257  0.97646  0.15815  1.0000
  C   C1235     1.0  0.40363  0.65829  0.01034  1.0000
  H   H2185     1.0  0.41287  0.67145  0.03108  1.0000
  H   H2186     1.0  0.56756  0.79232  0.22567  1.0000
  H   H2187     1.0  0.64253  0.95186  0.17083  1.0000
  H   H2188     1.0  0.50658  0.64852  0.99918  1.0000
  H   H2189     1.0  0.60644  0.90784  0.09817  1.0000
  H   H2190     1.0  0.34582  0.76390  0.12129  1.0000
  H   H2191     1.0  0.38286  0.58557  0.01967  1.0000
  H   H2192     1.0  0.49773  0.96189  0.16022  1.0000
  C   C1236     1.0  0.54325  0.87956  0.08631  1.0000
  H   H2193     1.0  0.51601  0.88846  0.06131  1.0000
  H   H2194     1.0  0.62507  0.89735  0.20396  1.0000
  H   H2195     1.0  0.54965  0.90982  0.10191  1.0000
  H   H2196     1.0  0.61309  0.64490  0.00006  1.0000
  H   H2197     1.0  0.58684  0.91486  0.11533  1.0000
  H   H2198     1.0  0.56262  0.85893  0.12349  1.0000
  H   H2199     1.0  0.54764  0.80681  0.12591  1.0000
  H   H2200     1.0  0.38274  0.63474  0.03675  1.0000
  H   H2201     1.0  0.50609  0.83485  0.20178  1.0000
  H   H2202     1.0  0.48537  0.85112  0.19246  1.0000
  H   H2203     1.0  0.64130  0.79175  0.99613  1.0000
  H   H2204     1.0  0.56084  0.94724  0.16117  1.0000
  H   H2205     1.0  0.33500  0.77142  0.04581  1.0000
  H   H2206     1.0  0.51999  0.96103  0.18413  1.0000
  H   H2207     1.0  0.37891  0.67088  0.03863  1.0000
  S   S282      1.0  0.63137  0.85487  0.16009  1.0000
  C   C1237     1.0  0.48065  0.81991  0.19921  1.0000
  C   C1238     1.0  0.60960  0.66646  0.12697  1.0000
  C   C1239     1.0  0.35926  0.70148  0.12426  1.0000
  H   H2208     1.0  0.41238  0.86732  0.21902  1.0000
  H   H2209     1.0  0.36030  0.75611  0.04552  1.0000
  H   H2210     1.0  0.51387  0.86953  0.11518  1.0000
  H   H2211     1.0  0.58275  0.92404  0.09352  1.0000
  C   C1240     1.0  0.45320  0.91014  0.19905  1.0000
  S   S283      1.0  0.64396  0.70962  0.06767  1.0000
  H   H2212     1.0  0.48766  0.81574  0.18644  1.0000
  C   C1241     1.0  0.49608  0.65441  0.03192  1.0000
  C   C1242     1.0  0.58946  0.91082  0.10212  1.0000
  H   H2213     1.0  0.58826  0.87859  0.10869  1.0000
  H   H2214     1.0  0.37489  0.97781  0.19370  1.0000
  H   H2215     1.0  0.34424  0.52256  0.99269  1.0000
  H   H2216     1.0  0.58271  0.88878  0.08761  1.0000
  C   C1243     1.0  0.64999  0.65713  0.00307  1.0000
  C   C1244     1.0  0.38692  0.72064  0.99271  1.0000
  C   C1245     1.0  0.47080  0.89247  0.20187  1.0000
  H   H2217     1.0  0.53999  0.69353  0.02261  1.0000
  H   H2218     1.0  0.45353  0.92233  0.20708  1.0000
  H   H2219     1.0  0.38728  0.59662  0.03784  1.0000
  H   H2220     1.0  0.48559  0.89874  0.19781  1.0000
  H   H2221     1.0  0.52474  0.88175  0.12904  1.0000
  H   H2222     1.0  0.33342  0.49464  0.01767  1.0000
  S   S284      1.0  0.61954  0.82223  0.20445  1.0000
  C   C1246     1.0  0.48900  0.83877  0.20274  1.0000
  C   C1247     1.0  0.55720  0.81927  0.12143  1.0000
  C   C1248     1.0  0.53387  0.66871  0.00932  1.0000
  H   H2223     1.0  0.55516  0.89590  0.12182  1.0000
  H   H2224     1.0  0.53794  0.84983  0.08072  1.0000
  C   C1249     1.0  0.35348  0.73270  0.10189  1.0000
  H   H2225     1.0  0.49054  0.90721  0.13370  1.0000
  H   H2226     1.0  0.34558  0.73102  0.06893  1.0000
  C   C1250     1.0  0.55635  0.89457  0.10795  1.0000
  H   H2227     1.0  0.56930  0.85266  0.10234  1.0000
  H   H2228     1.0  0.36981  0.73334  0.09603  1.0000
  H   H2229     1.0  0.50621  0.90248  0.09622  1.0000
  C   C1251     1.0  0.55584  0.85754  0.11178  1.0000
  H   H2230     1.0  0.58681  0.97344  0.18364  1.0000
  H   H2231     1.0  0.33665  0.82013  0.11385  1.0000
  C   C1252     1.0  0.54321  0.83939  0.11700  1.0000
  C   C1253     1.0  0.35410  0.72482  0.12110  1.0000
  H   H2232     1.0  0.59281  0.90354  0.21883  1.0000
  H   H2233     1.0  0.46955  0.88112  0.19350  1.0000
  C   C1254     1.0  0.52314  0.88196  0.11533  1.0000
  H   H2234     1.0  0.36091  0.80350  0.11500  1.0000
  C   C1255     1.0  0.64250  0.64393  0.01975  1.0000
  C   C1256     1.0  0.34338  0.75567  0.04852  1.0000
  C   C1257     1.0  0.64532  0.67722  0.11873  1.0000
  H   H2235     1.0  0.34989  0.69837  0.05002  1.0000
  H   H2236     1.0  0.56158  0.94216  0.13084  1.0000
  C   C1258     1.0  0.51168  0.69954  0.99852  1.0000
  C   C1259     1.0  0.52512  0.87285  0.06226  1.0000
  C   C1260     1.0  0.59395  0.91729  0.22482  1.0000
  H   H2237     1.0  0.40628  0.67282  0.00206  1.0000
  H   H2238     1.0  0.56902  0.67286  0.03701  1.0000
  H   H2239     1.0  0.60720  0.80365  0.98662  1.0000
  H   H2240     1.0  0.32931  0.55158  0.00884  1.0000
  C   C1261     1.0  0.51365  0.97578  0.17717  1.0000
  C   C1262     1.0  0.62901  0.78175  0.99955  1.0000
  H   H2241     1.0  0.34445  0.71120  0.02932  1.0000
  C   C1263     1.0  0.61323  0.91326  0.23448  1.0000
  H   H2242     1.0  0.53415  0.83714  0.10709  1.0000
  H   H2243     1.0  0.40799  0.97753  0.16839  1.0000
  H   H2244     1.0  0.65147  0.93167  0.20463  1.0000
  C   C1264     1.0  0.50567  0.66493  0.99372  1.0000
  H   H2245     1.0  0.39962  0.61661  0.01059  1.0000
  H   H2246     1.0  0.34852  0.72076  0.09575  1.0000
  C   C1265     1.0  0.55350  0.97329  0.18852  1.0000
  H   H2247     1.0  0.54120  0.97587  0.19941  1.0000
  H   H2248     1.0  0.53489  0.94059  0.16575  1.0000
  H   H2249     1.0  0.41310  0.64407  0.03533  1.0000
  H   H2250     1.0  0.56046  0.92374  0.22996  1.0000
  H   H2251     1.0  0.51357  0.70885  0.00852  1.0000
  H   H2252     1.0  0.35900  0.63814  0.02845  1.0000
  H   H2253     1.0  0.64022  0.79581  0.22917  1.0000
  H   H2254     1.0  0.52163  0.83728  0.22537  1.0000
  C   C1266     1.0  0.47965  0.84507  0.22053  1.0000
  H   H2255     1.0  0.63648  0.76556  0.99947  1.0000
  H   H2256     1.0  0.36617  0.73155  0.12588  1.0000
  N   N72       1.0  0.51204  0.67731  0.00590  1.0000
  N   N73       1.0  0.64247  0.65313  0.98710  1.0000
  C   C1267     1.0  0.48844  0.90475  0.12068  1.0000
  H   H2257     1.0  0.53734  0.74023  0.02352  1.0000
  N   N74       1.0  0.34045  0.75326  0.09813  1.0000
  H   H2258     1.0  0.53596  0.65166  0.01158  1.0000
  C   C1268     1.0  0.33780  0.74710  0.06714  1.0000
  H   H2259     1.0  0.55446  0.77057  0.01266  1.0000
  C   C1269     1.0  0.60573  0.94507  0.14748  1.0000
  C   C1270     1.0  0.38280  0.61855  0.01513  1.0000
  H   H2260     1.0  0.50022  0.68648  0.03084  1.0000
  C   C1271     1.0  0.34425  0.76037  0.07927  1.0000
  H   H2261     1.0  0.56573  0.83940  0.98780  1.0000
  C   C1272     1.0  0.54598  0.94810  0.15605  1.0000
  C   C1273     1.0  0.50659  0.86872  0.21728  1.0000
  C   C1274     1.0  0.52487  0.85332  0.22390  1.0000
  C   C1275     1.0  0.59544  0.71343  0.99366  1.0000
  H   H2262     1.0  0.53216  0.84221  0.12846  1.0000
  H   H2263     1.0  0.62589  0.93222  0.20064  1.0000
  N   N75       1.0  0.32803  0.48513  0.99409  1.0000
  H   H2264     1.0  0.64166  0.71653  0.12643  1.0000
  C   C1276     1.0  0.46935  0.88285  0.22073  1.0000
  C   C1277     1.0  0.63536  0.93164  0.21118  1.0000
  C   C1278     1.0  0.57381  0.97696  0.19378  1.0000
  H   H2265     1.0  0.61595  0.69765  0.12320  1.0000
  H   H2266     1.0  0.54496  0.67236  0.99782  1.0000
  C   C1279     1.0  0.33794  0.79108  0.10409  1.0000
  H   H2267     1.0  0.36155  0.60001  0.03164  1.0000
  H   H2268     1.0  0.60946  0.66462  0.11342  1.0000
  C   C1280     1.0  0.32853  0.52247  0.99987  1.0000
  H   H2269     1.0  0.64690  0.87296  0.18538  1.0000
  C   C1281     1.0  0.32410  0.50037  0.00693  1.0000
  C   C1282     1.0  0.59571  0.77377  0.99144  1.0000
  H   H2270     1.0  0.56935  0.80519  0.00503  1.0000
  H   H2271     1.0  0.65082  0.69300  0.14939  1.0000
  H   H2272     1.0  0.47476  0.97145  0.19518  1.0000
  C   C1283     1.0  0.63641  0.89443  0.21336  1.0000
  H   H2273     1.0  0.48443  0.83158  0.22981  1.0000
  C   C1284     1.0  0.32690  0.53569  0.01423  1.0000
  C   C1285     1.0  0.41303  0.86118  0.23225  1.0000
  H   H2274     1.0  0.57706  0.96682  0.20564  1.0000
  H   H2275     1.0  0.61290  0.95382  0.22516  1.0000
  C   C1286     1.0  0.56304  0.76339  0.98595  1.0000
  H   H2276     1.0  0.47026  0.89553  0.22818  1.0000
  C   C1287     1.0  0.49387  0.97198  0.17046  1.0000
  H   H2277     1.0  0.54888  0.87067  0.21020  1.0000
  H   H2278     1.0  0.64497  0.67353  0.00513  1.0000
  H   H2279     1.0  0.54447  0.80120  0.00015  1.0000
  C   C1288     1.0  0.61906  0.65664  0.99001  1.0000
  H   H2280     1.0  0.64758  0.97002  0.19927  1.0000
  H   H2281     1.0  0.64699  0.63848  0.04640  1.0000
  H   H2282     1.0  0.41709  0.77422  0.98978  1.0000
  H   H2283     1.0  0.62080  0.97116  0.19601  1.0000
  H   H2284     1.0  0.32462  0.69953  0.04366  1.0000
  H   H2285     1.0  0.64498  0.62740  0.01826  1.0000
  C   C1289     1.0  0.65066  0.90989  0.23486  1.0000
  H   H2286     1.0  0.41834  0.95265  0.22965  1.0000
  C   C1290     1.0  0.65405  0.64649  0.03432  1.0000
  H   H2287     1.0  0.65077  0.65491  0.14914  1.0000
  H   H2288     1.0  0.65311  0.66294  0.03585  1.0000
  H   H2289     1.0  0.52512  0.70152  0.98851  1.0000
  C   C1291     1.0  0.58138  0.78756  0.23250  1.0000
  C   C1292     1.0  0.63393  0.80978  0.23470  1.0000
  C   C1293     1.0  0.35042  0.48440  0.98607  1.0000
  H   H2290     1.0  0.65488  0.66782  0.17598  1.0000
  Fe  Fe145     1.0  0.58443  0.88008  0.31378  1.0000
  S   S285      1.0  0.59760  0.88149  0.28623  1.0000
  S   S286      1.0  0.54974  0.88934  0.31968  1.0000
  Fe  Fe146     1.0  0.61919  0.90094  0.29262  1.0000
  S   S287      1.0  0.62485  0.93011  0.27610  1.0000
  Fe  Fe147     1.0  0.62108  0.85560  0.29512  1.0000
  S   S288      1.0  0.60430  0.90184  0.31949  1.0000
  S   S289      1.0  0.60655  0.85248  0.32260  1.0000
  Fe  Fe148     1.0  0.44732  0.84856  0.32405  1.0000
  S   S290      1.0  0.43987  0.88098  0.31242  1.0000
  S   S291      1.0  0.48076  0.83286  0.32106  1.0000
  Fe  Fe149     1.0  0.40140  0.84638  0.33863  1.0000
  S   S292      1.0  0.39103  0.87868  0.32761  1.0000
  S   S293      1.0  0.37974  0.82747  0.35669  1.0000
  Fe  Fe150     1.0  0.41266  0.87067  0.30421  1.0000
  S   S294      1.0  0.40560  0.88350  0.27763  1.0000
  Fe  Fe151     1.0  0.41930  0.88542  0.33685  1.0000
  S   S295      1.0  0.42005  0.91216  0.35056  1.0000
  S   S296      1.0  0.42114  0.83757  0.31443  1.0000
  S   S297      1.0  0.42857  0.85378  0.34932  1.0000
  C   C1294     1.0  0.35271  0.83550  0.36082  1.0000
  C   C1295     1.0  0.34271  0.85235  0.35112  1.0000
  H   H2291     1.0  0.36886  0.91401  0.35415  1.0000
  C   C1296     1.0  0.34086  0.82427  0.37380  1.0000
  H   H2292     1.0  0.35165  0.86128  0.34128  1.0000
  H   H2293     1.0  0.34845  0.81116  0.38133  1.0000
  C   C1297     1.0  0.41000  0.86656  0.26208  1.0000
  H   H2294     1.0  0.58131  0.81730  0.23945  1.0000
  H   H2295     1.0  0.50584  0.85470  0.36194  1.0000
  H   H2296     1.0  0.42300  0.92946  0.26537  1.0000
  C   C1298     1.0  0.41843  0.83218  0.25392  1.0000
  C   C1299     1.0  0.41454  0.84541  0.26655  1.0000
  H   H2297     1.0  0.38960  0.79640  0.32985  1.0000
  H   H2298     1.0  0.42210  0.81582  0.25743  1.0000
  H   H2299     1.0  0.41519  0.83918  0.27969  1.0000
  C   C1300     1.0  0.42133  0.93294  0.33461  1.0000
  C   C1301     1.0  0.42823  0.95067  0.33762  1.0000
  H   H2300     1.0  0.49094  0.87542  0.24827  1.0000
  C   C1302     1.0  0.42724  0.96438  0.30790  1.0000
  C   C1303     1.0  0.41971  0.94692  0.30507  1.0000
  C   C1304     1.0  0.41666  0.93126  0.31844  1.0000
  H   H2301     1.0  0.43178  0.95204  0.35015  1.0000
  H   H2302     1.0  0.34894  0.89876  0.31338  1.0000
  H   H2303     1.0  0.41635  0.94538  0.29254  1.0000
  H   H2304     1.0  0.41076  0.91786  0.31613  1.0000
  N   N76       1.0  0.34713  0.84363  0.29476  1.0000
  H   H2305     1.0  0.54878  0.93205  0.33593  1.0000
  H   H2306     1.0  0.37858  0.78670  0.31387  1.0000
  C   C1305     1.0  0.49974  0.88705  0.38130  1.0000
  C   C1306     1.0  0.53197  0.87277  0.31828  1.0000
  C   C1307     1.0  0.53584  0.85167  0.32343  1.0000
  C   C1308     1.0  0.52016  0.83945  0.32397  1.0000
  C   C1309     1.0  0.50057  0.84826  0.31944  1.0000
  C   C1310     1.0  0.49709  0.86923  0.31378  1.0000
  C   C1311     1.0  0.51272  0.88138  0.31314  1.0000
  H   H2307     1.0  0.55065  0.84491  0.32749  1.0000
  H   H2308     1.0  0.52303  0.82323  0.32834  1.0000
  H   H2309     1.0  0.48237  0.87616  0.30984  1.0000
  H   H2310     1.0  0.50978  0.89759  0.30888  1.0000
  C   C1312     1.0  0.49098  0.95982  0.27832  1.0000
  H   H2311     1.0  0.48698  0.92136  0.35971  1.0000
  H   H2312     1.0  0.46110  0.84588  0.37375  1.0000
  C   C1313     1.0  0.63438  0.94454  0.28898  1.0000
  C   C1314     1.0  0.63530  0.96546  0.28414  1.0000
  H   H2313     1.0  0.49327  0.92920  0.29391  1.0000
  C   C1315     1.0  0.57557  0.94098  0.34445  1.0000
  H   H2314     1.0  0.45671  0.84789  0.25138  1.0000
  C   C1316     1.0  0.34176  0.88332  0.29317  1.0000
  N   N77       1.0  0.50891  0.96678  0.28459  1.0000
  H   H2315     1.0  0.47190  0.94762  0.30118  1.0000
  C   C1317     1.0  0.52564  0.94840  0.28692  1.0000
  H   H2316     1.0  0.38657  0.97499  0.35866  1.0000
  H   H2317     1.0  0.32547  0.88339  0.29905  1.0000
  H   H2318     1.0  0.49530  0.96274  0.31091  1.0000
  C   C1318     1.0  0.40906  0.87441  0.24492  1.0000
  C   C1319     1.0  0.35520  0.89522  0.41826  1.0000
  C   C1320     1.0  0.54852  0.95253  0.28361  1.0000
  C   C1321     1.0  0.56330  0.93378  0.28989  1.0000
  H   H2319     1.0  0.37842  0.82830  0.28912  1.0000
  H   H2320     1.0  0.59569  0.79660  0.25199  1.0000
  C   C1322     1.0  0.35225  0.85325  0.24489  1.0000
  C   C1323     1.0  0.47752  0.91395  0.35274  1.0000
  H   H2321     1.0  0.45494  0.94513  0.27551  1.0000
  H   H2322     1.0  0.52301  0.93993  0.29996  1.0000
  H   H2323     1.0  0.52491  0.93707  0.27810  1.0000
  H   H2324     1.0  0.35570  0.81644  0.32499  1.0000
  C   C1324     1.0  0.32551  0.81366  0.42574  1.0000
  H   H2325     1.0  0.54947  0.92705  0.35869  1.0000
  H   H2326     1.0  0.34601  0.83954  0.24253  1.0000
  C   C1325     1.0  0.46710  0.93295  0.28024  1.0000
  C   C1326     1.0  0.62809  0.82878  0.25909  1.0000
  C   C1327     1.0  0.58120  0.80152  0.24611  1.0000
  H   H2327     1.0  0.33932  0.96579  0.40886  1.0000
  C   C1328     1.0  0.50109  0.97501  0.30134  1.0000
  H   H2328     1.0  0.45295  0.87492  0.25340  1.0000
  H   H2329     1.0  0.55318  0.95628  0.26972  1.0000
  H   H2330     1.0  0.55086  0.96549  0.28995  1.0000
  H   H2331     1.0  0.56025  0.93027  0.30394  1.0000
  H   H2332     1.0  0.56165  0.92020  0.28389  1.0000
  H   H2333     1.0  0.57953  0.93691  0.28658  1.0000
  H   H2334     1.0  0.49577  0.95536  0.26525  1.0000
  H   H2335     1.0  0.54719  0.83866  0.25724  1.0000
  H   H2336     1.0  0.64059  0.91887  0.30813  1.0000
  H   H2337     1.0  0.58400  0.94121  0.33144  1.0000
  H   H2338     1.0  0.34297  0.94575  0.35522  1.0000
  C   C1329     1.0  0.63631  0.81107  0.25156  1.0000
  H   H2339     1.0  0.42961  0.91603  0.40719  1.0000
  H   H2340     1.0  0.49703  0.92141  0.32895  1.0000
  H   H2341     1.0  0.45989  0.91515  0.38514  1.0000
  N   N78       1.0  0.56018  0.81305  0.27413  1.0000
  H   H2342     1.0  0.56700  0.87536  0.26136  1.0000
  C   C1330     1.0  0.54047  0.81060  0.28617  1.0000
  C   C1331     1.0  0.55890  0.83522  0.26632  1.0000
  C   C1332     1.0  0.57891  0.80817  0.28356  1.0000
  C   C1333     1.0  0.58408  0.78579  0.29177  1.0000
  H   H2343     1.0  0.39943  0.80197  0.30769  1.0000
  C   C1334     1.0  0.55342  0.85157  0.27895  1.0000
  C   C1335     1.0  0.53298  0.78928  0.28897  1.0000
  C   C1336     1.0  0.51475  0.78838  0.30314  1.0000
  C   C1337     1.0  0.60520  0.78229  0.29826  1.0000
  H   H2344     1.0  0.56037  0.96051  0.36282  1.0000
  C   C1338     1.0  0.55207  0.87322  0.26937  1.0000
  C   C1339     1.0  0.47603  0.84504  0.36528  1.0000
  H   H2345     1.0  0.60825  0.76641  0.30478  1.0000
  H   H2346     1.0  0.54190  0.81487  0.29886  1.0000
  H   H2347     1.0  0.52714  0.82141  0.28150  1.0000
  H   H2348     1.0  0.33538  0.80112  0.41931  1.0000
  H   H2349     1.0  0.61770  0.78438  0.28747  1.0000
  H   H2350     1.0  0.59285  0.81245  0.27506  1.0000
  H   H2351     1.0  0.57716  0.81775  0.29411  1.0000
  H   H2352     1.0  0.58468  0.77463  0.28264  1.0000
  H   H2353     1.0  0.57242  0.78255  0.30293  1.0000
  H   H2354     1.0  0.34550  0.94832  0.38676  1.0000
  H   H2355     1.0  0.58685  0.93383  0.35336  1.0000
  H   H2356     1.0  0.56539  0.85002  0.28762  1.0000
  H   H2357     1.0  0.53823  0.85035  0.28677  1.0000
  H   H2358     1.0  0.52753  0.78632  0.27718  1.0000
  H   H2359     1.0  0.54536  0.77666  0.29232  1.0000
  H   H2360     1.0  0.50965  0.77304  0.30485  1.0000
  H   H2361     1.0  0.51924  0.79103  0.31540  1.0000
  H   H2362     1.0  0.35709  0.86156  0.31161  1.0000
  C   C1340     1.0  0.48503  0.86220  0.24446  1.0000
  C   C1341     1.0  0.60165  0.97204  0.34591  1.0000
  H   H2363     1.0  0.54874  0.88460  0.27866  1.0000
  H   H2364     1.0  0.60791  0.96014  0.33741  1.0000
  H   H2365     1.0  0.57391  0.83823  0.25876  1.0000
  C   C1342     1.0  0.43129  0.96636  0.32421  1.0000
  C   C1343     1.0  0.35766  0.94478  0.36064  1.0000
  H   H2366     1.0  0.33032  0.84283  0.32023  1.0000
  H   H2367     1.0  0.56229  0.78369  0.26458  1.0000
  H   H2368     1.0  0.47560  0.84052  0.27691  1.0000
  S   S298      1.0  0.63040  0.82821  0.28086  1.0000
  H   H2369     1.0  0.35949  0.81171  0.29276  1.0000
  H   H2370     1.0  0.40941  0.96816  0.26494  1.0000
  H   H2371     1.0  0.46543  0.89822  0.40393  1.0000
  H   H2372     1.0  0.63086  0.97275  0.27198  1.0000
  C   C1344     1.0  0.48037  0.92339  0.33415  1.0000
  H   H2373     1.0  0.56646  0.91100  0.34470  1.0000
  C   C1345     1.0  0.34180  0.84568  0.27683  1.0000
  H   H2374     1.0  0.32455  0.80929  0.43975  1.0000
  H   H2375     1.0  0.49549  0.84894  0.38371  1.0000
  C   C1346     1.0  0.34973  0.90095  0.29928  1.0000
  Fe  Fe152     1.0  0.62806  0.87451  0.32595  1.0000
  C   C1347     1.0  0.36535  0.92211  0.36568  1.0000
  C   C1348     1.0  0.49150  0.85698  0.37114  1.0000
  H   H2376     1.0  0.54795  0.80443  0.25303  1.0000
  H   H2377     1.0  0.38263  0.90999  0.41611  1.0000
  H   H2378     1.0  0.45021  0.85464  0.28151  1.0000
  C   C1349     1.0  0.46370  0.86033  0.25516  1.0000
  S   S299      1.0  0.64323  0.87597  0.34971  1.0000
  H   H2379     1.0  0.57405  0.93633  0.24244  1.0000
  H   H2380     1.0  0.35223  0.86810  0.43664  1.0000
  C   C1350     1.0  0.41780  0.84003  0.23675  1.0000
  H   H2381     1.0  0.35336  0.91487  0.37463  1.0000
  C   C1351     1.0  0.61747  0.84548  0.24948  1.0000
  C   C1352     1.0  0.48137  0.94190  0.28970  1.0000
  H   H2382     1.0  0.60567  0.79319  0.30744  1.0000
  H   H2383     1.0  0.47223  0.88458  0.34809  1.0000
  H   H2384     1.0  0.61089  0.85916  0.25525  1.0000
  H   H2385     1.0  0.47448  0.94006  0.33328  1.0000
  H   H2386     1.0  0.37113  0.86313  0.29115  1.0000
  C   C1353     1.0  0.46576  0.85551  0.27417  1.0000
  H   H2387     1.0  0.33663  0.83136  0.27450  1.0000
  C   C1354     1.0  0.34830  0.87385  0.42357  1.0000
  H   H2388     1.0  0.34012  0.86689  0.24383  1.0000
  H   H2389     1.0  0.64032  0.95768  0.35703  1.0000
  C   C1355     1.0  0.40425  0.96823  0.25227  1.0000
  H   H2390     1.0  0.49874  0.88677  0.34654  1.0000
  H   H2391     1.0  0.47250  0.86773  0.27859  1.0000
  H   H2392     1.0  0.47362  0.81433  0.36054  1.0000
  H   H2393     1.0  0.50146  0.80010  0.29984  1.0000
  H   H2394     1.0  0.57274  0.90919  0.24753  1.0000
  C   C1356     1.0  0.52236  0.88552  0.37223  1.0000
  H   H2395     1.0  0.58174  0.77132  0.23827  1.0000
  H   H2396     1.0  0.52959  0.97120  0.31323  1.0000
  C   C1357     1.0  0.56198  0.80017  0.25975  1.0000
  N   N79       1.0  0.48434  0.87957  0.37232  1.0000
  H   H2397     1.0  0.53681  0.88237  0.39549  1.0000
  C   C1358     1.0  0.64651  0.94667  0.31569  1.0000
  H   H2398     1.0  0.45936  0.92117  0.28903  1.0000
  H   H2399     1.0  0.40536  0.89075  0.24137  1.0000
  C   C1359     1.0  0.55900  0.92698  0.34605  1.0000
  H   H2400     1.0  0.47609  0.92559  0.26930  1.0000
  H   H2401     1.0  0.59481  0.95471  0.37143  1.0000
  H   H2402     1.0  0.42966  0.88885  0.40773  1.0000
  H   H2403     1.0  0.45090  0.88207  0.37410  1.0000
  C   C1360     1.0  0.56568  0.96266  0.34887  1.0000
  H   H2404     1.0  0.46147  0.86833  0.39237  1.0000
  H   H2405     1.0  0.53134  0.90851  0.38547  1.0000
  H   H2406     1.0  0.65080  0.93930  0.32788  1.0000
  N   N80       1.0  0.32592  0.87267  0.42249  1.0000
  H   H2407     1.0  0.52727  0.85688  0.23653  1.0000
  C   C1361     1.0  0.53657  0.89234  0.38310  1.0000
  H   H2408     1.0  0.32927  0.88502  0.45462  1.0000
  H   H2409     1.0  0.46092  0.91783  0.35756  1.0000
  H   H2410     1.0  0.57244  0.96611  0.31267  1.0000
  H   H2411     1.0  0.37972  0.92028  0.37177  1.0000
  H   H2412     1.0  0.52885  0.86959  0.36992  1.0000
  H   H2413     1.0  0.36629  0.86374  0.26380  1.0000
  H   H2414     1.0  0.37019  0.95594  0.38051  1.0000
  H   H2415     1.0  0.49964  0.82033  0.35681  1.0000
  H   H2416     1.0  0.50005  0.87840  0.39431  1.0000
  H   H2417     1.0  0.55263  0.89110  0.37636  1.0000
  C   C1362     1.0  0.43360  0.90297  0.39953  1.0000
  H   H2418     1.0  0.61208  0.89854  0.24288  1.0000
  C   C1363     1.0  0.35471  0.95699  0.37619  1.0000
  H   H2419     1.0  0.49504  0.90333  0.38341  1.0000
  H   H2420     1.0  0.42414  0.90616  0.38879  1.0000
  H   H2421     1.0  0.38076  0.88973  0.43360  1.0000
  H   H2422     1.0  0.47291  0.85127  0.35219  1.0000
  H   H2423     1.0  0.52318  0.89549  0.35983  1.0000
  C   C1364     1.0  0.48474  0.82232  0.36531  1.0000
  H   H2424     1.0  0.48715  0.81508  0.37840  1.0000
  C   C1365     1.0  0.48361  0.89039  0.35446  1.0000
  S   S300      1.0  0.64424  0.87521  0.29915  1.0000
  C   C1366     1.0  0.38522  0.79991  0.31674  1.0000
  C   C1367     1.0  0.45669  0.90055  0.39278  1.0000
  C   C1368     1.0  0.46301  0.88187  0.38254  1.0000
  H   H2425     1.0  0.47149  0.91623  0.32641  1.0000
  H   H2426     1.0  0.33048  0.80719  0.31086  1.0000
  C   C1369     1.0  0.35525  0.86246  0.29794  1.0000
  H   H2427     1.0  0.47784  0.97256  0.27726  1.0000
  H   H2428     1.0  0.36930  0.95071  0.35044  1.0000
  H   H2429     1.0  0.34003  0.91567  0.29542  1.0000
  C   C1370     1.0  0.36371  0.82538  0.29723  1.0000
  C   C1371     1.0  0.37804  0.89452  0.42013  1.0000
  H   H2430     1.0  0.53945  0.87606  0.26117  1.0000
  H   H2431     1.0  0.64766  0.92237  0.24314  1.0000
  H   H2432     1.0  0.35859  0.86335  0.41523  1.0000
  H   H2433     1.0  0.37621  0.83180  0.31954  1.0000
  H   H2434     1.0  0.63095  0.94370  0.37690  1.0000
  C   C1372     1.0  0.36936  0.81937  0.31561  1.0000
  H   H2435     1.0  0.37230  0.83666  0.26239  1.0000
  H   H2436     1.0  0.34612  0.90670  0.42624  1.0000
  H   H2437     1.0  0.35348  0.90039  0.40471  1.0000
  H   H2438     1.0  0.32837  0.85790  0.27499  1.0000
  H   H2439     1.0  0.43173  0.91979  0.24523  1.0000
  H   H2440     1.0  0.35079  0.83082  0.42389  1.0000
  H   H2441     1.0  0.40443  0.92608  0.25187  1.0000
  C   C1373     1.0  0.32778  0.84112  0.30709  1.0000
  C   C1374     1.0  0.58346  0.97719  0.31197  1.0000
  H   H2442     1.0  0.38795  0.88366  0.41194  1.0000
  H   H2443     1.0  0.36596  0.90198  0.29355  1.0000
  H   H2444     1.0  0.43643  0.95608  0.24318  1.0000
  C   C1375     1.0  0.35969  0.84990  0.26241  1.0000
  H   H2445     1.0  0.63932  0.88817  0.25641  1.0000
  C   C1376     1.0  0.33474  0.83359  0.42052  1.0000
  H   H2446     1.0  0.59936  0.96879  0.31215  1.0000
  H   H2447     1.0  0.55125  0.96721  0.34271  1.0000
  H   H2448     1.0  0.62722  0.93576  0.35711  1.0000
  H   H2449     1.0  0.34198  0.88671  0.27916  1.0000
  H   H2450     1.0  0.60807  0.97628  0.37118  1.0000
  C   C1377     1.0  0.41985  0.93069  0.25197  1.0000
  C   C1378     1.0  0.64738  0.96754  0.31098  1.0000
  H   H2451     1.0  0.38939  0.96178  0.25515  1.0000
  C   C1379     1.0  0.42059  0.95253  0.24308  1.0000
  C   C1380     1.0  0.32177  0.87626  0.40400  1.0000
  C   C1381     1.0  0.62764  0.94927  0.36368  1.0000
  H   H2452     1.0  0.49558  0.84822  0.24880  1.0000
  C   C1382     1.0  0.64042  0.93513  0.30459  1.0000
  H   H2453     1.0  0.33567  0.83705  0.40651  1.0000
  H   H2454     1.0  0.33614  0.87165  0.39536  1.0000
  H   H2455     1.0  0.32177  0.90992  0.39862  1.0000
  H   H2456     1.0  0.64443  0.79809  0.25887  1.0000
  C   C1383     1.0  0.60692  0.96340  0.36411  1.0000
  H   H2457     1.0  0.52326  0.97615  0.25920  1.0000
  H   H2458     1.0  0.61174  0.92491  0.24343  1.0000
  H   H2459     1.0  0.32474  0.84767  0.44327  1.0000
  C   C1384     1.0  0.64188  0.97698  0.29516  1.0000
  C   C1385     1.0  0.32173  0.85130  0.42978  1.0000
  H   H2460     1.0  0.32570  0.89513  0.37054  1.0000
  C   C1386     1.0  0.57409  0.92190  0.23699  1.0000
  C   C1387     1.0  0.65333  0.88947  0.24699  1.0000
  Fe  Fe153     1.0  0.39920  0.89991  0.64655  1.0000
  S   S301      1.0  0.40493  0.86886  0.63756  1.0000
  S   S302      1.0  0.40006  0.92985  0.62976  1.0000
  Fe  Fe154     1.0  0.38949  0.88337  0.68405  1.0000
  S   S303      1.0  0.39395  0.85092  0.67812  1.0000
  S   S304      1.0  0.38176  0.89640  0.70925  1.0000
  Fe  Fe155     1.0  0.42218  0.85949  0.66052  1.0000
  S   S305      1.0  0.45348  0.83966  0.66224  1.0000
  Fe  Fe156     1.0  0.37624  0.86340  0.65571  1.0000
  S   S306      1.0  0.34777  0.85101  0.65049  1.0000
  S   S307      1.0  0.41853  0.89110  0.66790  1.0000
  S   S308      1.0  0.36966  0.89525  0.66325  1.0000
  Fe  Fe157     1.0  0.61554  0.87088  0.63884  1.0000
  Fe  Fe158     1.0  0.56789  0.87215  0.64935  1.0000
  S   S309      1.0  0.57039  0.87627  0.67621  1.0000
  S   S310      1.0  0.53705  0.87803  0.63866  1.0000
  Fe  Fe159     1.0  0.59261  0.89805  0.66506  1.0000
  S   S311      1.0  0.58588  0.92899  0.67382  1.0000
  Fe  Fe160     1.0  0.59867  0.85267  0.67391  1.0000
  S   S312      1.0  0.60245  0.82705  0.69534  1.0000
  S   S313      1.0  0.58830  0.89596  0.63832  1.0000
  S   S314      1.0  0.59475  0.84659  0.64761  1.0000
  C   C1388     1.0  0.60991  0.83306  0.71408  1.0000
  C   C1389     1.0  0.61708  0.85162  0.71453  1.0000
  H   H2461     1.0  0.53487  0.92759  0.59112  1.0000
  C   C1390     1.0  0.36303  0.90878  0.61212  1.0000
  H   H2462     1.0  0.61685  0.86317  0.70358  1.0000
  C   C1391     1.0  0.62520  0.85493  0.72906  1.0000
  C   C1392     1.0  0.60621  0.94092  0.67755  1.0000
  H   H2463     1.0  0.50809  0.97316  0.72860  1.0000
  H   H2464     1.0  0.33236  0.91655  0.71521  1.0000
  H   H2465     1.0  0.52277  0.90046  0.67982  1.0000
  C   C1393     1.0  0.62588  0.93009  0.67980  1.0000
  H   H2466     1.0  0.33477  0.89609  0.61735  1.0000
  C   C1394     1.0  0.59735  0.91247  0.72337  1.0000
  C   C1395     1.0  0.33918  0.85391  0.63019  1.0000
  H   H2467     1.0  0.61772  0.93586  0.72002  1.0000
  H   H2468     1.0  0.35051  0.78679  0.60227  1.0000
  C   C1396     1.0  0.34577  0.85681  0.59926  1.0000
  C   C1397     1.0  0.35297  0.85550  0.61515  1.0000
  C   C1398     1.0  0.32978  0.94625  0.69942  1.0000
  H   H2469     1.0  0.35664  0.85772  0.58774  1.0000
  H   H2470     1.0  0.36926  0.85535  0.61581  1.0000
  H   H2471     1.0  0.41235  0.97050  0.59142  1.0000
  H   H2472     1.0  0.57028  0.95293  0.70839  1.0000
  C   C1399     1.0  0.39699  0.94780  0.69606  1.0000
  H   H2473     1.0  0.39284  0.85265  0.71914  1.0000
  C   C1400     1.0  0.44888  0.96020  0.64699  1.0000
  C   C1401     1.0  0.47661  0.85061  0.65612  1.0000
  C   C1402     1.0  0.47628  0.87078  0.64825  1.0000
  C   C1403     1.0  0.49489  0.87901  0.64326  1.0000
  C   C1404     1.0  0.51402  0.86737  0.64643  1.0000
  C   C1405     1.0  0.51435  0.84730  0.65459  1.0000
  C   C1406     1.0  0.49572  0.83890  0.65926  1.0000
  H   H2474     1.0  0.46170  0.87989  0.64565  1.0000
  H   H2475     1.0  0.49439  0.89441  0.63672  1.0000
  H   H2476     1.0  0.52899  0.83805  0.65683  1.0000
  H   H2477     1.0  0.49612  0.82322  0.66524  1.0000
  C   C1407     1.0  0.41912  0.94164  0.63579  1.0000
  C   C1408     1.0  0.41493  0.96235  0.63817  1.0000
  C   C1409     1.0  0.45336  0.93968  0.64404  1.0000
  C   C1410     1.0  0.43837  0.93032  0.63861  1.0000
  H   H2478     1.0  0.43918  0.87006  0.72889  1.0000
  H   H2479     1.0  0.44170  0.91435  0.63655  1.0000
  C   C1411     1.0  0.53068  0.92522  0.66046  1.0000
  S   S315      1.0  0.62141  0.87500  0.66504  1.0000
  H   H2480     1.0  0.54867  0.96861  0.65249  1.0000
  H   H2481     1.0  0.44418  0.80269  0.71639  1.0000
  H   H2482     1.0  0.36829  0.79832  0.57427  1.0000
  H   H2483     1.0  0.55219  0.92758  0.62647  1.0000
  H   H2484     1.0  0.45045  0.97212  0.58461  1.0000
  H   H2485     1.0  0.57344  0.96117  0.61719  1.0000
  N   N81       1.0  0.53352  0.95477  0.63573  1.0000
  H   H2486     1.0  0.53866  0.91439  0.65159  1.0000
  H   H2487     1.0  0.63043  0.91077  0.71557  1.0000
  H   H2488     1.0  0.61711  0.94905  0.61289  1.0000
  H   H2489     1.0  0.33812  0.81269  0.60480  1.0000
  H   H2490     1.0  0.63794  0.82241  0.62791  1.0000
  H   H2491     1.0  0.50369  0.90950  0.66556  1.0000
  H   H2492     1.0  0.36994  0.92164  0.60413  1.0000
  C   C1412     1.0  0.60931  0.92698  0.59887  1.0000
  C   C1413     1.0  0.56115  0.86132  0.72960  1.0000
  C   C1414     1.0  0.51479  0.91438  0.67278  1.0000
  H   H2493     1.0  0.64984  0.91351  0.60106  1.0000
  H   H2494     1.0  0.51614  0.91974  0.62862  1.0000
  C   C1415     1.0  0.55366  0.95135  0.71213  1.0000
  H   H2495     1.0  0.54732  0.96133  0.72209  1.0000
  C   C1416     1.0  0.34359  0.80148  0.59556  1.0000
  N   N82       1.0  0.46737  0.85878  0.71315  1.0000
  C   C1417     1.0  0.49039  0.85690  0.71379  1.0000
  C   C1418     1.0  0.58624  0.97469  0.63514  1.0000
  C   C1419     1.0  0.46321  0.83841  0.70915  1.0000
  C   C1420     1.0  0.46010  0.87509  0.69928  1.0000
  C   C1421     1.0  0.46565  0.89677  0.69932  1.0000
  C   C1422     1.0  0.50457  0.85231  0.69712  1.0000
  H   H2496     1.0  0.35826  0.96963  0.58523  1.0000
  C   C1423     1.0  0.45540  0.86279  0.73035  1.0000
  H   H2497     1.0  0.64545  0.92112  0.63810  1.0000
  C   C1424     1.0  0.46012  0.91081  0.68329  1.0000
  C   C1425     1.0  0.52730  0.85218  0.69892  1.0000
  C   C1426     1.0  0.56000  0.88426  0.72352  1.0000
  H   H2498     1.0  0.60437  0.80399  0.72820  1.0000
  H   H2499     1.0  0.49464  0.87100  0.71733  1.0000
  C   C1427     1.0  0.42982  0.97164  0.64378  1.0000
  N   N83       1.0  0.36092  0.96624  0.68852  1.0000
  H   H2500     1.0  0.64754  0.93887  0.59065  1.0000
  H   H2501     1.0  0.47038  0.83555  0.69607  1.0000
  H   H2502     1.0  0.46593  0.87013  0.68652  1.0000
  H   H2503     1.0  0.44293  0.87706  0.69992  1.0000
  H   H2504     1.0  0.48241  0.89643  0.69965  1.0000
  H   H2505     1.0  0.37780  0.96525  0.66306  1.0000
  H   H2506     1.0  0.50331  0.83695  0.69391  1.0000
  H   H2507     1.0  0.50059  0.86408  0.68636  1.0000
  H   H2508     1.0  0.43250  0.84716  0.70027  1.0000
  C   C1428     1.0  0.62270  0.93286  0.61092  1.0000
  H   H2509     1.0  0.42117  0.81343  0.70667  1.0000
  H   H2510     1.0  0.56016  0.92010  0.70761  1.0000
  C   C1429     1.0  0.52037  0.94545  0.65102  1.0000
  H   H2511     1.0  0.36140  0.93528  0.70113  1.0000
  S   S316      1.0  0.63872  0.87181  0.61472  1.0000
  H   H2512     1.0  0.52518  0.95994  0.70027  1.0000
  H   H2513     1.0  0.35518  0.82422  0.57546  1.0000
  H   H2514     1.0  0.34944  0.93991  0.64690  1.0000
  H   H2515     1.0  0.52989  0.86751  0.70129  1.0000
  H   H2516     1.0  0.53220  0.84050  0.70949  1.0000
  H   H2517     1.0  0.53706  0.84831  0.68693  1.0000
  H   H2518     1.0  0.50539  0.94289  0.64746  1.0000
  H   H2519     1.0  0.33072  0.75001  0.64594  1.0000
  C   C1430     1.0  0.32711  0.92951  0.61373  1.0000
  H   H2520     1.0  0.64002  0.95669  0.62890  1.0000
  H   H2521     1.0  0.64447  0.83657  0.68469  1.0000
  C   C1431     1.0  0.41875  0.95213  0.69726  1.0000
  H   H2522     1.0  0.59536  0.96004  0.64001  1.0000
  C   C1432     1.0  0.64594  0.92982  0.60349  1.0000
  H   H2523     1.0  0.45666  0.90384  0.71036  1.0000
  H   H2524     1.0  0.37317  0.81289  0.59022  1.0000
  C   C1433     1.0  0.53002  0.91755  0.60288  1.0000
  H   H2525     1.0  0.33054  0.93886  0.68773  1.0000
  C   C1434     1.0  0.44012  0.83595  0.70990  1.0000
  C   C1435     1.0  0.55274  0.95954  0.64149  1.0000
  C   C1436     1.0  0.36391  0.95970  0.67085  1.0000
  H   H2526     1.0  0.46824  0.93091  0.64623  1.0000
  H   H2527     1.0  0.36377  0.90979  0.62573  1.0000
  H   H2528     1.0  0.49504  0.84453  0.72405  1.0000
  H   H2529     1.0  0.59919  0.89560  0.72683  1.0000
  H   H2530     1.0  0.46783  0.90405  0.67166  1.0000
  C   C1437     1.0  0.60999  0.81830  0.72844  1.0000
  C   C1438     1.0  0.52094  0.97381  0.62782  1.0000
  H   H2531     1.0  0.59377  0.91634  0.71011  1.0000
  H   H2532     1.0  0.62375  0.97010  0.72952  1.0000
  C   C1439     1.0  0.53990  0.94015  0.62247  1.0000
  C   C1440     1.0  0.35159  0.95042  0.70151  1.0000
  C   C1441     1.0  0.38855  0.88199  0.72840  1.0000
  H   H2533     1.0  0.46516  0.92598  0.68308  1.0000
  C   C1442     1.0  0.43783  0.81449  0.70647  1.0000
  H   H2534     1.0  0.54751  0.95038  0.68623  1.0000
  H   H2535     1.0  0.39791  0.93833  0.68555  1.0000
  C   C1443     1.0  0.32718  0.74948  0.63287  1.0000
  H   H2536     1.0  0.54331  0.90573  0.60601  1.0000
  H   H2537     1.0  0.51740  0.90958  0.60044  1.0000
  H   H2538     1.0  0.53492  0.92648  0.71816  1.0000
  H   H2539     1.0  0.43176  0.83808  0.72265  1.0000
  H   H2540     1.0  0.36749  0.94266  0.67157  1.0000
  H   H2541     1.0  0.62891  0.91378  0.67913  1.0000
  H   H2542     1.0  0.56220  0.94510  0.64639  1.0000
  H   H2543     1.0  0.42834  0.93778  0.70202  1.0000
  H   H2544     1.0  0.37241  0.89415  0.60880  1.0000
  H   H2545     1.0  0.62594  0.80501  0.64437  1.0000
  H   H2546     1.0  0.51586  0.95628  0.66072  1.0000
  H   H2547     1.0  0.61087  0.93674  0.58639  1.0000
  H   H2548     1.0  0.42622  0.95805  0.68452  1.0000
  H   H2549     1.0  0.63883  0.83295  0.65583  1.0000
  H   H2550     1.0  0.54717  0.94813  0.61044  1.0000
  H   H2551     1.0  0.50628  0.92466  0.68205  1.0000
  C   C1444     1.0  0.64140  0.94044  0.68346  1.0000
  H   H2552     1.0  0.59280  0.92910  0.60452  1.0000
  H   H2553     1.0  0.63726  0.80156  0.67421  1.0000
  H   H2554     1.0  0.62001  0.92314  0.62325  1.0000
  H   H2555     1.0  0.54238  0.92844  0.66792  1.0000
  C   C1445     1.0  0.34587  0.96712  0.65989  1.0000
  H   H2556     1.0  0.57450  0.88663  0.71511  1.0000
  H   H2557     1.0  0.35120  0.95450  0.71461  1.0000
  H   H2558     1.0  0.58714  0.97721  0.72501  1.0000
  H   H2559     1.0  0.50563  0.97031  0.62576  1.0000
  H   H2560     1.0  0.39180  0.93878  0.70830  1.0000
  H   H2561     1.0  0.50931  0.94188  0.61381  1.0000
  H   H2562     1.0  0.47040  0.82562  0.71798  1.0000
  H   H2563     1.0  0.61388  0.91061  0.59685  1.0000
  C   C1446     1.0  0.52226  0.93017  0.61766  1.0000
  C   C1447     1.0  0.63724  0.96160  0.68454  1.0000
  C   C1448     1.0  0.39340  0.86065  0.72988  1.0000
  H   H2564     1.0  0.43970  0.96582  0.60623  1.0000
  H   H2565     1.0  0.44601  0.81130  0.69376  1.0000
  C   C1449     1.0  0.60212  0.96186  0.67884  1.0000
  C   C1450     1.0  0.34064  0.90928  0.60910  1.0000
  H   H2566     1.0  0.34071  0.90702  0.59564  1.0000
  C   C1451     1.0  0.61824  0.91915  0.72418  1.0000
  C   C1452     1.0  0.54213  0.95977  0.69678  1.0000
  C   C1453     1.0  0.36109  0.80971  0.58306  1.0000
  C   C1454     1.0  0.37301  0.96785  0.59079  1.0000
  C   C1455     1.0  0.56750  0.97067  0.62765  1.0000
  H   H2567     1.0  0.44315  0.91331  0.68300  1.0000
  C   C1456     1.0  0.55140  0.92848  0.71806  1.0000
  H   H2568     1.0  0.54704  0.88872  0.71569  1.0000
  H   H2569     1.0  0.56441  0.85257  0.71845  1.0000
  H   H2570     1.0  0.36944  0.96534  0.60487  1.0000
  C   C1457     1.0  0.34935  0.95672  0.64372  1.0000
  H   H2571     1.0  0.33684  0.96311  0.63573  1.0000
  H   H2572     1.0  0.47704  0.96106  0.60461  1.0000
  H   H2573     1.0  0.33339  0.78614  0.57763  1.0000
  H   H2574     1.0  0.36432  0.95960  0.63620  1.0000
  H   H2575     1.0  0.34181  0.74399  0.62498  1.0000
  C   C1458     1.0  0.64086  0.81042  0.63883  1.0000
  H   H2576     1.0  0.40006  0.97109  0.63602  1.0000
  H   H2577     1.0  0.58698  0.97035  0.67707  1.0000
  H   H2578     1.0  0.32485  0.76099  0.60011  1.0000
  H   H2579     1.0  0.32542  0.92818  0.51910  1.0000
  C   C1459     1.0  0.32473  0.85655  0.59819  1.0000
  H   H2580     1.0  0.33068  0.96412  0.66684  1.0000
  C   C1460     1.0  0.61760  0.97214  0.68214  1.0000
  H   H2581     1.0  0.38332  0.95420  0.58638  1.0000
  S   S317      1.0  0.46698  0.97149  0.65491  1.0000
  H   H2582     1.0  0.38000  0.97547  0.70516  1.0000
  H   H2583     1.0  0.33545  0.94259  0.60794  1.0000
  H   H2584     1.0  0.33645  0.93883  0.57863  1.0000
  C   C1461     1.0  0.38184  0.96803  0.69329  1.0000
  H   H2585     1.0  0.32934  0.78136  0.62548  1.0000
  H   H2586     1.0  0.32687  0.92908  0.62768  1.0000
  C   C1462     1.0  0.32596  0.79785  0.58606  1.0000
  H   H2587     1.0  0.63338  0.77281  0.71983  1.0000
  H   H2588     1.0  0.41826  0.96349  0.70628  1.0000
  H   H2589     1.0  0.64238  0.80480  0.70248  1.0000
  H   H2590     1.0  0.54517  0.97563  0.69208  1.0000
  H   H2591     1.0  0.63893  0.97176  0.59766  1.0000
  H   H2592     1.0  0.63142  0.86894  0.72920  1.0000
  C   C1463     1.0  0.64989  0.81944  0.65211  1.0000
  H   H2593     1.0  0.65306  0.86967  0.69364  1.0000
  C   C1464     1.0  0.44780  0.97729  0.59742  1.0000
  C   C1465     1.0  0.65446  0.95605  0.61966  1.0000
  H   H2594     1.0  0.65187  0.79745  0.63399  1.0000
  C   C1466     1.0  0.46879  0.97701  0.60342  1.0000
  H   H2595     1.0  0.46919  0.89003  0.73376  1.0000
  C   C1467     1.0  0.65139  0.97374  0.60492  1.0000
  C   C1468     1.0  0.64989  0.76601  0.71715  1.0000
  H   H2596     1.0  0.65005  0.77046  0.69011  1.0000
  C   C1469     1.0  0.65326  0.80360  0.66806  1.0000
  H   H2597     1.0  0.39006  0.97815  0.68320  1.0000
  H   H2598     1.0  0.65068  0.74912  0.71791  1.0000
  H   H2599     1.0  0.58137  0.93940  0.73461  1.0000
  H   H2600     1.0  0.32648  0.95759  0.55159  1.0000
  N   N84       1.0  0.55839  0.91954  0.73510  1.0000
  C   C1470     1.0  0.32168  0.93132  0.71434  1.0000
  Fe  Fe161     1.0  0.41033  0.71155  0.89849  1.0000
  S   S318      1.0  0.42971  0.68010  0.89897  1.0000
  S   S319      1.0  0.41360  0.73323  0.87353  1.0000
  Fe  Fe162     1.0  0.39627  0.70457  0.93672  1.0000
  S   S320      1.0  0.41465  0.67340  0.93958  1.0000
  S   S321      1.0  0.37914  0.71680  0.96062  1.0000
  Fe  Fe163     1.0  0.44028  0.68748  0.92263  1.0000
  S   S322      1.0  0.47086  0.68642  0.93306  1.0000
  Fe  Fe164     1.0  0.40201  0.66874  0.91594  1.0000
  S   S323      1.0  0.39097  0.63718  0.91831  1.0000
  S   S324      1.0  0.42233  0.71909  0.92124  1.0000
  S   S325      1.0  0.38204  0.69969  0.91393  1.0000
  Fe  Fe165     1.0  0.63241  0.67440  0.91765  1.0000
  S   S326      1.0  0.63359  0.70664  0.92286  1.0000
  H   H2601     1.0  0.35716  0.75671  0.94259  1.0000
  Fe  Fe166     1.0  0.58861  0.68729  0.90630  1.0000
  S   S327      1.0  0.58676  0.71973  0.91144  1.0000
  S   S328      1.0  0.56278  0.67845  0.89426  1.0000
  Fe  Fe167     1.0  0.61936  0.71760  0.89844  1.0000
  S   S329      1.0  0.62995  0.74134  0.87661  1.0000
  Fe  Fe168     1.0  0.60084  0.70600  0.93520  1.0000
  S   S330      1.0  0.58685  0.71508  0.96113  1.0000
  S   S331      1.0  0.62097  0.68531  0.89226  1.0000
  S   S332      1.0  0.59992  0.67357  0.93106  1.0000
  Fe  Fe169     1.0  0.40139  0.85335  0.83975  1.0000
  S   S333      1.0  0.42946  0.84826  0.82039  1.0000
  S   S334      1.0  0.39231  0.83088  0.86313  1.0000
  Fe  Fe170     1.0  0.38767  0.89674  0.82143  1.0000
  S   S335      1.0  0.41406  0.89426  0.80040  1.0000
  S   S336      1.0  0.36406  0.92537  0.82151  1.0000
  Fe  Fe171     1.0  0.40793  0.86201  0.80092  1.0000
  S   S337      1.0  0.40786  0.84554  0.77806  1.0000
  Fe  Fe172     1.0  0.43249  0.88106  0.82175  1.0000
  S   S338      1.0  0.46086  0.89416  0.82399  1.0000
  S   S339      1.0  0.37962  0.86539  0.82020  1.0000
  S   S340      1.0  0.40642  0.88522  0.84285  1.0000
  Fe  Fe173     1.0  0.59098  0.84605  0.81877  1.0000
  S   S341      1.0  0.58849  0.83321  0.79475  1.0000
  S   S342      1.0  0.58298  0.82705  0.84464  1.0000
  Fe  Fe174     1.0  0.59384  0.89009  0.79998  1.0000
  S   S343      1.0  0.59149  0.87949  0.77506  1.0000
  S   S344      1.0  0.59424  0.92462  0.79325  1.0000
  Fe  Fe175     1.0  0.56683  0.86203  0.78875  1.0000
  S   S345      1.0  0.53895  0.86124  0.77577  1.0000
  Fe  Fe176     1.0  0.61343  0.85191  0.78276  1.0000
  C   C1471     1.0  0.49267  0.73268  0.98477  1.0000
  S   S346      1.0  0.56733  0.87413  0.81337  1.0000
  S   S347      1.0  0.61798  0.86309  0.80708  1.0000
  C   C1472     1.0  0.36580  0.60752  0.91956  1.0000
  H   H2602     1.0  0.37755  0.59758  0.92615  1.0000
  C   C1473     1.0  0.34684  0.82709  0.83605  1.0000
  C   C1474     1.0  0.59344  0.94454  0.80596  1.0000
  C   C1475     1.0  0.59580  0.94081  0.82327  1.0000
  C   C1476     1.0  0.59594  0.95736  0.83247  1.0000
  H   H2603     1.0  0.54724  0.88971  0.86891  1.0000
  C   C1477     1.0  0.34646  0.96866  0.79000  1.0000
  H   H2604     1.0  0.59780  0.92523  0.82951  1.0000
  H   H2605     1.0  0.59802  0.95436  0.84581  1.0000
  C   C1478     1.0  0.48141  0.88742  0.80858  1.0000
  C   C1479     1.0  0.47962  0.87439  0.79679  1.0000
  C   C1480     1.0  0.49720  0.86714  0.78595  1.0000
  C   C1481     1.0  0.51645  0.87268  0.78720  1.0000
  C   C1482     1.0  0.51787  0.88645  0.79841  1.0000
  C   C1483     1.0  0.50036  0.89393  0.80902  1.0000
  H   H2606     1.0  0.46490  0.86943  0.79639  1.0000
  H   H2607     1.0  0.49605  0.85653  0.77720  1.0000
  H   H2608     1.0  0.53249  0.89128  0.79902  1.0000
  H   H2609     1.0  0.50165  0.90421  0.81800  1.0000
  C   C1484     1.0  0.36919  0.94808  0.82817  1.0000
  C   C1485     1.0  0.35234  0.96096  0.83544  1.0000
  H   H2610     1.0  0.42519  0.95378  0.75903  1.0000
  H   H2611     1.0  0.33711  0.95629  0.83769  1.0000
  C   C1486     1.0  0.61766  0.82179  0.74306  1.0000
  H   H2612     1.0  0.37210  0.73617  0.85650  1.0000
  H   H2613     1.0  0.39065  0.80744  0.78712  1.0000
  C   C1487     1.0  0.62558  0.83996  0.74333  1.0000
  H   H2614     1.0  0.45563  0.74586  0.90397  1.0000
  C   C1488     1.0  0.39963  0.85984  0.75931  1.0000
  N   N85       1.0  0.38648  0.78777  0.81104  1.0000
  H   H2615     1.0  0.41287  0.83506  0.90192  1.0000
  H   H2616     1.0  0.39473  0.88917  0.76870  1.0000
  H   H2617     1.0  0.39328  0.81091  0.93704  1.0000
  H   H2618     1.0  0.56633  0.88915  0.74836  1.0000
  C   C1489     1.0  0.34803  0.59968  0.91687  1.0000
  C   C1490     1.0  0.40958  0.78249  0.81159  1.0000
  H   H2619     1.0  0.56116  0.87145  0.85522  1.0000
  C   C1491     1.0  0.64952  0.92687  0.76462  1.0000
  H   H2620     1.0  0.35111  0.78728  0.79386  1.0000
  C   C1492     1.0  0.61640  0.76507  0.86799  1.0000
  C   C1493     1.0  0.62479  0.77493  0.85233  1.0000
  C   C1494     1.0  0.61472  0.79376  0.84495  1.0000
  C   C1495     1.0  0.59614  0.80310  0.85321  1.0000
  C   C1496     1.0  0.58763  0.79317  0.86883  1.0000
  C   C1497     1.0  0.59766  0.77427  0.87617  1.0000
  H   H2621     1.0  0.63928  0.76802  0.84589  1.0000
  H   H2622     1.0  0.62149  0.80117  0.83296  1.0000
  H   H2623     1.0  0.59103  0.76694  0.88824  1.0000
  C   C1498     1.0  0.36851  0.62806  0.91387  1.0000
  C   C1499     1.0  0.35334  0.64055  0.90505  1.0000
  H   H2624     1.0  0.35135  0.75168  0.84622  1.0000
  H   H2625     1.0  0.35530  0.65626  0.90032  1.0000
  H   H2626     1.0  0.36119  0.67362  0.96540  1.0000
  C   C1500     1.0  0.39529  0.71508  0.97657  1.0000
  C   C1501     1.0  0.41653  0.70831  0.97328  1.0000
  H   H2627     1.0  0.42321  0.70418  0.96084  1.0000
  C   C1502     1.0  0.49587  0.68569  0.92128  1.0000
  C   C1503     1.0  0.50032  0.67947  0.90500  1.0000
  C   C1504     1.0  0.52086  0.67748  0.89676  1.0000
  C   C1505     1.0  0.53705  0.68177  0.90469  1.0000
  C   C1506     1.0  0.53248  0.68860  0.92074  1.0000
  C   C1507     1.0  0.51199  0.69055  0.92896  1.0000
  H   H2628     1.0  0.48805  0.67565  0.89897  1.0000
  H   H2629     1.0  0.52425  0.67226  0.88432  1.0000
  H   H2630     1.0  0.54478  0.69210  0.92691  1.0000
  H   H2631     1.0  0.50861  0.69560  0.94145  1.0000
  C   C1508     1.0  0.40815  0.76041  0.87137  1.0000
  C   C1509     1.0  0.42052  0.77206  0.85910  1.0000
  C   C1510     1.0  0.41588  0.79364  0.85640  1.0000
  C   C1511     1.0  0.39871  0.80377  0.86585  1.0000
  C   C1512     1.0  0.38635  0.79211  0.87809  1.0000
  C   C1513     1.0  0.39091  0.77054  0.88070  1.0000
  H   H2632     1.0  0.43375  0.76433  0.85166  1.0000
  H   H2633     1.0  0.42559  0.80250  0.84710  1.0000
  H   H2634     1.0  0.37295  0.79979  0.88539  1.0000
  H   H2635     1.0  0.38086  0.76168  0.88969  1.0000
  H   H2636     1.0  0.41289  0.77877  0.82499  1.0000
  H   H2637     1.0  0.46609  0.96600  0.79885  1.0000
  H   H2638     1.0  0.42371  0.80107  0.78923  1.0000
  H   H2639     1.0  0.57330  0.80026  0.87536  1.0000
  C   C1514     1.0  0.54424  0.93062  0.74862  1.0000
  H   H2640     1.0  0.59700  0.77957  0.92660  1.0000
  C   C1515     1.0  0.54723  0.92247  0.76743  1.0000
  C   C1516     1.0  0.53100  0.93399  0.77971  1.0000
  H   H2641     1.0  0.56492  0.78824  0.94638  1.0000
  H   H2642     1.0  0.63408  0.55723  0.92378  1.0000
  H   H2643     1.0  0.57701  0.65941  0.96727  1.0000
  H   H2644     1.0  0.33106  0.82675  0.84310  1.0000
  H   H2645     1.0  0.32383  0.64264  0.89573  1.0000
  H   H2646     1.0  0.56258  0.92479  0.77022  1.0000
  H   H2647     1.0  0.54594  0.90594  0.77037  1.0000
  C   C1517     1.0  0.58026  0.92277  0.73605  1.0000
  H   H2648     1.0  0.53162  0.95072  0.77726  1.0000
  H   H2649     1.0  0.51522  0.93102  0.77849  1.0000
  H   H2650     1.0  0.53416  0.92865  0.79301  1.0000
  C   C1518     1.0  0.51896  0.66511  0.97600  1.0000
  S   S348      1.0  0.63739  0.84319  0.76092  1.0000
  H   H2651     1.0  0.32367  0.63378  0.93651  1.0000
  H   H2652     1.0  0.33931  0.63080  0.95309  1.0000
  H   H2653     1.0  0.54007  0.89499  0.74489  1.0000
  H   H2654     1.0  0.37793  0.65247  0.95658  1.0000
  H   H2655     1.0  0.47840  0.73956  0.97902  1.0000
  H   H2656     1.0  0.35420  0.79456  0.84134  1.0000
  H   H2657     1.0  0.58433  0.79138  0.82014  1.0000
  H   H2658     1.0  0.36001  0.77126  0.81818  1.0000
  H   H2659     1.0  0.36622  0.79044  0.76322  1.0000
  H   H2660     1.0  0.37430  0.74338  0.92657  1.0000
  H   H2661     1.0  0.62210  0.78455  0.97404  1.0000
  C   C1519     1.0  0.43093  0.76624  0.98245  1.0000
  C   C1520     1.0  0.54252  0.69299  0.83905  1.0000
  C   C1521     1.0  0.51006  0.65345  0.96435  1.0000
  H   H2662     1.0  0.59955  0.78477  0.95664  1.0000
  H   H2663     1.0  0.38181  0.77008  0.84440  1.0000
  H   H2664     1.0  0.54358  0.72341  0.89382  1.0000
  C   C1522     1.0  0.39966  0.96417  0.77791  1.0000
  H   H2665     1.0  0.54817  0.76972  0.98085  1.0000
  H   H2666     1.0  0.45671  0.89030  0.76438  1.0000
  H   H2667     1.0  0.36824  0.81710  0.76401  1.0000
  C   C1523     1.0  0.60800  0.65620  0.97427  1.0000
  C   C1524     1.0  0.64930  0.63134  0.98321  1.0000
  H   H2668     1.0  0.64837  0.97174  0.78617  1.0000
  H   H2669     1.0  0.55313  0.74602  0.89799  1.0000
  H   H2670     1.0  0.54630  0.94699  0.74724  1.0000
  C   C1525     1.0  0.33554  0.63272  0.90238  1.0000
  C   C1526     1.0  0.39884  0.84961  0.74533  1.0000
  C   C1527     1.0  0.41453  0.94717  0.76973  1.0000
  H   H2671     1.0  0.38122  0.96804  0.75700  1.0000
  H   H2672     1.0  0.39075  0.78120  0.78494  1.0000
  H   H2673     1.0  0.56390  0.76139  0.95307  1.0000
  H   H2674     1.0  0.33631  0.59295  0.97680  1.0000
  H   H2675     1.0  0.36987  0.78958  0.92914  1.0000
  H   H2676     1.0  0.42768  0.84861  0.91253  1.0000
  H   H2677     1.0  0.40263  0.83309  0.74639  1.0000
  H   H2678     1.0  0.56819  0.74853  0.98072  1.0000
  H   H2679     1.0  0.58561  0.78356  0.79932  1.0000
  H   H2680     1.0  0.32523  0.56104  0.97089  1.0000
  C   C1528     1.0  0.37802  0.80541  0.82130  1.0000
  C   C1529     1.0  0.35521  0.80627  0.82999  1.0000
  H   H2681     1.0  0.34320  0.80869  0.76719  1.0000
  H   H2682     1.0  0.38745  0.80538  0.83175  1.0000
  H   H2683     1.0  0.37962  0.82031  0.81321  1.0000
  C   C1530     1.0  0.46467  0.87577  0.74119  1.0000
  H   H2684     1.0  0.32304  0.66323  0.96313  1.0000
  H   H2685     1.0  0.35007  0.66367  0.93648  1.0000
  H   H2686     1.0  0.41618  0.81426  0.80787  1.0000
  H   H2687     1.0  0.55341  0.68635  0.82862  1.0000
  H   H2688     1.0  0.34459  0.80333  0.82146  1.0000
  H   H2689     1.0  0.59926  0.75820  0.96317  1.0000
  N   N86       1.0  0.57773  0.73223  0.84680  1.0000
  C   C1531     1.0  0.57185  0.73195  0.86580  1.0000
  C   C1532     1.0  0.59994  0.72230  0.84331  1.0000
  C   C1533     1.0  0.57666  0.75446  0.83912  1.0000
  C   C1534     1.0  0.56343  0.72204  0.83868  1.0000
  C   C1535     1.0  0.55393  0.70373  0.84963  1.0000
  C   C1536     1.0  0.55085  0.74508  0.87130  1.0000
  C   C1537     1.0  0.58515  0.75852  0.81998  1.0000
  C   C1538     1.0  0.60476  0.69922  0.84969  1.0000
  C   C1539     1.0  0.62812  0.69200  0.84750  1.0000
  H   H2690     1.0  0.53502  0.65751  0.97726  1.0000
  H   H2691     1.0  0.34824  0.97452  0.80186  1.0000
  C   C1540     1.0  0.65293  0.96365  0.75173  1.0000
  H   H2692     1.0  0.58397  0.73755  0.87149  1.0000
  H   H2693     1.0  0.57152  0.71611  0.87225  1.0000
  H   H2694     1.0  0.60521  0.72335  0.82942  1.0000
  H   H2695     1.0  0.61027  0.73067  0.84874  1.0000
  H   H2696     1.0  0.58528  0.76283  0.84614  1.0000
  H   H2697     1.0  0.56036  0.76227  0.84049  1.0000
  H   H2698     1.0  0.54997  0.73330  0.83486  1.0000
  H   H2699     1.0  0.57156  0.71665  0.82655  1.0000
  C   C1541     1.0  0.58680  0.76785  0.93193  1.0000
  C   C1542     1.0  0.63814  0.94872  0.76163  1.0000
  H   H2700     1.0  0.55267  0.76157  0.86902  1.0000
  H   H2701     1.0  0.53865  0.74280  0.86389  1.0000
  H   H2702     1.0  0.57938  0.74852  0.81233  1.0000
  H   H2703     1.0  0.60236  0.75573  0.81828  1.0000
  H   H2704     1.0  0.59883  0.69573  0.86329  1.0000
  H   H2705     1.0  0.59779  0.69012  0.84206  1.0000
  H   H2706     1.0  0.63466  0.69424  0.83386  1.0000
  H   H2707     1.0  0.63124  0.67544  0.85229  1.0000
  C   C1543     1.0  0.36738  0.74347  0.84400  1.0000
  H   H2708     1.0  0.55629  0.80218  0.97013  1.0000
  C   C1544     1.0  0.33260  0.61231  0.90845  1.0000
  H   H2709     1.0  0.58484  0.91663  0.74883  1.0000
  H   H2710     1.0  0.39457  0.66598  0.97742  1.0000
  H   H2711     1.0  0.35650  0.64739  0.97248  1.0000
  H   H2712     1.0  0.58006  0.81006  0.97180  1.0000
  H   H2713     1.0  0.61795  0.81018  0.75401  1.0000
  H   H2714     1.0  0.50629  0.73470  0.97504  1.0000
  H   H2715     1.0  0.61205  0.64118  0.96928  1.0000
  H   H2716     1.0  0.35343  0.81396  0.79434  1.0000
  H   H2717     1.0  0.54253  0.70906  0.86030  1.0000
  C   C1545     1.0  0.59087  0.96489  0.79807  1.0000
  C   C1546     1.0  0.57444  0.77306  0.94888  1.0000
  H   H2718     1.0  0.34783  0.59751  0.95498  1.0000
  C   C1547     1.0  0.39438  0.88116  0.75794  1.0000
  H   H2719     1.0  0.40124  0.84608  0.92112  1.0000
  C   C1548     1.0  0.33750  0.56826  0.96219  1.0000
  H   H2720     1.0  0.51968  0.68092  0.96958  1.0000
  H   H2721     1.0  0.41585  0.76844  0.80535  1.0000
  H   H2722     1.0  0.41858  0.76190  0.90599  1.0000
  H   H2723     1.0  0.46339  0.77109  0.89828  1.0000
  H   H2724     1.0  0.47870  0.86668  0.74614  1.0000
  H   H2725     1.0  0.40201  0.94460  0.81957  1.0000
  C   C1549     1.0  0.35957  0.80421  0.76962  1.0000
  H   H2726     1.0  0.50918  0.63737  0.97012  1.0000
  C   C1550     1.0  0.41996  0.78353  0.95405  1.0000
  H   H2727     1.0  0.43797  0.81122  0.91831  1.0000
  H   H2728     1.0  0.44570  0.70168  0.98337  1.0000
  H   H2729     1.0  0.36776  0.73124  0.83583  1.0000
  C   C1551     1.0  0.38694  0.97814  0.76466  1.0000
  H   H2730     1.0  0.65110  0.72658  0.98037  1.0000
  C   C1552     1.0  0.38318  0.79375  0.79260  1.0000
  H   H2731     1.0  0.42656  0.78695  0.90071  1.0000
  H   H2732     1.0  0.41310  0.75342  0.96753  1.0000
  C   C1553     1.0  0.56881  0.79984  0.97841  1.0000
  H   H2733     1.0  0.58897  0.96788  0.78472  1.0000
  H   H2734     1.0  0.52773  0.93031  0.74720  1.0000
  C   C1554     1.0  0.32492  0.96221  0.79247  1.0000
  H   H2735     1.0  0.40113  0.80349  0.91650  1.0000
  H   H2736     1.0  0.44914  0.76114  0.88457  1.0000
  C   C1555     1.0  0.43046  0.77130  0.90734  1.0000
  C   C1556     1.0  0.37707  0.76852  0.81782  1.0000
  H   H2737     1.0  0.42689  0.82233  0.93749  1.0000
  C   C1557     1.0  0.58915  0.77331  0.96232  1.0000
  H   H2738     1.0  0.38718  0.77581  0.91394  1.0000
  C   C1558     1.0  0.37966  0.77465  0.92717  1.0000
  C   C1559     1.0  0.62333  0.72100  0.97158  1.0000
  C   C1560     1.0  0.57875  0.78083  0.81285  1.0000
  C   C1561     1.0  0.44936  0.88174  0.75656  1.0000
  H   H2739     1.0  0.34627  0.58388  0.92132  1.0000
  H   H2740     1.0  0.34585  0.83924  0.82501  1.0000
  C   C1562     1.0  0.41577  0.83818  0.91459  1.0000
  N   N87       1.0  0.51099  0.84388  0.84866  1.0000
  C   C1563     1.0  0.50954  0.83748  0.83158  1.0000
  C   C1564     1.0  0.49013  0.85470  0.85555  1.0000
  C   C1565     1.0  0.52606  0.85926  0.84572  1.0000
  C   C1566     1.0  0.51862  0.82618  0.86134  1.0000
  C   C1567     1.0  0.51249  0.80492  0.86012  1.0000
  C   C1568     1.0  0.53047  0.82946  0.82138  1.0000
  C   C1569     1.0  0.52803  0.86992  0.86130  1.0000
  C   C1570     1.0  0.47168  0.84234  0.85839  1.0000
  C   C1571     1.0  0.45152  0.85536  0.86486  1.0000
  C   C1572     1.0  0.51372  0.79089  0.87691  1.0000
  C   C1573     1.0  0.52724  0.81766  0.80720  1.0000
  C   C1574     1.0  0.54640  0.88193  0.85771  1.0000
  H   H2741     1.0  0.50211  0.85067  0.82333  1.0000
  H   H2742     1.0  0.49912  0.82579  0.83268  1.0000
  H   H2743     1.0  0.49077  0.85965  0.86811  1.0000
  H   H2744     1.0  0.48590  0.86902  0.84695  1.0000
  H   H2745     1.0  0.52194  0.87158  0.83528  1.0000
  H   H2746     1.0  0.54190  0.85174  0.84137  1.0000
  H   H2747     1.0  0.53590  0.82371  0.86023  1.0000
  H   H2748     1.0  0.51353  0.83006  0.87454  1.0000
  H   H2749     1.0  0.52323  0.79738  0.85005  1.0000
  H   H2750     1.0  0.49665  0.80581  0.85687  1.0000
  H   H2751     1.0  0.53841  0.84264  0.81529  1.0000
  H   H2752     1.0  0.54098  0.81937  0.82970  1.0000
  H   H2753     1.0  0.53031  0.85856  0.87270  1.0000
  H   H2754     1.0  0.51393  0.88107  0.86426  1.0000
  H   H2755     1.0  0.46921  0.83706  0.84643  1.0000
  H   H2756     1.0  0.47423  0.82907  0.86830  1.0000
  H   H2757     1.0  0.43845  0.84634  0.86635  1.0000
  H   H2758     1.0  0.45257  0.86018  0.87739  1.0000
  H   H2759     1.0  0.44806  0.86923  0.85568  1.0000
  H   H2760     1.0  0.52944  0.78920  0.88082  1.0000
  H   H2761     1.0  0.50215  0.79722  0.88709  1.0000
  H   H2762     1.0  0.51019  0.77558  0.87535  1.0000
  H   H2763     1.0  0.54210  0.81441  0.79885  1.0000
  H   H2764     1.0  0.52167  0.80294  0.81266  1.0000
  H   H2765     1.0  0.51582  0.82687  0.79920  1.0000
  H   H2766     1.0  0.54463  0.89378  0.84652  1.0000
  H   H2767     1.0  0.45255  0.77934  0.80267  1.0000
  H   H2768     1.0  0.35180  0.49655  0.97498  1.0000
  H   H2769     1.0  0.40170  0.75287  0.94078  1.0000
  H   H2770     1.0  0.61226  0.66833  0.96396  1.0000
  H   H2771     1.0  0.44560  0.79260  0.82137  1.0000
  C   C1575     1.0  0.42286  0.79936  0.80332  1.0000
  C   C1576     1.0  0.44515  0.79399  0.80744  1.0000
  H   H2772     1.0  0.44637  0.77796  0.92726  1.0000
  C   C1577     1.0  0.38229  0.75842  0.83572  1.0000
  H   H2773     1.0  0.39818  0.74963  0.83465  1.0000
  H   H2774     1.0  0.56572  0.69208  0.85532  1.0000
  C   C1578     1.0  0.36531  0.75838  0.92939  1.0000
  H   H2775     1.0  0.43541  0.89175  0.75234  1.0000
  C   C1579     1.0  0.54332  0.74016  0.89022  1.0000
  C   C1580     1.0  0.38888  0.95444  0.82523  1.0000
  H   H2776     1.0  0.35693  0.83092  0.84473  1.0000
  H   H2777     1.0  0.57381  0.85609  0.73767  1.0000
  C   C1581     1.0  0.45095  0.76178  0.89805  1.0000
  H   H2778     1.0  0.53556  0.68032  0.84733  1.0000
  C   C1582     1.0  0.42341  0.81823  0.92536  1.0000
  C   C1583     1.0  0.40683  0.80355  0.92886  1.0000
  H   H2779     1.0  0.45417  0.80634  0.80118  1.0000
  C   C1584     1.0  0.55608  0.89699  0.73882  1.0000
  C   C1585     1.0  0.43215  0.77137  0.92642  1.0000
  H   H2780     1.0  0.43560  0.75500  0.93178  1.0000
  H   H2781     1.0  0.52715  0.74764  0.89320  1.0000
  H   H2782     1.0  0.38238  0.75666  0.80899  1.0000
  H   H2783     1.0  0.62528  0.94811  0.75432  1.0000
  C   C1586     1.0  0.36051  0.79970  0.78881  1.0000
  H   H2784     1.0  0.64464  0.62942  0.97077  1.0000
  H   H2785     1.0  0.57603  0.76738  0.92260  1.0000
  C   C1587     1.0  0.39139  0.97386  0.82931  1.0000
  H   H2786     1.0  0.63516  0.57256  0.90328  1.0000
  H   H2787     1.0  0.42393  0.93800  0.77938  1.0000
  C   C1588     1.0  0.38884  0.89219  0.74253  1.0000
  H   H2788     1.0  0.44387  0.77541  0.98088  1.0000
  N   N88       1.0  0.41366  0.78201  0.93691  1.0000
  C   C1589     1.0  0.33486  0.59125  0.96347  1.0000
  H   H2789     1.0  0.43360  0.79179  0.95252  1.0000
  C   C1590     1.0  0.39580  0.76959  0.93998  1.0000
  H   H2790     1.0  0.63606  0.70062  0.85486  1.0000
  H   H2791     1.0  0.43981  0.75368  0.95884  1.0000
  H   H2792     1.0  0.62932  0.72356  0.95823  1.0000
  H   H2793     1.0  0.44463  0.86787  0.76469  1.0000
  H   H2794     1.0  0.59647  0.75257  0.93365  1.0000
  H   H2795     1.0  0.33665  0.56554  0.94897  1.0000
  C   C1591     1.0  0.60325  0.71618  0.97636  1.0000
  H   H2796     1.0  0.45386  0.84805  0.73873  1.0000
  H   H2797     1.0  0.40577  0.93674  0.76496  1.0000
  H   H2798     1.0  0.56166  0.78433  0.81351  1.0000
  C   C1592     1.0  0.36857  0.65750  0.96837  1.0000
  H   H2799     1.0  0.35282  0.56083  0.96580  1.0000
  C   C1593     1.0  0.42591  0.76278  0.96513  1.0000
  H   H2800     1.0  0.40722  0.79275  0.96169  1.0000
  H   H2801     1.0  0.63824  0.68243  0.97138  1.0000
  H   H2802     1.0  0.35775  0.95468  0.78814  1.0000
  H   H2803     1.0  0.52988  0.70389  0.83357  1.0000
  H   H2804     1.0  0.35358  0.76288  0.92040  1.0000
  H   H2805     1.0  0.38647  0.77160  0.95261  1.0000
  H   H2806     1.0  0.52016  0.65317  0.95194  1.0000
  H   H2807     1.0  0.62250  0.91554  0.73732  1.0000
  H   H2808     1.0  0.63843  0.91652  0.77127  1.0000
  H   H2809     1.0  0.49433  0.66111  0.96186  1.0000
  H   H2810     1.0  0.57956  0.67544  0.98285  1.0000
  H   H2811     1.0  0.32864  0.67060  0.92407  1.0000
  H   H2812     1.0  0.63245  0.54582  0.90485  1.0000
  C   C1594     1.0  0.63981  0.55706  0.91002  1.0000
  H   H2813     1.0  0.43928  0.97688  0.79836  1.0000
  H   H2814     1.0  0.63107  0.95331  0.77418  1.0000
  C   C1595     1.0  0.38251  0.65594  0.98224  1.0000
  H   H2815     1.0  0.38970  0.95682  0.78860  1.0000
  H   H2816     1.0  0.39040  0.63995  0.98399  1.0000
  N   N89       1.0  0.57895  0.77778  0.97989  1.0000
  H   H2817     1.0  0.32368  0.95022  0.80364  1.0000
  C   C1596     1.0  0.32333  0.63632  0.94998  1.0000
  C   C1597     1.0  0.33365  0.67092  0.93667  1.0000
  H   H2818     1.0  0.54094  0.83536  0.98273  1.0000
  H   H2819     1.0  0.38489  0.90869  0.74152  1.0000
  C   C1598     1.0  0.63561  0.72275  0.98412  1.0000
  C   C1599     1.0  0.59368  0.97772  0.82448  1.0000
  H   H2820     1.0  0.48990  0.70276  0.97942  1.0000
  H   H2821     1.0  0.54627  0.85786  0.73706  1.0000
  H   H2822     1.0  0.33264  0.68720  0.93877  1.0000
  H   H2823     1.0  0.58921  0.96874  0.74724  1.0000
  H   H2824     1.0  0.40913  0.97338  0.78332  1.0000
  H   H2825     1.0  0.32487  0.62500  0.98217  1.0000
  C   C1600     1.0  0.58450  0.66000  0.97871  1.0000
  H   H2826     1.0  0.64956  0.66197  0.95993  1.0000
  C   C1601     1.0  0.64951  0.66816  0.97212  1.0000
  H   H2827     1.0  0.34696  0.97801  0.76325  1.0000
  H   H2828     1.0  0.32225  0.95571  0.78109  1.0000
  C   C1602     1.0  0.68135  0.01739  0.06274  1.0000
  H   H2829     1.0  0.90556  0.40284  0.20599  1.0000
  H   H2830     1.0  0.67158  0.01484  0.14306  1.0000
  H   H2831     1.0  0.84363  0.37915  0.20504  1.0000
  H   H2832     1.0  0.71494  0.40886  0.01766  1.0000
  H   H2833     1.0  0.75827  0.28663  0.01846  1.0000
  H   H2834     1.0  0.68615  0.04453  0.07199  1.0000
  H   H2835     1.0  0.71561  0.31881  0.99138  1.0000
  C   C1603     1.0  0.75186  0.29701  0.04299  1.0000
  H   H2836     1.0  0.68722  0.37248  0.07626  1.0000
  C   C1604     1.0  0.78064  0.46201  0.99848  1.0000
  C   C1605     1.0  0.65670  0.36193  0.08206  1.0000
  H   H2837     1.0  0.85526  0.46253  0.09399  1.0000
  H   H2838     1.0  0.89876  0.42425  0.19081  1.0000
  H   H2839     1.0  0.68734  0.00275  0.12575  1.0000
  H   H2840     1.0  0.86462  0.46873  0.17147  1.0000
  Fe  Fe177     1.0  0.73319  0.39505  0.06802  1.0000
  S   S349      1.0  0.76763  0.38855  0.06519  1.0000
  S   S350      1.0  0.71672  0.42773  0.06686  1.0000
  Fe  Fe178     1.0  0.72862  0.34938  0.06650  1.0000
  S   S351      1.0  0.76343  0.33985  0.06422  1.0000
  S   S352      1.0  0.70337  0.33263  0.05978  1.0000
  Fe  Fe179     1.0  0.76324  0.36086  0.08425  1.0000
  S   S353      1.0  0.77851  0.35914  0.10842  1.0000
  Fe  Fe180     1.0  0.76497  0.36857  0.04560  1.0000
  S   S354      1.0  0.78484  0.37203  0.02003  1.0000
  S   S355      1.0  0.72819  0.36834  0.08796  1.0000
  S   S356      1.0  0.73074  0.37721  0.04698  1.0000
  C   C1606     1.0  0.98005  0.37017  0.14869  1.0000
  Fe  Fe181     1.0  0.92460  0.37207  0.15058  1.0000
  S   S357      1.0  0.90926  0.38685  0.17343  1.0000
  Fe  Fe182     1.0  0.88457  0.35629  0.14592  1.0000
  S   S358      1.0  0.86653  0.36974  0.16878  1.0000
  S   S359      1.0  0.87082  0.33948  0.12824  1.0000
  Fe  Fe183     1.0  0.88222  0.39722  0.15891  1.0000
  S   S360      1.0  0.86584  0.42941  0.16008  1.0000
  Fe  Fe184     1.0  0.89509  0.35831  0.18169  1.0000
  S   S361      1.0  0.89147  0.34731  0.21003  1.0000
  S   S362      1.0  0.89838  0.38491  0.13513  1.0000
  S   S363      1.0  0.91227  0.34217  0.15969  1.0000
  H   H2841     1.0  0.79325  0.44864  0.99885  1.0000
  C   C1607     1.0  0.92164  0.44776  0.15599  1.0000
  C   C1608     1.0  0.90567  0.43715  0.15410  1.0000
  C   C1609     1.0  0.88518  0.44448  0.15997  1.0000
  C   C1610     1.0  0.85884  0.47280  0.12310  1.0000
  H   H2842     1.0  0.68224  0.09772  0.07427  1.0000
  H   H2843     1.0  0.93755  0.44163  0.15190  1.0000
  H   H2844     1.0  0.90937  0.42306  0.14836  1.0000
  H   H2845     1.0  0.78966  0.44247  0.05701  1.0000
  C   C1611     1.0  0.92923  0.30102  0.21218  1.0000
  C   C1612     1.0  0.92579  0.36274  0.21613  1.0000
  C   C1613     1.0  0.90660  0.35664  0.22278  1.0000
  C   C1614     1.0  0.78266  0.46373  0.03450  1.0000
  C   C1615     1.0  0.88050  0.46303  0.16694  1.0000
  H   H2846     1.0  0.93129  0.36253  0.20271  1.0000
  C   C1616     1.0  0.75521  0.35594  0.00757  1.0000
  C   C1617     1.0  0.72666  0.44608  0.07612  1.0000
  H   H2847     1.0  0.75826  0.45084  0.10500  1.0000
  C   C1618     1.0  0.67867  0.03080  0.07712  1.0000
  C   C1619     1.0  0.75346  0.44028  0.00516  1.0000
  C   C1620     1.0  0.74787  0.45539  0.09543  1.0000
  C   C1621     1.0  0.74071  0.44029  0.08806  1.0000
  C   C1622     1.0  0.73467  0.43223  0.01654  1.0000
  H   H2848     1.0  0.72274  0.27116  0.99014  1.0000
  H   H2849     1.0  0.74815  0.44530  0.99246  1.0000
  H   H2850     1.0  0.74563  0.42420  0.09195  1.0000
  C   C1623     1.0  0.80456  0.35408  0.11307  1.0000
  C   C1624     1.0  0.81925  0.33919  0.10570  1.0000
  C   C1625     1.0  0.83945  0.33494  0.11043  1.0000
  C   C1626     1.0  0.84515  0.34534  0.12273  1.0000
  C   C1627     1.0  0.83036  0.35998  0.13030  1.0000
  C   C1628     1.0  0.81022  0.36432  0.12549  1.0000
  H   H2851     1.0  0.81484  0.33039  0.09683  1.0000
  H   H2852     1.0  0.85063  0.32328  0.10475  1.0000
  H   H2853     1.0  0.83429  0.36758  0.14019  1.0000
  H   H2854     1.0  0.79883  0.37542  0.13166  1.0000
  H   H2855     1.0  0.72069  0.25016  0.02572  1.0000
  H   H2856     1.0  0.74819  0.35340  0.02061  1.0000
  C   C1629     1.0  0.86479  0.42216  0.21076  1.0000
  H   H2857     1.0  0.73975  0.29717  0.05423  1.0000
  H   H2858     1.0  0.86309  0.42992  0.19761  1.0000
  C   C1630     1.0  0.67053  0.27483  0.07402  1.0000
  C   C1631     1.0  0.68748  0.27685  0.08219  1.0000
  C   C1632     1.0  0.69789  0.29420  0.07792  1.0000
  C   C1633     1.0  0.69138  0.30995  0.06547  1.0000
  C   C1634     1.0  0.67452  0.30790  0.05720  1.0000
  N   N90       1.0  0.83815  0.47177  0.11760  1.0000
  H   H2859     1.0  0.69259  0.26485  0.09195  1.0000
  H   H2860     1.0  0.71090  0.29539  0.08433  1.0000
  H   H2861     1.0  0.84394  0.43112  0.10707  1.0000
  H   H2862     1.0  0.73617  0.47764  0.00137  1.0000
  C   C1635     1.0  0.92300  0.42777  0.20501  1.0000
  H   H2863     1.0  0.93829  0.47573  0.20593  1.0000
  H   H2864     1.0  0.67858  0.07360  0.11018  1.0000
  H   H2865     1.0  0.65731  0.04806  0.12409  1.0000
  H   H2866     1.0  0.67377  0.02577  0.05173  1.0000
  C   C1636     1.0  0.77352  0.36455  0.00365  1.0000
  C   C1637     1.0  0.70677  0.25982  0.03129  1.0000
  H   H2867     1.0  0.69266  0.32896  0.01887  1.0000
  C   C1638     1.0  0.67080  0.37860  0.07506  1.0000
  C   C1639     1.0  0.76957  0.44963  0.02818  1.0000
  C   C1640     1.0  0.68717  0.32368  0.00801  1.0000
  C   C1641     1.0  0.65605  0.07078  0.09333  1.0000
  C   C1642     1.0  0.74587  0.35048  0.99461  1.0000
  C   C1643     1.0  0.68000  0.33077  0.12141  1.0000
  H   H2868     1.0  0.67516  0.25503  0.04200  1.0000
  C   C1644     1.0  0.74630  0.47653  0.01153  1.0000
  H   H2869     1.0  0.66646  0.39232  0.08189  1.0000
  C   C1645     1.0  0.83092  0.45205  0.12645  1.0000
  H   H2870     1.0  0.66983  0.31868  0.12445  1.0000
  H   H2871     1.0  0.72498  0.41847  0.99634  1.0000
  C   C1646     1.0  0.65548  0.03725  0.08325  1.0000
  H   H2872     1.0  0.68685  0.28769  0.02633  1.0000
  C   C1647     1.0  0.89651  0.47382  0.16862  1.0000
  H   H2873     1.0  0.70869  0.47157  0.06275  1.0000
  H   H2874     1.0  0.68336  0.33182  0.09397  1.0000
  H   H2875     1.0  0.83018  0.40180  0.21386  1.0000
  H   H2876     1.0  0.79873  0.46160  0.02787  1.0000
  C   C1648     1.0  0.74517  0.28731  0.02889  1.0000
  C   C1649     1.0  0.88745  0.41670  0.23398  1.0000
  H   H2877     1.0  0.66757  0.35280  0.00287  1.0000
  H   H2878     1.0  0.91287  0.30345  0.20954  1.0000
  C   C1650     1.0  0.83498  0.41306  0.13051  1.0000
  C   C1651     1.0  0.67777  0.07461  0.09629  1.0000
  H   H2879     1.0  0.97453  0.31042  0.21528  1.0000
  H   H2880     1.0  0.67332  0.31609  0.01287  1.0000
  C   C1652     1.0  0.66132  0.03859  0.11331  1.0000
  H   H2881     1.0  0.76810  0.46250  0.06070  1.0000
  H   H2882     1.0  0.75644  0.44690  0.03825  1.0000
  C   C1653     1.0  0.95876  0.47869  0.12103  1.0000
  H   H2883     1.0  0.76640  0.28803  0.04706  1.0000
  C   C1654     1.0  0.73094  0.27883  0.99809  1.0000
  C   C1655     1.0  0.70225  0.32023  0.12243  1.0000
  H   H2884     1.0  0.92746  0.42483  0.21805  1.0000
  H   H2885     1.0  0.95437  0.42548  0.19206  1.0000
  H   H2886     1.0  0.83109  0.45087  0.14045  1.0000
  C   C1656     1.0  0.98232  0.35165  0.15950  1.0000
  H   H2887     1.0  0.83829  0.44585  0.03470  1.0000
  C   C1657     1.0  0.84373  0.39581  0.20505  1.0000
  H   H2888     1.0  0.78719  0.47500  0.00200  1.0000
  H   H2889     1.0  0.72996  0.31536  0.01698  1.0000
  H   H2890     1.0  0.84493  0.39904  0.12649  1.0000
  H   H2891     1.0  0.75470  0.31298  0.03834  1.0000
  C   C1658     1.0  0.72005  0.46700  0.07152  1.0000
  N   N91       1.0  0.71546  0.29146  0.00971  1.0000
  C   C1659     1.0  0.84001  0.47119  0.09857  1.0000
  C   C1660     1.0  0.67780  0.34272  0.10348  1.0000
  H   H2892     1.0  0.83485  0.41266  0.14446  1.0000
  H   H2893     1.0  0.66922  0.31999  0.04761  1.0000
  C   C1661     1.0  0.93110  0.28969  0.23005  1.0000
  C   C1662     1.0  0.72542  0.30016  0.02239  1.0000
  N   N92       1.0  0.76207  0.45730  0.01113  1.0000
  H   H2894     1.0  0.72427  0.46610  0.03359  1.0000
  C   C1663     1.0  0.67142  0.00563  0.13258  1.0000
  H   H2895     1.0  0.79410  0.46844  0.05751  1.0000
  C   C1664     1.0  0.68987  0.24610  0.03679  1.0000
  C   C1665     1.0  0.84381  0.43186  0.12084  1.0000
  H   H2896     1.0  0.89082  0.39984  0.23375  1.0000
  H   H2897     1.0  0.69810  0.01320  0.05838  1.0000
  H   H2898     1.0  0.68695  0.23889  0.02585  1.0000
  H   H2899     1.0  0.93641  0.41791  0.18030  1.0000
  C   C1666     1.0  0.66939  0.38569  0.05618  1.0000
  H   H2900     1.0  0.84232  0.40361  0.19193  1.0000
  H   H2901     1.0  0.96924  0.34338  0.16334  1.0000
  H   H2902     1.0  0.81451  0.45187  0.12461  1.0000
  S   S364      1.0  0.65772  0.25274  0.08038  1.0000
  H   H2903     1.0  0.68694  0.02180  0.08749  1.0000
  H   H2904     1.0  0.73799  0.42692  0.02977  1.0000
  H   H2905     1.0  0.98740  0.35411  0.23405  1.0000
  H   H2906     1.0  0.74165  0.40107  0.00973  1.0000
  H   H2907     1.0  0.87676  0.39218  0.20187  1.0000
  C   C1667     1.0  0.78373  0.45888  0.05361  1.0000
  H   H2908     1.0  0.74285  0.27141  0.03398  1.0000
  H   H2909     1.0  0.69721  0.09872  0.09118  1.0000
  H   H2910     1.0  0.69477  0.23375  0.04691  1.0000
  N   N93       1.0  0.83624  0.38790  0.06310  1.0000
  C   C1668     1.0  0.84453  0.40490  0.05068  1.0000
  C   C1669     1.0  0.85250  0.37741  0.07427  1.0000
  C   C1670     1.0  0.83129  0.37237  0.05280  1.0000
  C   C1671     1.0  0.81657  0.39574  0.07385  1.0000
  C   C1672     1.0  0.81828  0.41101  0.08623  1.0000
  C   C1673     1.0  0.83120  0.41470  0.03631  1.0000
  C   C1674     1.0  0.82526  0.35205  0.06294  1.0000
  C   C1675     1.0  0.86766  0.39088  0.07873  1.0000
  C   C1676     1.0  0.87939  0.38006  0.09335  1.0000
  C   C1677     1.0  0.79699  0.41843  0.09549  1.0000
  N   N94       1.0  0.88391  0.42741  0.21649  1.0000
  C   C1678     1.0  0.82279  0.33693  0.05098  1.0000
  H   H2911     1.0  0.86003  0.39895  0.04418  1.0000
  H   H2912     1.0  0.84712  0.41753  0.05738  1.0000
  H   H2913     1.0  0.84496  0.36979  0.08640  1.0000
  H   H2914     1.0  0.86275  0.36480  0.06808  1.0000
  H   H2915     1.0  0.84477  0.36826  0.04311  1.0000
  H   H2916     1.0  0.81801  0.37898  0.04561  1.0000
  H   H2917     1.0  0.80457  0.40295  0.06569  1.0000
  H   H2918     1.0  0.80997  0.38282  0.08203  1.0000
  H   H2919     1.0  0.82480  0.42471  0.07945  1.0000
  H   H2920     1.0  0.82800  0.40330  0.09614  1.0000
  H   H2921     1.0  0.83154  0.40365  0.02708  1.0000
  H   H2922     1.0  0.81488  0.41946  0.04140  1.0000
  H   H2923     1.0  0.81020  0.35492  0.07108  1.0000
  H   H2924     1.0  0.83720  0.34434  0.07104  1.0000
  H   H2925     1.0  0.87930  0.39401  0.06748  1.0000
  H   H2926     1.0  0.85974  0.40582  0.08246  1.0000
  H   H2927     1.0  0.88721  0.36457  0.09063  1.0000
  H   H2928     1.0  0.89132  0.38918  0.09531  1.0000
  H   H2929     1.0  0.86856  0.37850  0.10532  1.0000
  H   H2930     1.0  0.79025  0.40536  0.10337  1.0000
  H   H2931     1.0  0.79840  0.42978  0.10399  1.0000
  H   H2932     1.0  0.78624  0.42590  0.08626  1.0000
  H   H2933     1.0  0.85606  0.42966  0.02100  1.0000
  C   C1679     1.0  0.88266  0.45041  0.21569  1.0000
  H   H2934     1.0  0.81899  0.41293  0.12781  1.0000
  H   H2935     1.0  0.83758  0.33288  0.04275  1.0000
  H   H2936     1.0  0.81823  0.32267  0.05859  1.0000
  H   H2937     1.0  0.81051  0.34355  0.04283  1.0000
  H   H2938     1.0  0.67977  0.39745  0.05153  1.0000
  H   H2939     1.0  0.70355  0.31181  0.13535  1.0000
  C   C1680     1.0  0.72875  0.41407  0.00958  1.0000
  C   C1681     1.0  0.91711  0.46591  0.16347  1.0000
  H   H2940     1.0  0.70679  0.30906  0.11300  1.0000
  H   H2941     1.0  0.85116  0.46276  0.21003  1.0000
  C   C1682     1.0  0.66418  0.29049  0.06141  1.0000
  H   H2942     1.0  0.71318  0.33170  0.11995  1.0000
  H   H2943     1.0  0.87056  0.45991  0.11898  1.0000
  H   H2944     1.0  0.83049  0.43966  0.01561  1.0000
  H   H2945     1.0  0.69745  0.30297  0.98883  1.0000
  H   H2946     1.0  0.82800  0.46270  0.09558  1.0000
  C   C1683     1.0  0.94074  0.41736  0.19324  1.0000
  H   H2947     1.0  0.77923  0.43429  0.02776  1.0000
  H   H2948     1.0  0.71395  0.30330  0.03370  1.0000
  H   H2949     1.0  0.95328  0.37267  0.22181  1.0000
  H   H2950     1.0  0.86008  0.43034  0.12341  1.0000
  H   H2951     1.0  0.72098  0.44433  0.01662  1.0000
  H   H2952     1.0  0.68925  0.35363  0.10121  1.0000
  H   H2953     1.0  0.77423  0.26893  0.98875  1.0000
  C   C1684     1.0  0.74174  0.47635  0.09038  1.0000
  H   H2954     1.0  0.85295  0.45688  0.23244  1.0000
  H   H2955     1.0  0.85048  0.42813  0.21871  1.0000
  C   C1685     1.0  0.90229  0.41987  0.20415  1.0000
  H   H2956     1.0  0.69317  0.35152  0.99117  1.0000
  H   H2957     1.0  0.69181  0.27285  0.00902  1.0000
  C   C1686     1.0  0.68197  0.09606  0.08831  1.0000
  H   H2958     1.0  0.94506  0.40108  0.19835  1.0000
  H   H2959     1.0  0.75180  0.30260  0.99174  1.0000
  C   C1687     1.0  0.86103  0.46300  0.22011  1.0000
  C   C1688     1.0  0.83959  0.43362  0.02635  1.0000
  S   S365      1.0  0.95659  0.38028  0.14025  1.0000
  H   H2960     1.0  0.67443  0.37261  0.04861  1.0000
  H   H2961     1.0  0.71017  0.26522  0.04295  1.0000
  H   H2962     1.0  0.88790  0.45712  0.20249  1.0000
  C   C1689     1.0  0.69937  0.27848  0.01863  1.0000
  H   H2963     1.0  0.67838  0.03744  0.11028  1.0000
  H   H2964     1.0  0.93876  0.29184  0.20252  1.0000
  H   H2965     1.0  0.73138  0.34452  0.99777  1.0000
  H   H2966     1.0  0.92179  0.44449  0.20079  1.0000
  H   H2967     1.0  0.74006  0.26606  0.00548  1.0000
  C   C1690     1.0  0.93828  0.36837  0.22698  1.0000
  C   C1691     1.0  0.70442  0.30895  0.99863  1.0000
  H   H2968     1.0  0.76590  0.42691  0.00350  1.0000
  C   C1692     1.0  0.86393  0.39905  0.21076  1.0000
  C   C1693     1.0  0.78259  0.36741  0.98659  1.0000
  H   H2969     1.0  0.66476  0.38026  0.10995  1.0000
  H   H2970     1.0  0.67458  0.00303  0.06724  1.0000
  H   H2971     1.0  0.66655  0.99065  0.13825  1.0000
  C   C1694     1.0  0.68011  0.34270  0.99597  1.0000
  H   H2972     1.0  0.67610  0.34124  0.13137  1.0000
  H   H2973     1.0  0.69037  0.06337  0.09091  1.0000
  H   H2974     1.0  0.96395  0.33141  0.22728  1.0000
  C   C1695     1.0  0.97776  0.31984  0.22469  1.0000
  H   H2975     1.0  0.93473  0.31616  0.21077  1.0000
  H   H2976     1.0  0.86477  0.39052  0.22367  1.0000
  H   H2977     1.0  0.98699  0.37236  0.20256  1.0000
  N   N95       1.0  0.65656  0.35397  0.10073  1.0000
  H   H2978     1.0  0.66987  0.10794  0.09362  1.0000
  H   H2979     1.0  0.89349  0.45411  0.22383  1.0000
  H   H2980     1.0  0.95799  0.46435  0.12996  1.0000
  H   H2981     1.0  0.89819  0.47864  0.12549  1.0000
  H   H2982     1.0  0.66204  0.34917  0.07418  1.0000
  H   H2983     1.0  0.94776  0.28675  0.23157  1.0000
  H   H2984     1.0  0.65652  0.29481  0.99544  1.0000
  H   H2985     1.0  0.81264  0.47822  0.14983  1.0000
  H   H2986     1.0  0.98649  0.41007  0.20168  1.0000
  H   H2987     1.0  0.92521  0.27490  0.23055  1.0000
  S   S366      1.0  0.93742  0.47787  0.16713  1.0000
  H   H2988     1.0  0.95609  0.47565  0.10831  1.0000
  H   H2989     1.0  0.85777  0.47057  0.13724  1.0000
  H   H2990     1.0  0.65928  0.31081  0.09926  1.0000
  H   H2991     1.0  0.65738  0.00699  0.10996  1.0000
  C   C1696     1.0  0.65636  0.01667  0.12029  1.0000
  Fe  Fe185     1.0  0.80926  0.06257  0.40611  1.0000
  S   S367      1.0  0.77746  0.07981  0.40265  1.0000
  S   S368      1.0  0.83984  0.07380  0.40800  1.0000
  Fe  Fe186     1.0  0.79230  0.02112  0.41585  1.0000
  S   S369      1.0  0.75958  0.03537  0.41369  1.0000
  H   H2992     1.0  0.92499  0.46633  0.28246  1.0000
  Fe  Fe187     1.0  0.77259  0.05320  0.38966  1.0000
  S   S370      1.0  0.75936  0.05217  0.36495  1.0000
  Fe  Fe188     1.0  0.76704  0.06027  0.42686  1.0000
  S   S371      1.0  0.74448  0.07268  0.44813  1.0000
  S   S372      1.0  0.80550  0.03734  0.39115  1.0000
  S   S373      1.0  0.79863  0.04462  0.43104  1.0000
  H   H2993     1.0  0.98037  0.11111  0.42549  1.0000
  H   H2994     1.0  0.77975  0.05260  0.46601  1.0000
  Fe  Fe189     1.0  0.91566  0.38575  0.31743  1.0000
  S   S374      1.0  0.94734  0.38841  0.30362  1.0000
  S   S375      1.0  0.89310  0.41345  0.32517  1.0000
  Fe  Fe190     1.0  0.92107  0.33878  0.31668  1.0000
  S   S376      1.0  0.95299  0.33878  0.30230  1.0000
  S   S377      1.0  0.91079  0.30716  0.32156  1.0000
  Fe  Fe191     1.0  0.95710  0.35967  0.32059  1.0000
  H   H2995     1.0  0.72670  0.11091  0.31689  1.0000
  Fe  Fe192     1.0  0.93966  0.36725  0.28665  1.0000
  S   S378      1.0  0.94872  0.37289  0.25804  1.0000
  S   S379      1.0  0.92595  0.35830  0.33592  1.0000
  S   S380      1.0  0.90724  0.36599  0.29953  1.0000
  Fe  Fe193     1.0  0.94536  0.18025  0.39686  1.0000
  S   S381      1.0  0.93692  0.20321  0.41534  1.0000
  H   H2996     1.0  0.78324  0.99015  0.34111  1.0000
  Fe  Fe194     1.0  0.89965  0.17426  0.39745  1.0000
  S   S382      1.0  0.88855  0.19805  0.41548  1.0000
  S   S383      1.0  0.87496  0.15962  0.38788  1.0000
  Fe  Fe195     1.0  0.91162  0.21684  0.39935  1.0000
  S   S384      1.0  0.90967  0.25161  0.39371  1.0000
  Fe  Fe196     1.0  0.91512  0.18235  0.42934  1.0000
  S   S385      1.0  0.91208  0.17152  0.45759  1.0000
  S   S386      1.0  0.92078  0.19448  0.38021  1.0000
  S   S387      1.0  0.92538  0.15779  0.41204  1.0000
  H   H2997     1.0  0.86142  0.41026  0.27535  1.0000
  C   C1697     1.0  0.97158  0.25786  0.39207  1.0000
  C   C1698     1.0  0.92897  0.20410  0.46533  1.0000
  H   H2998     1.0  0.94995  0.38748  0.36706  1.0000
  H   H2999     1.0  0.90751  0.30330  0.28687  1.0000
  H   H3000     1.0  0.98056  0.30968  0.23665  1.0000
  H   H3001     1.0  0.87250  0.31741  0.29780  1.0000
  C   C1699     1.0  0.71684  0.99779  0.40058  1.0000
  C   C1700     1.0  0.91100  0.29177  0.34163  1.0000
  C   C1701     1.0  0.91186  0.30014  0.35653  1.0000
  C   C1702     1.0  0.91133  0.28762  0.37233  1.0000
  C   C1703     1.0  0.91021  0.26657  0.37343  1.0000
  C   C1704     1.0  0.90963  0.25810  0.35851  1.0000
  C   C1705     1.0  0.90990  0.27069  0.34271  1.0000
  H   H3002     1.0  0.91253  0.31635  0.35593  1.0000
  H   H3003     1.0  0.91168  0.29434  0.38380  1.0000
  H   H3004     1.0  0.90854  0.24197  0.35921  1.0000
  H   H3005     1.0  0.90906  0.26407  0.33131  1.0000
  C   C1706     1.0  0.85506  0.00760  0.37562  1.0000
  C   C1707     1.0  0.91237  0.36221  0.25107  1.0000
  H   H3006     1.0  0.90703  0.36201  0.26449  1.0000
  C   C1708     1.0  0.98470  0.47738  0.25453  1.0000
  H   H3007     1.0  0.84169  0.14457  0.47347  1.0000
  H   H3008     1.0  0.83469  0.05922  0.46495  1.0000
  C   C1709     1.0  0.87800  0.45286  0.33051  1.0000
  C   C1710     1.0  0.89574  0.43961  0.32510  1.0000
  C   C1711     1.0  0.91441  0.44763  0.31987  1.0000
  H   H3009     1.0  0.86350  0.44693  0.33458  1.0000
  H   H3010     1.0  0.92820  0.43755  0.31576  1.0000
  H   H3011     1.0  0.70123  0.97939  0.34462  1.0000
  C   C1712     1.0  0.94652  0.11206  0.44678  1.0000
  C   C1713     1.0  0.84847  0.09827  0.40303  1.0000
  C   C1714     1.0  0.86541  0.10189  0.41047  1.0000
  C   C1715     1.0  0.87351  0.12063  0.40627  1.0000
  C   C1716     1.0  0.86501  0.13591  0.39428  1.0000
  C   C1717     1.0  0.84800  0.13230  0.38694  1.0000
  C   C1718     1.0  0.83962  0.11374  0.39140  1.0000
  H   H3012     1.0  0.87248  0.09002  0.41941  1.0000
  H   H3013     1.0  0.88661  0.12311  0.41200  1.0000
  H   H3014     1.0  0.84131  0.14394  0.37762  1.0000
  H   H3015     1.0  0.82673  0.11120  0.38545  1.0000
  C   C1719     1.0  0.96626  0.45436  0.36279  1.0000
  H   H3016     1.0  0.79111  0.15844  0.44160  1.0000
  H   H3017     1.0  0.85385  0.32703  0.28316  1.0000
  N   N96       1.0  0.92051  0.29416  0.26217  1.0000
  H   H3018     1.0  0.73824  0.01179  0.37049  1.0000
  C   C1720     1.0  0.73274  0.05608  0.36207  1.0000
  C   C1721     1.0  0.72669  0.04835  0.34838  1.0000
  C   C1722     1.0  0.70570  0.05101  0.34571  1.0000
  C   C1723     1.0  0.69057  0.06195  0.35646  1.0000
  C   C1724     1.0  0.69664  0.06986  0.37002  1.0000
  C   C1725     1.0  0.71756  0.06681  0.37292  1.0000
  H   H3019     1.0  0.73829  0.04022  0.33979  1.0000
  H   H3020     1.0  0.70129  0.04488  0.33520  1.0000
  H   H3021     1.0  0.97226  0.28407  0.29896  1.0000
  H   H3022     1.0  0.72197  0.07295  0.38344  1.0000
  H   H3023     1.0  0.95488  0.26342  0.39096  1.0000
  C   C1726     1.0  0.75281  0.07566  0.46747  1.0000
  C   C1727     1.0  0.77065  0.06404  0.47337  1.0000
  C   C1728     1.0  0.91761  0.46702  0.27068  1.0000
  H   H3024     1.0  0.86893  0.17283  0.44966  1.0000
  H   H3025     1.0  0.95365  0.28388  0.25778  1.0000
  H   H3026     1.0  0.96336  0.46644  0.24162  1.0000
  H   H3027     1.0  0.93194  0.46568  0.23668  1.0000
  H   H3028     1.0  0.96542  0.21127  0.33553  1.0000
  H   H3029     1.0  0.72393  0.15341  0.27008  1.0000
  H   H3030     1.0  0.95533  0.45377  0.33106  1.0000
  H   H3031     1.0  0.96113  0.26461  0.42620  1.0000
  C   C1729     1.0  0.70790  0.15089  0.27547  1.0000
  C   C1730     1.0  0.74116  0.09050  0.47703  1.0000
  H   H3032     1.0  0.69032  0.13017  0.32981  1.0000
  H   H3033     1.0  0.68318  0.02691  0.41150  1.0000
  H   H3034     1.0  0.92866  0.21064  0.45218  1.0000
  H   H3035     1.0  0.97496  0.41287  0.36585  1.0000
  H   H3036     1.0  0.87711  0.29678  0.27341  1.0000
  H   H3037     1.0  0.95876  0.23838  0.43480  1.0000
  H   H3038     1.0  0.83376  0.99298  0.39504  1.0000
  H   H3039     1.0  0.73356  0.00405  0.43697  1.0000
  C   C1731     1.0  0.87313  0.40580  0.26455  1.0000
  H   H3040     1.0  0.95053  0.13361  0.46312  1.0000
  S   S388      1.0  0.97913  0.17372  0.38546  1.0000
  C   C1732     1.0  0.70195  0.99645  0.36579  1.0000
  H   H3041     1.0  0.70274  0.05487  0.29125  1.0000
  C   C1733     1.0  0.96918  0.23584  0.37063  1.0000
  C   C1734     1.0  0.69029  0.98835  0.35368  1.0000
  H   H3042     1.0  0.86946  0.13891  0.46768  1.0000
  C   C1735     1.0  0.96431  0.28100  0.35720  1.0000
  H   H3043     1.0  0.91439  0.12694  0.44838  1.0000
  C   C1736     1.0  0.97132  0.41989  0.35297  1.0000
  C   C1737     1.0  0.85633  0.15121  0.47022  1.0000
  H   H3044     1.0  0.89453  0.98334  0.41082  1.0000
  C   C1738     1.0  0.72391  0.11284  0.34366  1.0000
  H   H3045     1.0  0.93168  0.46715  0.38596  1.0000
  H   H3046     1.0  0.90602  0.47792  0.23929  1.0000
  C   C1739     1.0  0.96066  0.21568  0.34855  1.0000
  H   H3047     1.0  0.97639  0.46525  0.36511  1.0000
  C   C1740     1.0  0.70860  0.13341  0.29014  1.0000
  C   C1741     1.0  0.91410  0.27307  0.26685  1.0000
  H   H3048     1.0  0.75407  0.01296  0.48545  1.0000
  H   H3049     1.0  0.98332  0.44280  0.28896  1.0000
  C   C1742     1.0  0.98411  0.17967  0.46492  1.0000
  H   H3050     1.0  0.95434  0.27147  0.35281  1.0000
  H   H3051     1.0  0.95548  0.28833  0.36819  1.0000
  H   H3052     1.0  0.97756  0.42434  0.31781  1.0000
  H   H3053     1.0  0.75636  0.99963  0.38418  1.0000
  S   S389      1.0  0.79882  0.98755  0.42604  1.0000
  H   H3054     1.0  0.82586  0.00846  0.36549  1.0000
  C   C1743     1.0  0.89977  0.35682  0.24022  1.0000
  C   C1744     1.0  0.70084  0.06835  0.28139  1.0000
  H   H3055     1.0  0.94129  0.25203  0.42036  1.0000
  H   H3056     1.0  0.94467  0.22416  0.34917  1.0000
  H   H3057     1.0  0.91071  0.44426  0.25583  1.0000
  H   H3058     1.0  0.68507  0.07841  0.37838  1.0000
  H   H3059     1.0  0.68609  0.09952  0.27860  1.0000
  H   H3060     1.0  0.73415  0.00307  0.46738  1.0000
  H   H3061     1.0  0.75748  0.13836  0.46994  1.0000
  H   H3062     1.0  0.97868  0.14883  0.47475  1.0000
  H   H3063     1.0  0.69929  0.98007  0.29764  1.0000
  H   H3064     1.0  0.79930  0.98942  0.38943  1.0000
  H   H3065     1.0  0.90165  0.42062  0.23785  1.0000
  H   H3066     1.0  0.94710  0.11109  0.43297  1.0000
  H   H3067     1.0  0.94696  0.31019  0.25998  1.0000
  H   H3068     1.0  0.78630  0.11334  0.47621  1.0000
  H   H3069     1.0  0.78513  0.99991  0.36061  1.0000
  H   H3070     1.0  0.85323  0.15649  0.44320  1.0000
  C   C1745     1.0  0.93542  0.47865  0.37488  1.0000
  H   H3071     1.0  0.82710  0.16760  0.40266  1.0000
  C   C1746     1.0  0.90649  0.30875  0.27318  1.0000
  C   C1747     1.0  0.96991  0.28614  0.28532  1.0000
  H   H3072     1.0  0.98098  0.40963  0.34412  1.0000
  C   C1748     1.0  0.91775  0.42879  0.28001  1.0000
  C   C1749     1.0  0.94827  0.41819  0.35290  1.0000
  H   H3073     1.0  0.97775  0.29917  0.27867  1.0000
  H   H3074     1.0  0.69371  0.06399  0.27094  1.0000
  C   C1750     1.0  0.87056  0.32492  0.28467  1.0000
  H   H3075     1.0  0.86226  0.02130  0.40449  1.0000
  C   C1751     1.0  0.94479  0.39583  0.35502  1.0000
  C   C1752     1.0  0.98442  0.12624  0.42699  1.0000
  C   C1753     1.0  0.92136  0.18556  0.47118  1.0000
  C   C1754     1.0  0.69874  0.03176  0.41009  1.0000
  H   H3076     1.0  0.90111  0.27179  0.25978  1.0000
  C   C1755     1.0  0.68691  0.08643  0.28886  1.0000
  C   C1756     1.0  0.92175  0.23448  0.26642  1.0000
  C   C1757     1.0  0.88302  0.31173  0.27146  1.0000
  H   H3077     1.0  0.88241  0.00455  0.42914  1.0000
  H   H3078     1.0  0.94274  0.42549  0.34081  1.0000
  H   H3079     1.0  0.93864  0.42538  0.36364  1.0000
  C   C1758     1.0  0.93186  0.36761  0.24455  1.0000
  H   H3080     1.0  0.87980  0.31970  0.25879  1.0000
  H   H3081     1.0  0.97847  0.30826  0.34647  1.0000
  H   H3082     1.0  0.87130  0.39021  0.26214  1.0000
  C   C1759     1.0  0.71660  0.10582  0.32848  1.0000
  C   C1760     1.0  0.79431  0.00612  0.47311  1.0000
  H   H3083     1.0  0.90186  0.30320  0.24133  1.0000
  H   H3084     1.0  0.91821  0.98399  0.37238  1.0000
  H   H3085     1.0  0.96859  0.22741  0.40617  1.0000
  H   H3086     1.0  0.72819  0.02749  0.39472  1.0000
  H   H3087     1.0  0.68162  0.00147  0.34621  1.0000
  H   H3088     1.0  0.69697  0.04867  0.40671  1.0000
  C   C1761     1.0  0.79077  0.12810  0.46954  1.0000
  C   C1762     1.0  0.93708  0.21421  0.47660  1.0000
  H   H3089     1.0  0.92802  0.39511  0.35533  1.0000
  C   C1763     1.0  0.98222  0.43982  0.31637  1.0000
  H   H3090     1.0  0.81447  0.15252  0.45050  1.0000
  H   H3091     1.0  0.72495  0.99518  0.41209  1.0000
  C   C1764     1.0  0.84273  0.00698  0.36099  1.0000
  C   C1765     1.0  0.85475  0.16545  0.45351  1.0000
  H   H3092     1.0  0.75835  0.00831  0.45544  1.0000
  H   H3093     1.0  0.85061  0.02297  0.37996  1.0000
  C   C1766     1.0  0.97217  0.45132  0.33172  1.0000
  H   H3094     1.0  0.90765  0.27073  0.28058  1.0000
  H   H3095     1.0  0.84269  0.03422  0.43775  1.0000
  H   H3096     1.0  0.91296  0.23198  0.27933  1.0000
  H   H3097     1.0  0.97787  0.27157  0.39445  1.0000
  H   H3098     1.0  0.77493  0.10754  0.45139  1.0000
  H   H3099     1.0  0.94218  0.25260  0.27366  1.0000
  H   H3100     1.0  0.86744  0.04091  0.42760  1.0000
  C   C1767     1.0  0.95751  0.24986  0.42331  1.0000
  C   C1768     1.0  0.92374  0.11311  0.45440  1.0000
  C   C1769     1.0  0.96864  0.29803  0.34274  1.0000
  C   C1770     1.0  0.85062  0.99038  0.39035  1.0000
  H   H3101     1.0  0.94028  0.25581  0.25141  1.0000
  H   H3102     1.0  0.82503  0.17726  0.42277  1.0000
  C   C1771     1.0  0.71326  0.02143  0.39608  1.0000
  H   H3103     1.0  0.89041  0.00038  0.39225  1.0000
  H   H3104     1.0  0.74033  0.11914  0.44187  1.0000
  H   H3105     1.0  0.88877  0.40526  0.26827  1.0000
  H   H3106     1.0  0.76751  0.01373  0.34628  1.0000
  C   C1772     1.0  0.76718  0.13503  0.43390  1.0000
  H   H3107     1.0  0.96352  0.44467  0.37525  1.0000
  C   C1773     1.0  0.94674  0.29059  0.28389  1.0000
  H   H3108     1.0  0.69014  0.00543  0.37424  1.0000
  H   H3109     1.0  0.84935  0.08028  0.46273  1.0000
  H   H3110     1.0  0.71745  0.11962  0.28488  1.0000
  H   H3111     1.0  0.72733  0.09948  0.47262  1.0000
  H   H3112     1.0  0.87016  0.43673  0.25216  1.0000
  H   H3113     1.0  0.93754  0.44119  0.25885  1.0000
  H   H3114     1.0  0.91121  0.23500  0.25669  1.0000
  H   H3115     1.0  0.70138  0.99282  0.40492  1.0000
  H   H3116     1.0  0.77269  0.15927  0.46599  1.0000
  H   H3117     1.0  0.86481  0.02876  0.44929  1.0000
  C   C1774     1.0  0.68649  0.12995  0.29831  1.0000
  H   H3118     1.0  0.94308  0.22846  0.47206  1.0000
  H   H3119     1.0  0.95854  0.45253  0.29982  1.0000
  H   H3120     1.0  0.95526  0.09784  0.45276  1.0000
  H   H3121     1.0  0.77451  0.14257  0.42174  1.0000
  C   C1775     1.0  0.69329  0.11381  0.32744  1.0000
  H   H3122     1.0  0.84119  0.07282  0.44420  1.0000
  C   C1776     1.0  0.85968  0.02933  0.43660  1.0000
  H   H3123     1.0  0.69949  0.16535  0.28001  1.0000
  H   H3124     1.0  0.67707  0.12970  0.28790  1.0000
  C   C1777     1.0  0.66191  0.10969  0.31604  1.0000
  C   C1778     1.0  0.94250  0.29478  0.26504  1.0000
  H   H3125     1.0  0.93921  0.27761  0.29099  1.0000
  H   H3126     1.0  0.95828  0.16446  0.46464  1.0000
  C   C1779     1.0  0.93116  0.25436  0.26416  1.0000
  H   H3127     1.0  0.71392  0.10845  0.35564  1.0000
  H   H3128     1.0  0.95259  0.24281  0.37152  1.0000
  H   H3129     1.0  0.97959  0.11220  0.46989  1.0000
  H   H3130     1.0  0.85867  0.99700  0.44048  1.0000
  C   C1780     1.0  0.91814  0.30224  0.24381  1.0000
  C   C1781     1.0  0.95548  0.13129  0.44953  1.0000
  H   H3131     1.0  0.87230  0.17228  0.47972  1.0000
  C   C1782     1.0  0.97525  0.16026  0.46366  1.0000
  C   C1783     1.0  0.98339  0.15180  0.44646  1.0000
  S   S390      1.0  0.65598  0.98125  0.32491  1.0000
  H   H3132     1.0  0.90062  0.46988  0.27495  1.0000
  H   H3133     1.0  0.76054  0.14717  0.44201  1.0000
  H   H3134     1.0  0.71219  0.00680  0.35796  1.0000
  H   H3135     1.0  0.70655  0.02619  0.38404  1.0000
  C   C1784     1.0  0.69511  0.09173  0.30464  1.0000
  H   H3136     1.0  0.70515  0.02794  0.42243  1.0000
  H   H3137     1.0  0.67123  0.08198  0.29257  1.0000
  H   H3138     1.0  0.80189  0.17589  0.41348  1.0000
  H   H3139     1.0  0.80421  0.08254  0.45597  1.0000
  H   H3140     1.0  0.70016  0.14703  0.26517  1.0000
  C   C1785     1.0  0.77121  0.14397  0.47316  1.0000
  C   C1786     1.0  0.86998  0.42122  0.24869  1.0000
  H   H3141     1.0  0.91759  0.09933  0.45208  1.0000
  C   C1787     1.0  0.74915  0.12554  0.42991  1.0000
  H   H3142     1.0  0.69347  0.07857  0.31484  1.0000
  H   H3143     1.0  0.71203  0.09164  0.30132  1.0000
  C   C1788     1.0  0.74840  0.99625  0.45976  1.0000
  H   H3144     1.0  0.91166  0.32412  0.27086  1.0000
  H   H3145     1.0  0.73846  0.13744  0.42306  1.0000
  H   H3146     1.0  0.85451  0.42030  0.24533  1.0000
  N   N97       1.0  0.79894  0.12620  0.45107  1.0000
  C   C1789     1.0  0.80486  0.14655  0.44255  1.0000
  H   H3147     1.0  0.75484  0.11314  0.42177  1.0000
  C   C1790     1.0  0.81853  0.11078  0.45069  1.0000
  C   C1791     1.0  0.78341  0.11855  0.44229  1.0000
  H   H3148     1.0  0.96262  0.45682  0.26401  1.0000
  C   C1792     1.0  0.81715  0.14636  0.42446  1.0000
  C   C1793     1.0  0.81645  0.08919  0.46049  1.0000
  H   H3149     1.0  0.93426  0.22129  0.26488  1.0000
  C   C1794     1.0  0.81775  0.16813  0.41536  1.0000
  C   C1795     1.0  0.83671  0.07454  0.45790  1.0000
  H   H3150     1.0  0.94042  0.30436  0.29032  1.0000
  C   C1796     1.0  0.85689  0.00810  0.41326  1.0000
  H   H3151     1.0  0.87568  0.34026  0.28297  1.0000
  H   H3152     1.0  0.71912  0.08880  0.33020  1.0000
  H   H3153     1.0  0.83088  0.11682  0.45578  1.0000
  H   H3154     1.0  0.82473  0.10818  0.43732  1.0000
  H   H3155     1.0  0.79139  0.10943  0.43193  1.0000
  C   C1797     1.0  0.97565  0.22899  0.35260  1.0000
  H   H3156     1.0  0.90168  0.43168  0.28660  1.0000
  H   H3157     1.0  0.83342  0.13914  0.42534  1.0000
  H   H3158     1.0  0.81032  0.13755  0.41651  1.0000
  C   C1798     1.0  0.97255  0.24218  0.40836  1.0000
  H   H3159     1.0  0.71632  0.07261  0.27610  1.0000
  N   N98       1.0  0.98228  0.25002  0.37573  1.0000
  H   H3160     1.0  0.71703  0.13793  0.29968  1.0000
  C   C1799     1.0  0.87876  0.47372  0.33084  1.0000
  H   H3161     1.0  0.80321  0.13158  0.47625  1.0000
  H   H3162     1.0  0.78894  0.00904  0.46043  1.0000
  H   H3163     1.0  0.82386  0.00493  0.48268  1.0000
  H   H3164     1.0  0.93415  0.45913  0.35607  1.0000
  H   H3165     1.0  0.97530  0.13788  0.41843  1.0000
  S   S391      1.0  0.66549  0.03827  0.31184  1.0000
  C   C1800     1.0  0.92151  0.44519  0.26501  1.0000
  H   H3166     1.0  0.96929  0.22154  0.37975  1.0000
  H   H3167     1.0  0.84109  0.17757  0.45480  1.0000
  H   H3168     1.0  0.78660  0.01834  0.48090  1.0000
  H   H3169     1.0  0.97620  0.16299  0.43654  1.0000
  C   C1801     1.0  0.74506  0.99649  0.37613  1.0000
  C   C1802     1.0  0.81742  0.00777  0.47033  1.0000
  H   H3170     1.0  0.84551  0.01990  0.35088  1.0000
  N   N99       1.0  0.86286  0.98842  0.40518  1.0000
  H   H3171     1.0  0.74004  0.10542  0.34497  1.0000
  H   H3172     1.0  0.65995  0.09494  0.32416  1.0000
  N   N100      1.0  0.68468  0.11139  0.31141  1.0000
  H   H3173     1.0  0.75505  0.98360  0.43550  1.0000
  C   C1803     1.0  0.86531  0.00825  0.43040  1.0000
  H   H3174     1.0  0.83967  0.01190  0.41567  1.0000
  C   C1804     1.0  0.91516  0.46873  0.32015  1.0000
  H   H3175     1.0  0.92194  0.31816  0.24100  1.0000
  C   C1805     1.0  0.77430  0.99823  0.35168  1.0000
  H   H3176     1.0  0.92025  0.41347  0.27547  1.0000
  H   H3177     1.0  0.81279  0.08981  0.47442  1.0000
  N   N101      1.0  0.97868  0.13070  0.44523  1.0000
  C   C1806     1.0  0.85941  0.16316  0.48467  1.0000
  H   H3178     1.0  0.95340  0.38816  0.34413  1.0000
  H   H3179     1.0  0.97698  0.27189  0.27975  1.0000
  H   H3180     1.0  0.92891  0.42853  0.28911  1.0000
  H   H3181     1.0  0.97753  0.18548  0.47719  1.0000
  H   H3182     1.0  0.94726  0.14471  0.44198  1.0000
  H   H3183     1.0  0.98002  0.19156  0.41652  1.0000
  C   C1807     1.0  0.74153  0.99016  0.44403  1.0000
  H   H3184     1.0  0.97640  0.29138  0.33110  1.0000
  H   H3185     1.0  0.88473  0.35261  0.24535  1.0000
  H   H3186     1.0  0.97565  0.24231  0.34254  1.0000
  S   S392      1.0  0.66411  0.06692  0.35309  1.0000
  N   N102      1.0  0.97703  0.44124  0.34913  1.0000
  H   H3187     1.0  0.95382  0.30745  0.33974  1.0000
  H   H3188     1.0  0.81974  0.02347  0.46432  1.0000
  H   H3189     1.0  0.68504  0.10529  0.33879  1.0000
  C   C1808     1.0  0.94545  0.46804  0.35938  1.0000
  H   H3190     1.0  0.87169  0.00585  0.37037  1.0000
  H   H3191     1.0  0.96079  0.20144  0.35767  1.0000
  H   H3192     1.0  0.67962  0.14417  0.30403  1.0000
  S   S393      1.0  0.98458  0.35285  0.33500  1.0000
  C   C1809     1.0  0.97554  0.45130  0.29967  1.0000
  N   N103      1.0  0.72881  0.98509  0.38707  1.0000
  H   H3193     1.0  0.84761  0.99237  0.35536  1.0000
  H   H3194     1.0  0.98008  0.46690  0.29751  1.0000
  H   H3195     1.0  0.74679  0.98521  0.35133  1.0000
  C   C1810     1.0  0.75726  0.98603  0.36079  1.0000
  C   C1811     1.0  0.98476  0.26814  0.36231  1.0000
  C   C1812     1.0  0.88592  0.98590  0.39960  1.0000
  C   C1813     1.0  0.79033  0.98467  0.48205  1.0000
  H   H3196     1.0  0.82592  0.99659  0.46179  1.0000
  H   H3197     1.0  0.92200  0.11367  0.46835  1.0000
  H   H3198     1.0  0.72357  0.12974  0.34179  1.0000
  H   H3199     1.0  0.92945  0.47488  0.31602  1.0000
  C   C1814     1.0  0.96364  0.47059  0.25449  1.0000
  H   H3200     1.0  0.97970  0.19181  0.45450  1.0000
  H   H3201     1.0  0.97689  0.46689  0.32928  1.0000
  Fe  Fe197     1.0  0.78405  0.05419  0.57394  1.0000
  S   S394      1.0  0.81660  0.03727  0.57198  1.0000
  S   S395      1.0  0.76684  0.05265  0.60096  1.0000
  Fe  Fe198     1.0  0.78895  0.06856  0.53595  1.0000
  S   S396      1.0  0.82150  0.05259  0.53131  1.0000
  S   S397      1.0  0.77381  0.09047  0.51569  1.0000
  Fe  Fe199     1.0  0.80909  0.02640  0.54869  1.0000
  S   S398      1.0  0.82081  0.99342  0.54412  1.0000
  Fe  Fe200     1.0  0.82635  0.06494  0.55495  1.0000
  S   S399      1.0  0.85759  0.07462  0.55713  1.0000
  S   S400      1.0  0.77593  0.04151  0.55161  1.0000
  S   S401      1.0  0.79440  0.08269  0.55860  1.0000
  H   H3202     1.0  0.73180  0.05937  0.58110  1.0000
  C   C1815     1.0  0.82155  0.11377  0.51475  1.0000
  H   H3203     1.0  0.74198  0.00770  0.64802  1.0000
  Fe  Fe201     1.0  0.93446  0.34171  0.66853  1.0000
  S   S402      1.0  0.93151  0.35833  0.64208  1.0000
  S   S403      1.0  0.91040  0.34727  0.69135  1.0000
  Fe  Fe202     1.0  0.94831  0.32846  0.63309  1.0000
  S   S404      1.0  0.94463  0.31606  0.60860  1.0000
  Fe  Fe203     1.0  0.96300  0.36648  0.64323  1.0000
  S   S405      1.0  0.97700  0.39611  0.63675  1.0000
  S   S406      1.0  0.94853  0.31129  0.65950  1.0000
  S   S407      1.0  0.96471  0.35176  0.66999  1.0000
  Fe  Fe204     1.0  0.91987  0.17346  0.55980  1.0000
  S   S408      1.0  0.91341  0.20785  0.55318  1.0000
  S   S409      1.0  0.88993  0.15937  0.56059  1.0000
  Fe  Fe205     1.0  0.96634  0.17618  0.56155  1.0000
  S   S410      1.0  0.96222  0.21022  0.55453  1.0000
  H   H3204     1.0  0.68051  0.01852  0.70956  1.0000
  Fe  Fe206     1.0  0.93327  0.21051  0.57321  1.0000
  S   S411      1.0  0.92647  0.22814  0.59645  1.0000
  Fe  Fe207     1.0  0.94310  0.20396  0.53533  1.0000
  S   S412      1.0  0.94808  0.21813  0.50780  1.0000
  S   S413      1.0  0.93789  0.17630  0.58105  1.0000
  S   S414      1.0  0.94899  0.16972  0.54113  1.0000
  C   C1816     1.0  0.93726  0.20598  0.49378  1.0000
  C   C1817     1.0  0.85800  0.19582  0.52913  1.0000
  H   H3205     1.0  0.80105  0.98908  0.61147  1.0000
  C   C1818     1.0  0.92944  0.18761  0.49952  1.0000
  C   C1819     1.0  0.90713  0.10476  0.51087  1.0000
  C   C1820     1.0  0.76694  0.14692  0.49202  1.0000
  H   H3206     1.0  0.92919  0.18123  0.51268  1.0000
  C   C1821     1.0  0.91583  0.42042  0.71317  1.0000
  H   H3207     1.0  0.85458  0.10815  0.51256  1.0000
  H   H3208     1.0  0.73647  0.00435  0.55847  1.0000
  C   C1822     1.0  0.93925  0.29162  0.60551  1.0000
  C   C1823     1.0  0.93246  0.27754  0.61907  1.0000
  C   C1824     1.0  0.92843  0.25832  0.61599  1.0000
  C   C1825     1.0  0.93124  0.25286  0.59937  1.0000
  C   C1826     1.0  0.93785  0.26700  0.58577  1.0000
  C   C1827     1.0  0.94177  0.28628  0.58885  1.0000
  H   H3209     1.0  0.93000  0.28158  0.63191  1.0000
  H   H3210     1.0  0.92305  0.24762  0.62658  1.0000
  H   H3211     1.0  0.93987  0.26312  0.57290  1.0000
  H   H3212     1.0  0.94676  0.29714  0.57825  1.0000
  H   H3213     1.0  0.94988  0.32863  0.70248  1.0000
  C   C1828     1.0  0.96170  0.42034  0.63789  1.0000
  C   C1829     1.0  0.94060  0.42344  0.63619  1.0000
  C   C1830     1.0  0.92896  0.44306  0.63704  1.0000
  C   C1831     1.0  0.93831  0.45959  0.63980  1.0000
  C   C1832     1.0  0.95938  0.45641  0.64165  1.0000
  C   C1833     1.0  0.97105  0.43693  0.64047  1.0000
  H   H3214     1.0  0.93333  0.41080  0.63396  1.0000
  H   H3215     1.0  0.92003  0.43472  0.71631  1.0000
  H   H3216     1.0  0.80876  0.12449  0.50933  1.0000
  H   H3217     1.0  0.98315  0.38608  0.67912  1.0000
  H   H3218     1.0  0.81954  0.11376  0.52879  1.0000
  C   C1834     1.0  0.86622  0.09850  0.55756  1.0000
  C   C1835     1.0  0.85268  0.11699  0.55771  1.0000
  C   C1836     1.0  0.86026  0.13536  0.55876  1.0000
  C   C1837     1.0  0.88147  0.13560  0.55937  1.0000
  C   C1838     1.0  0.89503  0.11717  0.55893  1.0000
  C   C1839     1.0  0.88742  0.09876  0.55808  1.0000
  H   H3219     1.0  0.83639  0.11715  0.55715  1.0000
  H   H3220     1.0  0.84962  0.14954  0.55908  1.0000
  H   H3221     1.0  0.91136  0.11707  0.55938  1.0000
  H   H3222     1.0  0.89806  0.08457  0.55791  1.0000
  C   C1840     1.0  0.76530  0.08284  0.49804  1.0000
  H   H3223     1.0  0.84440  0.11839  0.49307  1.0000
  H   H3224     1.0  0.94618  0.43069  0.69109  1.0000
  H   H3225     1.0  0.73867  0.10628  0.49902  1.0000
  H   H3226     1.0  0.88692  0.44169  0.69634  1.0000
  C   C1841     1.0  0.73979  0.05231  0.60662  1.0000
  C   C1842     1.0  0.73197  0.04797  0.62388  1.0000
  C   C1843     1.0  0.71077  0.04660  0.62890  1.0000
  C   C1844     1.0  0.69707  0.04982  0.61667  1.0000
  C   C1845     1.0  0.70485  0.05452  0.59943  1.0000
  C   C1846     1.0  0.72607  0.05582  0.59441  1.0000
  H   H3227     1.0  0.74236  0.04569  0.63346  1.0000
  H   H3228     1.0  0.70498  0.04317  0.64221  1.0000
  H   H3229     1.0  0.69437  0.05716  0.58988  1.0000
  C   C1847     1.0  0.81999  0.09554  0.62708  1.0000
  H   H3230     1.0  0.94147  0.46942  0.71564  1.0000
  H   H3231     1.0  0.76363  0.99521  0.65883  1.0000
  H   H3232     1.0  0.89493  0.14173  0.48963  1.0000
  S   S415      1.0  0.97957  0.33826  0.63227  1.0000
  H   H3233     1.0  0.83262  0.04671  0.62978  1.0000
  C   C1848     1.0  0.90231  0.44067  0.68832  1.0000
  H   H3234     1.0  0.75286  0.01563  0.58100  1.0000
  H   H3235     1.0  0.78752  0.11375  0.60929  1.0000
  C   C1849     1.0  0.97794  0.18836  0.62313  1.0000
  H   H3236     1.0  0.65801  0.99776  0.61835  1.0000
  H   H3237     1.0  0.92841  0.38776  0.71946  1.0000
  H   H3238     1.0  0.98636  0.27431  0.64941  1.0000
  H   H3239     1.0  0.96859  0.21510  0.60592  1.0000
  H   H3240     1.0  0.96862  0.24084  0.62244  1.0000
  H   H3241     1.0  0.73836  0.99615  0.61966  1.0000
  H   H3242     1.0  0.85265  0.19540  0.50349  1.0000
  C   C1850     1.0  0.97408  0.40084  0.68245  1.0000
  H   H3243     1.0  0.77996  0.15299  0.49599  1.0000
  H   H3244     1.0  0.82049  0.09809  0.51208  1.0000
  H   H3245     1.0  0.75557  0.99051  0.52154  1.0000
  C   C1851     1.0  0.89197  0.12401  0.51449  1.0000
  C   C1852     1.0  0.74755  0.09430  0.49204  1.0000
  H   H3246     1.0  0.77665  0.00355  0.51076  1.0000
  C   C1853     1.0  0.78284  0.97985  0.54743  1.0000
  H   H3247     1.0  0.97744  0.40321  0.69512  1.0000
  C   C1854     1.0  0.74783  0.02303  0.51651  1.0000
  H   H3248     1.0  0.96321  0.32568  0.73019  1.0000
  H   H3249     1.0  0.98737  0.43469  0.64162  1.0000
  H   H3250     1.0  0.97142  0.16955  0.60498  1.0000
  H   H3251     1.0  0.97594  0.24135  0.58663  1.0000
  H   H3252     1.0  0.79821  0.03452  0.63113  1.0000
  C   C1855     1.0  0.82849  0.08304  0.64305  1.0000
  H   H3253     1.0  0.89904  0.09329  0.50675  1.0000
  Fe  Fe208     1.0  0.97866  0.32298  0.65902  1.0000
  C   C1856     1.0  0.75876  0.00154  0.64618  1.0000
  H   H3254     1.0  0.91995  0.10867  0.50088  1.0000
  N   N104      1.0  0.76172  0.97909  0.60291  1.0000
  H   H3255     1.0  0.85696  0.18614  0.54167  1.0000
  H   H3256     1.0  0.89881  0.44063  0.67516  1.0000
  H   H3257     1.0  0.70488  0.00354  0.71393  1.0000
  H   H3258     1.0  0.89218  0.36086  0.72359  1.0000
  H   H3259     1.0  0.96675  0.46905  0.64373  1.0000
  H   H3260     1.0  0.80724  0.10059  0.66110  1.0000
  C   C1857     1.0  0.76282  0.98470  0.63450  1.0000
  H   H3261     1.0  0.87138  0.15714  0.52546  1.0000
  H   H3262     1.0  0.91711  0.16257  0.49273  1.0000
  C   C1858     1.0  0.92023  0.34519  0.71103  1.0000
  H   H3263     1.0  0.83218  0.10943  0.65506  1.0000
  N   N105      1.0  0.91598  0.42113  0.69419  1.0000
  C   C1859     1.0  0.90577  0.40355  0.69105  1.0000
  H   H3264     1.0  0.68623  0.99198  0.70567  1.0000
  C   C1860     1.0  0.93765  0.42125  0.68493  1.0000
  C   C1861     1.0  0.95101  0.40003  0.68291  1.0000
  C   C1862     1.0  0.90609  0.40064  0.67205  1.0000
  C   C1863     1.0  0.72690  0.01059  0.56970  1.0000
  C   C1864     1.0  0.96376  0.17593  0.61681  1.0000
  H   H3265     1.0  0.88391  0.17076  0.50723  1.0000
  C   C1865     1.0  0.88491  0.39772  0.66803  1.0000
  H   H3266     1.0  0.91276  0.38872  0.69739  1.0000
  C   C1866     1.0  0.73932  0.00737  0.58478  1.0000
  H   H3267     1.0  0.94887  0.39524  0.67065  1.0000
  H   H3268     1.0  0.87907  0.12269  0.49143  1.0000
  H   H3269     1.0  0.91148  0.41348  0.66311  1.0000
  H   H3270     1.0  0.91707  0.38672  0.66914  1.0000
  H   H3271     1.0  0.90062  0.13451  0.51931  1.0000
  H   H3272     1.0  0.98735  0.43600  0.69504  1.0000
  C   C1867     1.0  0.98352  0.20633  0.60947  1.0000
  H   H3273     1.0  0.91269  0.44545  0.63552  1.0000
  H   H3274     1.0  0.80574  0.02800  0.60969  1.0000
  C   C1868     1.0  0.77680  0.06746  0.48880  1.0000
  C   C1869     1.0  0.98323  0.23326  0.62740  1.0000
  H   H3275     1.0  0.87948  0.38418  0.67622  1.0000
  H   H3276     1.0  0.87345  0.41160  0.67006  1.0000
  H   H3277     1.0  0.79074  0.05876  0.49321  1.0000
  N   N106      1.0  0.82563  0.08611  0.61064  1.0000
  C   C1870     1.0  0.84875  0.08031  0.60640  1.0000
  C   C1871     1.0  0.81465  0.06768  0.61118  1.0000
  C   C1872     1.0  0.81845  0.10198  0.59642  1.0000
  C   C1873     1.0  0.86199  0.09790  0.60486  1.0000
  C   C1874     1.0  0.79464  0.10839  0.59699  1.0000
  C   C1875     1.0  0.82602  0.04639  0.61794  1.0000
  C   C1876     1.0  0.81158  0.03008  0.62154  1.0000
  C   C1877     1.0  0.88511  0.08960  0.60299  1.0000
  C   C1878     1.0  0.78956  0.12604  0.58306  1.0000
  H   H3278     1.0  0.85216  0.07357  0.59414  1.0000
  H   H3279     1.0  0.85510  0.06801  0.61590  1.0000
  H   H3280     1.0  0.81176  0.06587  0.59814  1.0000
  H   H3281     1.0  0.82418  0.09632  0.58387  1.0000
  H   H3282     1.0  0.82515  0.11634  0.59614  1.0000
  H   H3283     1.0  0.84546  0.07829  0.64086  1.0000
  H   H3284     1.0  0.85918  0.10906  0.59345  1.0000
  H   H3285     1.0  0.85852  0.10618  0.61624  1.0000
  H   H3286     1.0  0.78702  0.09535  0.59507  1.0000
  H   H3287     1.0  0.83898  0.04129  0.60820  1.0000
  H   H3288     1.0  0.94684  0.38771  0.69303  1.0000
  H   H3289     1.0  0.82013  0.01518  0.62655  1.0000
  H   H3290     1.0  0.88928  0.07994  0.61485  1.0000
  H   H3291     1.0  0.88934  0.08031  0.59219  1.0000
  H   H3292     1.0  0.89424  0.10259  0.60046  1.0000
  H   H3293     1.0  0.93721  0.42921  0.67175  1.0000
  H   H3294     1.0  0.77251  0.12946  0.58301  1.0000
  H   H3295     1.0  0.79522  0.14007  0.58544  1.0000
  N   N107      1.0  0.86370  0.15072  0.50146  1.0000
  H   H3296     1.0  0.83041  0.15197  0.50748  1.0000
  H   H3297     1.0  0.96976  0.19405  0.63504  1.0000
  C   C1879     1.0  0.86899  0.16521  0.51256  1.0000
  H   H3298     1.0  0.94895  0.18573  0.61427  1.0000
  C   C1880     1.0  0.75432  0.99840  0.49423  1.0000
  H   H3299     1.0  0.83700  0.18030  0.51933  1.0000
  H   H3300     1.0  0.97803  0.22331  0.63912  1.0000
  C   C1881     1.0  0.75557  0.99288  0.61686  1.0000
  N   N108      1.0  0.76800  0.98101  0.48613  1.0000
  H   H3301     1.0  0.72930  0.01461  0.59531  1.0000
  H   H3302     1.0  0.76769  0.01423  0.64067  1.0000
  H   H3303     1.0  0.76080  0.00810  0.61249  1.0000
  H   H3304     1.0  0.82993  0.08624  0.66947  1.0000
  H   H3305     1.0  0.98516  0.27283  0.56860  1.0000
  H   H3306     1.0  0.78209  0.99913  0.58759  1.0000
  C   C1882     1.0  0.90780  0.35344  0.72496  1.0000
  H   H3307     1.0  0.77604  0.99579  0.54703  1.0000
  C   C1883     1.0  0.91104  0.46108  0.68794  1.0000
  H   H3308     1.0  0.84427  0.14044  0.52448  1.0000
  C   C1884     1.0  0.67872  0.99642  0.73250  1.0000
  S   S416      1.0  0.66384  0.03539  0.67420  1.0000
  H   H3309     1.0  0.82195  0.99275  0.58282  1.0000
  H   H3310     1.0  0.75148  0.02538  0.52913  1.0000
  H   H3311     1.0  0.96726  0.27383  0.63574  1.0000
  S   S417      1.0  0.67026  0.04787  0.62215  1.0000
  H   H3312     1.0  0.91590  0.46267  0.70022  1.0000
  H   H3313     1.0  0.75218  0.03610  0.50712  1.0000
  C   C1885     1.0  0.68809  0.00303  0.71429  1.0000
  C   C1886     1.0  0.88247  0.13476  0.49834  1.0000
  C   C1887     1.0  0.78239  0.98275  0.59298  1.0000
  C   C1888     1.0  0.84480  0.14156  0.51039  1.0000
  H   H3314     1.0  0.91384  0.09779  0.52268  1.0000
  H   H3315     1.0  0.79797  0.98189  0.49388  1.0000
  H   H3316     1.0  0.65921  0.05091  0.71626  1.0000
  C   C1889     1.0  0.98773  0.24940  0.59031  1.0000
  H   H3317     1.0  0.96019  0.16300  0.62665  1.0000
  H   H3318     1.0  0.73797  0.99529  0.49663  1.0000
  C   C1890     1.0  0.94033  0.33545  0.71297  1.0000
  H   H3319     1.0  0.89989  0.41934  0.71984  1.0000
  C   C1891     1.0  0.93086  0.40307  0.72182  1.0000
  H   H3320     1.0  0.84687  0.21013  0.53027  1.0000
  H   H3321     1.0  0.87390  0.19995  0.52589  1.0000
  C   C1892     1.0  0.85277  0.18448  0.51537  1.0000
  H   H3322     1.0  0.75260  0.15800  0.49432  1.0000
  H   H3323     1.0  0.87965  0.11960  0.52470  1.0000
  H   H3324     1.0  0.79678  0.12201  0.57033  1.0000
  H   H3325     1.0  0.82474  0.11107  0.62549  1.0000
  H   H3326     1.0  0.97906  0.41331  0.67270  1.0000
  H   H3327     1.0  0.88946  0.40510  0.69743  1.0000
  C   C1893     1.0  0.84262  0.11972  0.50684  1.0000
  H   H3328     1.0  0.94710  0.40526  0.71709  1.0000
  H   H3329     1.0  0.72207  0.02726  0.56621  1.0000
  H   H3330     1.0  0.80290  0.09819  0.63050  1.0000
  H   H3331     1.0  0.73089  0.02289  0.51745  1.0000
  H   H3332     1.0  0.79894  0.07012  0.61858  1.0000
  H   H3333     1.0  0.92466  0.46205  0.67803  1.0000
  H   H3334     1.0  0.88615  0.39500  0.65452  1.0000
  H   H3335     1.0  0.82059  0.06933  0.64703  1.0000
  C   C1894     1.0  0.98733  0.37569  0.72984  1.0000
  C   C1895     1.0  0.82415  0.09566  0.65804  1.0000
  H   H3336     1.0  0.71277  0.00304  0.57308  1.0000
  H   H3337     1.0  0.76465  0.13220  0.50000  1.0000
  C   C1896     1.0  0.75989  0.00277  0.51136  1.0000
  C   C1897     1.0  0.94786  0.33375  0.72873  1.0000
  H   H3338     1.0  0.97992  0.26067  0.59897  1.0000
  C   C1898     1.0  0.97809  0.26404  0.64394  1.0000
  H   H3339     1.0  0.97989  0.16066  0.50625  1.0000
  H   H3340     1.0  0.96916  0.25524  0.65457  1.0000
  H   H3341     1.0  0.97207  0.37638  0.72535  1.0000
  H   H3342     1.0  0.98757  0.14239  0.52391  1.0000
  C   C1899     1.0  0.92202  0.17725  0.48821  1.0000
  H   H3343     1.0  0.96028  0.47550  0.72753  1.0000
  C   C1900     1.0  0.74567  0.98425  0.59068  1.0000
  H   H3344     1.0  0.87659  0.46413  0.73333  1.0000
  H   H3345     1.0  0.84518  0.17456  0.48642  1.0000
  H   H3346     1.0  0.77443  0.40770  0.86265  1.0000
  H   H3347     1.0  0.93133  0.41790  0.74433  1.0000
  H   H3348     1.0  0.68662  0.98085  0.73661  1.0000
  C   C1901     1.0  0.83089  0.37915  0.90533  1.0000
  H   H3349     1.0  0.84706  0.37836  0.89899  1.0000
  S   S418      1.0  0.67610  0.24234  0.89688  1.0000
  H   H3350     1.0  0.81051  0.39584  0.87741  1.0000
  Fe  Fe209     1.0  0.75124  0.35146  0.93382  1.0000
  S   S419      1.0  0.72477  0.36741  0.91991  1.0000
  S   S420      1.0  0.74318  0.34388  0.96232  1.0000
  Fe  Fe210     1.0  0.77997  0.34586  0.90058  1.0000
  S   S421      1.0  0.75520  0.36084  0.88454  1.0000
  S   S422      1.0  0.81276  0.33321  0.88967  1.0000
  Fe  Fe211     1.0  0.74862  0.38419  0.90317  1.0000
  S   S423      1.0  0.74461  0.41783  0.89227  1.0000
  Fe  Fe212     1.0  0.73355  0.34240  0.90286  1.0000
  S   S424      1.0  0.70643  0.32954  0.89515  1.0000
  S   S425      1.0  0.77455  0.37014  0.91830  1.0000
  S   S426      1.0  0.75889  0.32562  0.91766  1.0000
  Fe  Fe213     1.0  0.92410  0.40359  0.78932  1.0000
  S   S427      1.0  0.91875  0.39578  0.81762  1.0000
  S   S428      1.0  0.92452  0.43604  0.77702  1.0000
  Fe  Fe214     1.0  0.93240  0.35909  0.78292  1.0000
  S   S429      1.0  0.92794  0.34753  0.81102  1.0000
  S   S430      1.0  0.94558  0.33898  0.76226  1.0000
  Fe  Fe215     1.0  0.90009  0.37245  0.81246  1.0000
  S   S431      1.0  0.86606  0.37453  0.82425  1.0000
  Fe  Fe216     1.0  0.94699  0.37198  0.81370  1.0000
  S   S432      1.0  0.90363  0.38223  0.78400  1.0000
  S   S433      1.0  0.95318  0.38154  0.78570  1.0000
  C   C1902     1.0  0.91551  0.35212  0.74067  1.0000
  H   H3351     1.0  0.70261  0.25619  0.96018  1.0000
  C   C1903     1.0  0.94026  0.44729  0.78761  1.0000
  C   C1904     1.0  0.95066  0.43567  0.80060  1.0000
  C   C1905     1.0  0.96211  0.44499  0.80985  1.0000
  C   C1906     1.0  0.70391  0.33319  0.85033  1.0000
  H   H3352     1.0  0.94987  0.41950  0.80363  1.0000
  H   H3353     1.0  0.96952  0.43605  0.82025  1.0000
  H   H3354     1.0  0.93917  0.44458  0.86774  1.0000
  H   H3355     1.0  0.86018  0.44534  0.75961  1.0000
  C   C1907     1.0  0.67032  0.12271  0.84855  1.0000
  C   C1908     1.0  0.67992  0.27254  0.94331  1.0000
  H   H3356     1.0  0.69052  0.20240  0.95829  1.0000
  C   C1909     1.0  0.83162  0.36508  0.92219  1.0000
  H   H3357     1.0  0.66022  0.22796  0.93511  1.0000
  H   H3358     1.0  0.90580  0.35837  0.75136  1.0000
  H   H3359     1.0  0.83951  0.43527  0.87543  1.0000
  H   H3360     1.0  0.73223  0.07082  0.79134  1.0000
  H   H3361     1.0  0.89110  0.47405  0.80350  1.0000
  C   C1910     1.0  0.77661  0.46804  0.97961  1.0000
  H   H3362     1.0  0.91195  0.40095  0.74661  1.0000
  H   H3363     1.0  0.92537  0.47565  0.87990  1.0000
  H   H3364     1.0  0.78055  0.36340  0.96049  1.0000
  H   H3365     1.0  0.67412  0.33828  0.98497  1.0000
  H   H3366     1.0  0.69965  0.09367  0.79772  1.0000
  C   C1911     1.0  0.74893  0.43741  0.90347  1.0000
  C   C1912     1.0  0.75090  0.43390  0.92086  1.0000
  C   C1913     1.0  0.75346  0.45017  0.92945  1.0000
  H   H3367     1.0  0.67120  0.08007  0.86574  1.0000
  H   H3368     1.0  0.73854  0.29908  0.97458  1.0000
  C   C1914     1.0  0.75016  0.45711  0.89468  1.0000
  H   H3369     1.0  0.74991  0.41880  0.92776  1.0000
  H   H3370     1.0  0.75440  0.44749  0.94300  1.0000
  S   S434      1.0  0.97311  0.36960  0.83007  1.0000
  H   H3371     1.0  0.74861  0.45994  0.88124  1.0000
  C   C1915     1.0  0.82761  0.34513  0.87171  1.0000
  C   C1916     1.0  0.84903  0.33843  0.86851  1.0000
  C   C1917     1.0  0.86122  0.34729  0.85417  1.0000
  C   C1918     1.0  0.85200  0.36279  0.84276  1.0000
  C   C1919     1.0  0.83062  0.36948  0.84602  1.0000
  C   C1920     1.0  0.81848  0.36081  0.86043  1.0000
  H   H3372     1.0  0.85625  0.32625  0.87714  1.0000
  H   H3373     1.0  0.87765  0.34195  0.85182  1.0000
  H   H3374     1.0  0.82343  0.38132  0.83715  1.0000
  H   H3375     1.0  0.80202  0.36601  0.86262  1.0000
  C   C1921     1.0  0.68402  0.26682  0.89642  1.0000
  C   C1922     1.0  0.70449  0.26768  0.89910  1.0000
  C   C1923     1.0  0.71143  0.28662  0.89931  1.0000
  C   C1924     1.0  0.69819  0.30506  0.89631  1.0000
  C   C1925     1.0  0.67781  0.30420  0.89342  1.0000
  C   C1926     1.0  0.67070  0.28525  0.89362  1.0000
  H   H3376     1.0  0.71496  0.25355  0.90130  1.0000
  H   H3377     1.0  0.72703  0.28690  0.90173  1.0000
  C   C1927     1.0  0.77337  0.36150  0.97357  1.0000
  H   H3378     1.0  0.66639  0.08606  0.79637  1.0000
  C   C1928     1.0  0.75499  0.35287  0.97763  1.0000
  H   H3379     1.0  0.69441  0.09610  0.84770  1.0000
  H   H3380     1.0  0.77449  0.45434  0.97398  1.0000
  C   C1929     1.0  0.66423  0.07084  0.85824  1.0000
  H   H3381     1.0  0.66659  0.99434  0.76494  1.0000
  H   H3382     1.0  0.91417  0.45492  0.82313  1.0000
  H   H3383     1.0  0.83260  0.40613  0.91608  1.0000
  C   C1930     1.0  0.87671  0.44080  0.75473  1.0000
  C   C1931     1.0  0.72001  0.06538  0.80126  1.0000
  H   H3384     1.0  0.79850  0.40642  0.84850  1.0000
  H   H3385     1.0  0.80758  0.44922  0.88763  1.0000
  H   H3386     1.0  0.69845  0.31943  0.85813  1.0000
  H   H3387     1.0  0.77931  0.42887  0.84658  1.0000
  H   H3388     1.0  0.93879  0.39047  0.74698  1.0000
  N   N109      1.0  0.76348  0.31399  0.84983  1.0000
  C   C1932     1.0  0.74098  0.32063  0.85623  1.0000
  C   C1933     1.0  0.77598  0.30729  0.86460  1.0000
  C   C1934     1.0  0.77167  0.33251  0.83946  1.0000
  C   C1935     1.0  0.76609  0.29735  0.83839  1.0000
  C   C1936     1.0  0.75658  0.27768  0.84583  1.0000
  C   C1937     1.0  0.72637  0.32812  0.84236  1.0000
  C   C1938     1.0  0.79548  0.33026  0.83399  1.0000
  C   C1939     1.0  0.76535  0.29567  0.88089  1.0000
  C   C1940     1.0  0.78106  0.28527  0.89283  1.0000
  C   C1941     1.0  0.75677  0.26401  0.83200  1.0000
  C   C1942     1.0  0.89566  0.46464  0.86695  1.0000
  C   C1943     1.0  0.80141  0.34919  0.82224  1.0000
  H   H3389     1.0  0.73970  0.33317  0.86433  1.0000
  H   H3390     1.0  0.73410  0.30820  0.86481  1.0000
  H   H3391     1.0  0.79091  0.29781  0.86039  1.0000
  H   H3392     1.0  0.78045  0.32087  0.86909  1.0000
  H   H3393     1.0  0.76746  0.34605  0.84668  1.0000
  H   H3394     1.0  0.76435  0.33683  0.82754  1.0000
  H   H3395     1.0  0.75984  0.30353  0.82619  1.0000
  H   H3396     1.0  0.78277  0.29207  0.83458  1.0000
  H   H3397     1.0  0.74030  0.28108  0.85168  1.0000
  H   H3398     1.0  0.76600  0.26857  0.85546  1.0000
  H   H3399     1.0  0.73067  0.34227  0.83447  1.0000
  H   H3400     1.0  0.72680  0.31615  0.83396  1.0000
  H   H3401     1.0  0.80112  0.31683  0.82699  1.0000
  H   H3402     1.0  0.80394  0.32852  0.84524  1.0000
  H   H3403     1.0  0.75395  0.30678  0.88780  1.0000
  H   H3404     1.0  0.75689  0.28378  0.87816  1.0000
  H   H3405     1.0  0.79199  0.27307  0.88679  1.0000
  H   H3406     1.0  0.79000  0.29662  0.89608  1.0000
  H   H3407     1.0  0.77283  0.27820  0.90481  1.0000
  H   H3408     1.0  0.74700  0.27201  0.82217  1.0000
  H   H3409     1.0  0.77283  0.25967  0.82585  1.0000
  H   H3410     1.0  0.75040  0.24977  0.83777  1.0000
  H   H3411     1.0  0.71649  0.09242  0.81369  1.0000
  H   H3412     1.0  0.65591  0.12143  0.78231  1.0000
  C   C1944     1.0  0.69242  0.46473  0.92794  1.0000
  H   H3413     1.0  0.81855  0.34775  0.81924  1.0000
  H   H3414     1.0  0.79470  0.35070  0.81010  1.0000
  H   H3415     1.0  0.79582  0.36328  0.82847  1.0000
  N   N110      1.0  0.81917  0.41681  0.89264  1.0000
  N   N111      1.0  0.91630  0.46817  0.85687  1.0000
  H   H3416     1.0  0.68140  0.06555  0.81771  1.0000
  C   C1945     1.0  0.65910  0.26584  0.98501  1.0000
  H   H3417     1.0  0.68443  0.46349  0.91693  1.0000
  C   C1946     1.0  0.67270  0.22714  0.94319  1.0000
  C   C1947     1.0  0.68456  0.10611  0.83874  1.0000
  C   C1948     1.0  0.68281  0.13375  0.85799  1.0000
  H   H3418     1.0  0.67440  0.11731  0.80815  1.0000
  H   H3419     1.0  0.72311  0.26824  0.93327  1.0000
  C   C1949     1.0  0.65717  0.08366  0.84177  1.0000
  H   H3420     1.0  0.68223  0.00731  0.74059  1.0000
  H   H3421     1.0  0.67570  0.05735  0.85513  1.0000
  H   H3422     1.0  0.66226  0.13449  0.83957  1.0000
  H   H3423     1.0  0.67780  0.23744  0.96633  1.0000
  H   H3424     1.0  0.81597  0.36531  0.92955  1.0000
  H   H3425     1.0  0.98512  0.38442  0.74096  1.0000
  H   H3426     1.0  0.83745  0.34907  0.91955  1.0000
  H   H3427     1.0  0.85214  0.46799  0.87188  1.0000
  H   H3428     1.0  0.80677  0.40117  0.91662  1.0000
  H   H3429     1.0  0.70916  0.45898  0.92500  1.0000
  C   C1950     1.0  0.75455  0.46989  0.92066  1.0000
  H   H3430     1.0  0.81541  0.47775  0.89983  1.0000
  H   H3431     1.0  0.83799  0.40977  0.85711  1.0000
  C   C1951     1.0  0.78657  0.41667  0.85575  1.0000
  H   H3432     1.0  0.88026  0.40190  0.87061  1.0000
  H   H3433     1.0  0.86136  0.47097  0.89156  1.0000
  H   H3434     1.0  0.72916  0.27925  0.95088  1.0000
  H   H3435     1.0  0.83847  0.44423  0.90594  1.0000
  H   H3436     1.0  0.68215  0.19508  0.93985  1.0000
  C   C1952     1.0  0.71688  0.27895  0.94284  1.0000
  C   C1953     1.0  0.93840  0.41023  0.85273  1.0000
  C   C1954     1.0  0.81385  0.46819  0.91241  1.0000
  H   H3437     1.0  0.89728  0.47120  0.76398  1.0000
  C   C1955     1.0  0.79489  0.47697  0.96874  1.0000
  H   H3438     1.0  0.67583  0.28896  0.93840  1.0000
  H   H3439     1.0  0.68595  0.45481  0.93917  1.0000
  H   H3440     1.0  0.92728  0.47055  0.74589  1.0000
  H   H3441     1.0  0.94772  0.41281  0.84006  1.0000
  H   H3442     1.0  0.87501  0.39694  0.85033  1.0000
  H   H3443     1.0  0.69073  0.12280  0.86765  1.0000
  H   H3444     1.0  0.69379  0.33845  0.84016  1.0000
  C   C1956     1.0  0.82171  0.44560  0.91068  1.0000
  H   H3445     1.0  0.85216  0.41735  0.89048  1.0000
  H   H3446     1.0  0.91159  0.43038  0.84519  1.0000
  H   H3447     1.0  0.78998  0.40654  0.89153  1.0000
  H   H3448     1.0  0.69763  0.06739  0.83294  1.0000
  C   C1957     1.0  0.67758  0.20463  0.95046  1.0000
  C   C1958     1.0  0.90328  0.46809  0.82777  1.0000
  H   H3449     1.0  0.82138  0.37288  0.89762  1.0000
  H   H3450     1.0  0.80919  0.43415  0.86087  1.0000
  H   H3451     1.0  0.69555  0.11443  0.82944  1.0000
  C   C1959     1.0  0.66572  0.24095  0.95766  1.0000
  H   H3452     1.0  0.97736  0.31434  0.78197  1.0000
  H   H3453     1.0  0.98475  0.34716  0.74537  1.0000
  H   H3454     1.0  0.84217  0.36980  0.93002  1.0000
  H   H3455     1.0  0.69300  0.28253  0.96375  1.0000
  H   H3456     1.0  0.69447  0.14143  0.84894  1.0000
  C   C1960     1.0  0.82191  0.40149  0.90832  1.0000
  H   H3457     1.0  0.87767  0.42824  0.74679  1.0000
  C   C1961     1.0  0.92800  0.40321  0.74110  1.0000
  H   H3458     1.0  0.94884  0.40764  0.86276  1.0000
  H   H3459     1.0  0.71298  0.29465  0.93616  1.0000
  H   H3460     1.0  0.87160  0.42297  0.85500  1.0000
  H   H3461     1.0  0.78444  0.43827  0.87352  1.0000
  C   C1962     1.0  0.68931  0.07663  0.82264  1.0000
  H   H3462     1.0  0.84635  0.38894  0.87230  1.0000
  H   H3463     1.0  0.89803  0.45735  0.88009  1.0000
  C   C1963     1.0  0.69781  0.27187  0.95397  1.0000
  H   H3464     1.0  0.66836  0.04391  0.74587  1.0000
  H   H3465     1.0  0.94331  0.44953  0.84518  1.0000
  H   H3466     1.0  0.93130  0.39610  0.85320  1.0000
  H   H3467     1.0  0.70240  0.34562  0.85852  1.0000
  C   C1964     1.0  0.86995  0.40697  0.86056  1.0000
  H   H3468     1.0  0.95885  0.47116  0.85773  1.0000
  H   H3469     1.0  0.71063  0.05662  0.79531  1.0000
  H   H3470     1.0  0.98442  0.32557  0.79904  1.0000
  H   H3471     1.0  0.68678  0.23156  0.93503  1.0000
  C   C1965     1.0  0.80954  0.43715  0.89868  1.0000
  H   H3472     1.0  0.68616  0.26491  0.93182  1.0000
  C   C1966     1.0  0.92145  0.42847  0.85551  1.0000
  C   C1967     1.0  0.80404  0.41028  0.88280  1.0000
  H   H3473     1.0  0.79736  0.47012  0.91802  1.0000
  C   C1968     1.0  0.93092  0.44814  0.85622  1.0000
  H   H3474     1.0  0.72761  0.05508  0.81145  1.0000
  H   H3475     1.0  0.91186  0.42439  0.86780  1.0000
  C   C1969     1.0  0.94201  0.46811  0.78347  1.0000
  H   H3476     1.0  0.80927  0.46573  0.96912  1.0000
  C   C1970     1.0  0.79641  0.42636  0.86814  1.0000
  H   H3477     1.0  0.79362  0.43615  0.90544  1.0000
  C   C1971     1.0  0.84741  0.40526  0.86780  1.0000
  C   C1972     1.0  0.83979  0.41935  0.88205  1.0000
  H   H3478     1.0  0.81971  0.43702  0.92366  1.0000
  C   C1973     1.0  0.70634  0.08376  0.80849  1.0000
  H   H3479     1.0  0.65853  0.11605  0.85815  1.0000
  H   H3480     1.0  0.67220  0.14568  0.86467  1.0000
  N   N112      1.0  0.66096  0.26376  0.95230  1.0000
  C   C1974     1.0  0.75330  0.47322  0.90316  1.0000
  N   N113      1.0  0.67366  0.09344  0.82972  1.0000
  C   C1975     1.0  0.96362  0.46583  0.80584  1.0000
  C   C1976     1.0  0.93554  0.34211  0.74261  1.0000
  H   H3481     1.0  0.88842  0.45359  0.86152  1.0000
  H   H3482     1.0  0.66743  0.31833  0.89094  1.0000
  H   H3483     1.0  0.88542  0.43480  0.76569  1.0000
  H   H3484     1.0  0.88899  0.46253  0.83451  1.0000
  C   C1977     1.0  0.66347  0.10735  0.81576  1.0000
  H   H3485     1.0  0.90187  0.45350  0.73884  1.0000
  H   H3486     1.0  0.66369  0.19932  0.95839  1.0000
  C   C1978     1.0  0.88574  0.45903  0.74410  1.0000
  C   C1979     1.0  0.76517  0.27673  0.97840  1.0000
  H   H3487     1.0  0.98018  0.41544  0.76505  1.0000
  H   H3488     1.0  0.82291  0.47381  0.92095  1.0000
  H   H3489     1.0  0.77533  0.28591  0.96904  1.0000
  H   H3490     1.0  0.67614  0.26338  0.98436  1.0000
  C   C1980     1.0  0.95376  0.47738  0.79254  1.0000
  H   H3491     1.0  0.76029  0.26507  0.97181  1.0000
  H   H3492     1.0  0.66157  0.00063  0.79580  1.0000
  H   H3493     1.0  0.79679  0.37403  0.98347  1.0000
  C   C1981     1.0  0.74633  0.29094  0.98556  1.0000
  C   C1982     1.0  0.88560  0.47657  0.75500  1.0000
  C   C1983     1.0  0.85881  0.47838  0.87854  1.0000
  S   S435      1.0  0.97741  0.47752  0.81773  1.0000
  H   H3494     1.0  0.93396  0.47717  0.77355  1.0000
  H   H3495     1.0  0.87049  0.47803  0.76335  1.0000
  H   H3496     1.0  0.65505  0.28492  0.89127  1.0000
  H   H3497     1.0  0.86446  0.61555  0.16177  1.0000
  H   H3498     1.0  0.90417  0.60195  0.10935  1.0000
  H   H3499     1.0  0.97121  0.61069  0.19461  1.0000
  C   C1984     1.0  0.97376  0.59393  0.19384  1.0000
  C   C1985     1.0  0.71289  0.64854  0.00513  1.0000
  H   H3500     1.0  0.70172  0.63821  0.01147  1.0000
  Fe  Fe217     1.0  0.75055  0.56947  0.06805  1.0000
  S   S436      1.0  0.78036  0.56548  0.05000  1.0000
  S   S437      1.0  0.73361  0.60245  0.06284  1.0000
  Fe  Fe218     1.0  0.75773  0.52393  0.08264  1.0000
  S   S438      1.0  0.78730  0.51755  0.06542  1.0000
  Fe  Fe219     1.0  0.79488  0.54682  0.07215  1.0000
  S   S439      1.0  0.82880  0.54681  0.07548  1.0000
  Fe  Fe220     1.0  0.77025  0.53661  0.04513  1.0000
  S   S440      1.0  0.76935  0.52366  0.02067  1.0000
  S   S441      1.0  0.76603  0.55255  0.09070  1.0000
  S   S442      1.0  0.73988  0.54121  0.06189  1.0000
  Fe  Fe221     1.0  0.92884  0.51191  0.16405  1.0000
  S   S443      1.0  0.92820  0.52931  0.13797  1.0000
  H   H3501     1.0  0.68200  0.70200  0.08994  1.0000
  Fe  Fe222     1.0  0.91996  0.55014  0.18186  1.0000
  S   S444      1.0  0.91853  0.57086  0.15706  1.0000
  S   S445      1.0  0.91234  0.56234  0.20737  1.0000
  Fe  Fe223     1.0  0.89993  0.54846  0.14981  1.0000
  S   S446      1.0  0.86760  0.55735  0.14156  1.0000
  Fe  Fe224     1.0  0.94695  0.54964  0.14764  1.0000
  H   H3502     1.0  0.91108  0.48645  0.20712  1.0000
  S   S447      1.0  0.89948  0.52939  0.17542  1.0000
  S   S448      1.0  0.94940  0.53063  0.17286  1.0000
  H   H3503     1.0  0.87442  0.49239  0.10259  1.0000
  C   C1986     1.0  0.92909  0.55468  0.22306  1.0000
  C   C1987     1.0  0.87811  0.63099  0.09630  1.0000
  H   H3504     1.0  0.66141  0.90207  0.19312  1.0000
  H   H3505     1.0  0.88755  0.63566  0.10509  1.0000
  C   C1988     1.0  0.66780  0.63681  0.07729  1.0000
  C   C1989     1.0  0.80178  0.51033  0.14547  1.0000
  H   H3506     1.0  0.89295  0.48783  0.17444  1.0000
  C   C1990     1.0  0.68236  0.67997  0.11351  1.0000
  H   H3507     1.0  0.88401  0.60095  0.13687  1.0000
  H   H3508     1.0  0.87549  0.66552  0.07151  1.0000
  H   H3509     1.0  0.97556  0.48189  0.14748  1.0000
  H   H3510     1.0  0.78330  0.59611  0.02084  1.0000
  C   C1991     1.0  0.83913  0.54793  0.09453  1.0000
  C   C1992     1.0  0.82656  0.55381  0.10918  1.0000
  C   C1993     1.0  0.83556  0.55606  0.12360  1.0000
  C   C1994     1.0  0.85715  0.55210  0.12370  1.0000
  C   C1995     1.0  0.86970  0.54570  0.10921  1.0000
  C   C1996     1.0  0.86073  0.54378  0.09466  1.0000
  H   H3511     1.0  0.80994  0.55714  0.10924  1.0000
  H   H3512     1.0  0.82571  0.56113  0.13472  1.0000
  H   H3513     1.0  0.88633  0.54273  0.10906  1.0000
  H   H3514     1.0  0.87060  0.53924  0.08338  1.0000
  C   C1997     1.0  0.77720  0.53660  0.00060  1.0000
  C   C1998     1.0  0.94843  0.54291  0.21959  1.0000
  H   H3515     1.0  0.98143  0.48742  0.17235  1.0000
  C   C1999     1.0  0.92795  0.49678  0.22505  1.0000
  H   H3516     1.0  0.79669  0.62856  0.00980  1.0000
  C   C2000     1.0  0.73733  0.57956  0.01523  1.0000
  H   H3517     1.0  0.87052  0.49235  0.20856  1.0000
  H   H3518     1.0  0.82904  0.61763  0.09927  1.0000
  H   H3519     1.0  0.71268  0.60368  0.00796  1.0000
  H   H3520     1.0  0.68274  0.66420  0.17024  1.0000
  C   C2001     1.0  0.73551  0.63808  0.00642  1.0000
  H   H3521     1.0  0.70928  0.65998  0.08887  1.0000
  H   H3522     1.0  0.84984  0.59876  0.15442  1.0000
  H   H3523     1.0  0.67795  0.68948  0.14452  1.0000
  H   H3524     1.0  0.82059  0.49929  0.08898  1.0000
  H   H3525     1.0  0.82459  0.59199  0.08121  1.0000
  C   C2002     1.0  0.70797  0.61494  0.06854  1.0000
  C   C2003     1.0  0.69315  0.60540  0.07990  1.0000
  H   H3526     1.0  0.69194  0.67568  0.01201  1.0000
  H   H3527     1.0  0.74127  0.48223  0.03836  1.0000
  H   H3528     1.0  0.69707  0.58969  0.08546  1.0000
  H   H3529     1.0  0.68538  0.66294  0.11602  1.0000
  C   C2004     1.0  0.83702  0.49200  0.08700  1.0000
  C   C2005     1.0  0.82193  0.48931  0.12281  1.0000
  H   H3530     1.0  0.74592  0.64863  0.99884  1.0000
  C   C2006     1.0  0.76403  0.61060  0.00137  1.0000
  C   C2007     1.0  0.71558  0.49835  0.02632  1.0000
  C   C2008     1.0  0.96130  0.53682  0.23245  1.0000
  C   C2009     1.0  0.77184  0.61016  0.01885  1.0000
  C   C2010     1.0  0.89131  0.65706  0.07258  1.0000
  H   H3531     1.0  0.67867  0.66197  0.06023  1.0000
  C   C2011     1.0  0.68255  0.64624  0.06574  1.0000
  H   H3532     1.0  0.83851  0.60547  0.06298  1.0000
  H   H3533     1.0  0.67318  0.67824  0.08848  1.0000
  C   C2012     1.0  0.88731  0.49326  0.12544  1.0000
  H   H3534     1.0  0.70847  0.56757  0.01513  1.0000
  H   H3535     1.0  0.67936  0.62534  0.99338  1.0000
  H   H3536     1.0  0.72282  0.49815  0.07449  1.0000
  H   H3537     1.0  0.80686  0.52467  0.13843  1.0000
  H   H3538     1.0  0.90612  0.59434  0.07750  1.0000
  H   H3539     1.0  0.75929  0.60910  0.02965  1.0000
  S   S449      1.0  0.75082  0.49507  0.09985  1.0000
  H   H3540     1.0  0.93481  0.58111  0.09532  1.0000
  H   H3541     1.0  0.94624  0.49065  0.12556  1.0000
  H   H3542     1.0  0.79928  0.51185  0.15929  1.0000
  C   C2013     1.0  0.72071  0.56643  0.02350  1.0000
  C   C2014     1.0  0.98336  0.58224  0.20933  1.0000
  H   H3543     1.0  0.85873  0.48247  0.06527  1.0000
  H   H3544     1.0  0.67425  0.86684  0.18665  1.0000
  H   H3545     1.0  0.94396  0.49993  0.22497  1.0000
  C   C2015     1.0  0.65882  0.87021  0.19419  1.0000
  H   H3546     1.0  0.91704  0.51127  0.22579  1.0000
  H   H3547     1.0  0.77263  0.64312  0.01810  1.0000
  H   H3548     1.0  0.76906  0.59504  0.99766  1.0000
  H   H3549     1.0  0.70717  0.68057  0.07166  1.0000
  H   H3550     1.0  0.75412  0.49044  0.00844  1.0000
  H   H3551     1.0  0.88197  0.49642  0.13875  1.0000
  H   H3552     1.0  0.89346  0.57274  0.08627  1.0000
  H   H3553     1.0  0.72294  0.51234  0.02166  1.0000
  C   C2016     1.0  0.82864  0.60722  0.07534  1.0000
  H   H3554     1.0  0.72431  0.60738  0.02557  1.0000
  C   C2017     1.0  0.70612  0.67692  0.08573  1.0000
  H   H3555     1.0  0.81407  0.61747  0.07287  1.0000
  H   H3556     1.0  0.86373  0.64236  0.09677  1.0000
  H   H3557     1.0  0.74950  0.57727  0.02381  1.0000
  S   S450      1.0  0.97709  0.55741  0.13229  1.0000
  H   H3558     1.0  0.67056  0.63967  0.03202  1.0000
  H   H3559     1.0  0.70954  0.66517  0.02723  1.0000
  H   H3560     1.0  0.72781  0.55012  0.02559  1.0000
  H   H3561     1.0  0.97602  0.52735  0.22975  1.0000
  N   N114      1.0  0.87300  0.60967  0.10239  1.0000
  C   C2018     1.0  0.86047  0.60252  0.09063  1.0000
  C   C2019     1.0  0.89247  0.59452  0.10468  1.0000
  C   C2020     1.0  0.85987  0.61032  0.11956  1.0000
  N   N115      1.0  0.74107  0.61689  0.00088  1.0000
  C   C2021     1.0  0.86272  0.48547  0.22084  1.0000
  C   C2022     1.0  0.83977  0.61629  0.08730  1.0000
  C   C2023     1.0  0.87101  0.61345  0.13463  1.0000
  C   C2024     1.0  0.65801  0.88919  0.20307  1.0000
  H   H3562     1.0  0.88347  0.62832  0.06865  1.0000
  C   C2025     1.0  0.89045  0.63427  0.07836  1.0000
  C   C2026     1.0  0.85610  0.61355  0.15118  1.0000
  H   H3563     1.0  0.85675  0.58693  0.09583  1.0000
  H   H3564     1.0  0.67839  0.65154  0.14331  1.0000
  H   H3565     1.0  0.71874  0.67935  0.00728  1.0000
  H   H3566     1.0  0.88903  0.58173  0.11477  1.0000
  H   H3567     1.0  0.85290  0.59592  0.12333  1.0000
  H   H3568     1.0  0.84656  0.62288  0.11896  1.0000
  H   H3569     1.0  0.89582  0.50584  0.11890  1.0000
  C   C2027     1.0  0.97996  0.48562  0.11983  1.0000
  C   C2028     1.0  0.70808  0.66836  0.01343  1.0000
  H   H3570     1.0  0.71811  0.68402  0.09022  1.0000
  H   H3571     1.0  0.85759  0.50643  0.11832  1.0000
  H   H3572     1.0  0.92174  0.55936  0.10418  1.0000
  H   H3573     1.0  0.98052  0.49927  0.11006  1.0000
  H   H3574     1.0  0.77299  0.62045  0.99148  1.0000
  C   C2029     1.0  0.92401  0.57100  0.09289  1.0000
  H   H3575     1.0  0.87720  0.62825  0.13224  1.0000
  H   H3576     1.0  0.89859  0.66381  0.08171  1.0000
  H   H3577     1.0  0.78684  0.50837  0.14151  1.0000
  C   C2030     1.0  0.72802  0.60258  0.01252  1.0000
  H   H3578     1.0  0.98377  0.56581  0.20864  1.0000
  C   C2031     1.0  0.81822  0.49188  0.14204  1.0000
  C   C2032     1.0  0.98405  0.49128  0.13710  1.0000
  C   C2033     1.0  0.78830  0.55314  0.99878  1.0000
  H   H3579     1.0  0.79241  0.55819  0.00992  1.0000
  H   H3580     1.0  0.76366  0.51717  0.98736  1.0000
  H   H3581     1.0  0.73792  0.63759  0.01997  1.0000
  H   H3582     1.0  0.71364  0.57136  0.03603  1.0000
  H   H3583     1.0  0.71037  0.65282  0.99160  1.0000
  H   H3584     1.0  0.83262  0.49451  0.14648  1.0000
  H   H3585     1.0  0.84306  0.62631  0.15004  1.0000
  H   H3586     1.0  0.69539  0.68538  0.11812  1.0000
  H   H3587     1.0  0.82568  0.50427  0.11606  1.0000
  H   H3588     1.0  0.90071  0.65897  0.05989  1.0000
  H   H3589     1.0  0.67051  0.88587  0.21135  1.0000
  C   C2034     1.0  0.68450  0.68523  0.09386  1.0000
  C   C2035     1.0  0.78301  0.62832  0.01973  1.0000
  C   C2036     1.0  0.72795  0.48208  0.07825  1.0000
  C   C2037     1.0  0.90326  0.58355  0.08915  1.0000
  H   H3590     1.0  0.84256  0.63183  0.08127  1.0000
  H   H3591     1.0  0.90668  0.62668  0.07868  1.0000
  H   H3592     1.0  0.93118  0.56288  0.08181  1.0000
  H   H3593     1.0  0.93057  0.50192  0.19762  1.0000
  H   H3594     1.0  0.78853  0.62669  0.03239  1.0000
  H   H3595     1.0  0.97995  0.55679  0.16825  1.0000
  H   H3596     1.0  0.77624  0.48011  0.03181  1.0000
  H   H3597     1.0  0.95856  0.58898  0.19342  1.0000
  C   C2038     1.0  0.70249  0.63541  0.06151  1.0000
  H   H3598     1.0  0.71391  0.64300  0.05291  1.0000
  H   H3599     1.0  0.66975  0.59147  0.99087  1.0000
  C   C2039     1.0  0.67326  0.61632  0.08430  1.0000
  H   H3600     1.0  0.95347  0.53848  0.20701  1.0000
  H   H3601     1.0  0.66710  0.65509  0.00177  1.0000
  H   H3602     1.0  0.66588  0.91185  0.22719  1.0000
  C   C2040     1.0  0.77221  0.52994  0.98609  1.0000
  H   H3603     1.0  0.84675  0.50287  0.08968  1.0000
  H   H3604     1.0  0.86946  0.60070  0.07796  1.0000
  H   H3605     1.0  0.74452  0.57351  0.00327  1.0000
  H   H3606     1.0  0.83953  0.50421  0.06028  1.0000
  C   C2041     1.0  0.86870  0.49239  0.11635  1.0000
  C   C2042     1.0  0.84221  0.48909  0.06816  1.0000
  H   H3607     1.0  0.80679  0.48768  0.11887  1.0000
  C   C2043     1.0  0.92686  0.48966  0.20797  1.0000
  H   H3608     1.0  0.66202  0.60881  0.09322  1.0000
  H   H3609     1.0  0.68728  0.72008  0.11187  1.0000
  H   H3610     1.0  0.65608  0.85665  0.20364  1.0000
  C   C2044     1.0  0.67262  0.72419  0.12018  1.0000
  H   H3611     1.0  0.70518  0.49624  0.01720  1.0000
  H   H3612     1.0  0.97257  0.58637  0.22072  1.0000
  H   H3613     1.0  0.70613  0.50062  0.03877  1.0000
  H   H3614     1.0  0.98391  0.59083  0.18185  1.0000
  H   H3615     1.0  0.84697  0.49426  0.22320  1.0000
  H   H3616     1.0  0.97626  0.50731  0.13814  1.0000
  H   H3617     1.0  0.67728  0.75618  0.11611  1.0000
  H   H3618     1.0  0.87147  0.48690  0.23133  1.0000
  H   H3619     1.0  0.67599  0.72240  0.13353  1.0000
  H   H3620     1.0  0.66126  0.74964  0.10188  1.0000
  C   C2045     1.0  0.66505  0.74689  0.11518  1.0000
  H   H3621     1.0  0.66886  0.64247  0.17412  1.0000
  C   C2046     1.0  0.66809  0.65887  0.16871  1.0000
  C   C2047     1.0  0.66516  0.66116  0.14990  1.0000
  C   C2048     1.0  0.66382  0.68394  0.14193  1.0000
  N   N116      1.0  0.66188  0.68799  0.12313  1.0000
  C   C2049     1.0  0.73212  0.47957  0.02853  1.0000
  C   C2050     1.0  0.65612  0.71074  0.11839  1.0000
  H   H3622     1.0  0.83213  0.47892  0.06468  1.0000
  Fe  Fe225     1.0  0.75794  0.87168  0.42087  1.0000
  S   S451      1.0  0.79222  0.87163  0.41540  1.0000
  S   S452      1.0  0.74246  0.88342  0.44543  1.0000
  Fe  Fe226     1.0  0.75424  0.86110  0.38527  1.0000
  S   S453      1.0  0.78858  0.86101  0.37740  1.0000
  S   S454      1.0  0.73777  0.85305  0.36426  1.0000
  Fe  Fe227     1.0  0.79297  0.84307  0.40303  1.0000
  S   S455      1.0  0.81368  0.81284  0.41075  1.0000
  Fe  Fe228     1.0  0.78464  0.88944  0.39054  1.0000
  S   S456      1.0  0.79601  0.91938  0.37883  1.0000
  S   S457      1.0  0.75871  0.84191  0.41047  1.0000
  S   S458      1.0  0.75023  0.89079  0.39640  1.0000
  H   H3623     1.0  0.93058  0.55866  0.26493  1.0000
  H   H3624     1.0  0.97068  0.57717  0.35337  1.0000
  H   H3625     1.0  0.94935  0.50229  0.25148  1.0000
  H   H3626     1.0  0.84953  0.63474  0.32217  1.0000
  Fe  Fe229     1.0  0.91849  0.67768  0.39581  1.0000
  S   S459      1.0  0.93267  0.70197  0.37745  1.0000
  S   S460      1.0  0.91338  0.64601  0.39035  1.0000
  Fe  Fe230     1.0  0.91575  0.70276  0.42603  1.0000
  S   S461      1.0  0.93049  0.72820  0.40977  1.0000
  S   S462      1.0  0.90390  0.70763  0.45343  1.0000
  Fe  Fe231     1.0  0.90907  0.72506  0.39113  1.0000
  S   S463      1.0  0.89112  0.75367  0.37751  1.0000
  Fe  Fe232     1.0  0.95238  0.70307  0.39795  1.0000
  S   S464      1.0  0.89335  0.70057  0.40791  1.0000
  S   S465      1.0  0.93915  0.67779  0.41579  1.0000
  Fe  Fe233     1.0  0.94466  0.56309  0.32186  1.0000
  S   S466      1.0  0.97578  0.54859  0.30999  1.0000
  S   S467      1.0  0.94290  0.59676  0.32596  1.0000
  Fe  Fe234     1.0  0.92533  0.52426  0.32052  1.0000
  S   S468      1.0  0.95475  0.50753  0.30875  1.0000
  S   S469      1.0  0.89687  0.50842  0.32654  1.0000
  Fe  Fe235     1.0  0.96915  0.52043  0.32758  1.0000
  C   C2051     1.0  0.91493  0.71163  0.48423  1.0000
  Fe  Fe236     1.0  0.95825  0.53716  0.29215  1.0000
  S   S470      1.0  0.97144  0.53425  0.26470  1.0000
  S   S471      1.0  0.93940  0.53542  0.34081  1.0000
  S   S472      1.0  0.92746  0.55347  0.30253  1.0000
  C   C2052     1.0  0.95495  0.54244  0.24886  1.0000
  H   H3627     1.0  0.85359  0.60880  0.31860  1.0000
  H   H3628     1.0  0.74780  0.96671  0.47386  1.0000
  H   H3629     1.0  0.69973  0.95461  0.32403  1.0000
  C   C2053     1.0  0.92276  0.56036  0.23947  1.0000
  H   H3630     1.0  0.69304  0.91406  0.29779  1.0000
  H   H3631     1.0  0.89546  0.95323  0.39761  1.0000
  H   H3632     1.0  0.91438  0.63076  0.46355  1.0000
  C   C2054     1.0  0.81477  0.62061  0.33589  1.0000
  H   H3633     1.0  0.92082  0.48854  0.37189  1.0000
  C   C2055     1.0  0.92351  0.63222  0.37273  1.0000
  C   C2056     1.0  0.93209  0.64176  0.35714  1.0000
  C   C2057     1.0  0.93828  0.63055  0.34310  1.0000
  C   C2058     1.0  0.93619  0.60965  0.34447  1.0000
  C   C2059     1.0  0.92816  0.59997  0.36016  1.0000
  C   C2060     1.0  0.92176  0.61123  0.37416  1.0000
  H   H3634     1.0  0.93343  0.65791  0.35580  1.0000
  H   H3635     1.0  0.94447  0.63823  0.33102  1.0000
  H   H3636     1.0  0.92656  0.58389  0.36147  1.0000
  H   H3637     1.0  0.91515  0.60368  0.38615  1.0000
  C   C2061     1.0  0.73152  0.92576  0.33176  1.0000
  C   C2062     1.0  0.92024  0.70175  0.46952  1.0000
  C   C2063     1.0  0.93754  0.68653  0.46846  1.0000
  N   N117      1.0  0.71150  0.92218  0.32647  1.0000
  H   H3638     1.0  0.68617  0.88949  0.24817  1.0000
  H   H3639     1.0  0.94153  0.67866  0.45725  1.0000
  C   C2064     1.0  0.85368  0.61888  0.32851  1.0000
  C   C2065     1.0  0.93561  0.55419  0.25236  1.0000
  H   H3640     1.0  0.83567  0.94017  0.43637  1.0000
  H   H3641     1.0  0.79295  0.94525  0.43394  1.0000
  H   H3642     1.0  0.74729  0.94465  0.42849  1.0000
  N   N118      1.0  0.87495  0.61629  0.33401  1.0000
  H   H3643     1.0  0.86933  0.96594  0.42694  1.0000
  C   C2066     1.0  0.83565  0.79707  0.40131  1.0000
  C   C2067     1.0  0.84622  0.80279  0.38528  1.0000
  C   C2068     1.0  0.86317  0.78939  0.37822  1.0000
  C   C2069     1.0  0.87014  0.77035  0.38725  1.0000
  C   C2070     1.0  0.85981  0.76483  0.40344  1.0000
  C   C2071     1.0  0.84263  0.77805  0.41034  1.0000
  H   H3644     1.0  0.84141  0.81753  0.37831  1.0000
  H   H3645     1.0  0.87107  0.79388  0.36573  1.0000
  H   H3646     1.0  0.86490  0.75024  0.41054  1.0000
  H   H3647     1.0  0.83466  0.77340  0.42275  1.0000
  C   C2072     1.0  0.71130  0.85916  0.36070  1.0000
  C   C2073     1.0  0.69587  0.86770  0.37267  1.0000
  C   C2074     1.0  0.67514  0.87249  0.36915  1.0000
  C   C2075     1.0  0.74990  0.88134  0.47858  1.0000
  C   C2076     1.0  0.68498  0.86036  0.34168  1.0000
  C   C2077     1.0  0.70567  0.85537  0.34527  1.0000
  H   H3648     1.0  0.69986  0.87053  0.38468  1.0000
  H   H3649     1.0  0.89984  0.55822  0.35835  1.0000
  H   H3650     1.0  0.68091  0.85736  0.32976  1.0000
  H   H3651     1.0  0.71741  0.84858  0.33597  1.0000
  C   C2078     1.0  0.79799  0.95847  0.38492  1.0000
  C   C2079     1.0  0.79575  0.93836  0.39223  1.0000
  C   C2080     1.0  0.79359  0.93377  0.40997  1.0000
  H   H3652     1.0  0.80009  0.96201  0.37121  1.0000
  H   H3653     1.0  0.79194  0.91832  0.41577  1.0000
  H   H3654     1.0  0.87902  0.65935  0.33271  1.0000
  H   H3655     1.0  0.77299  0.91483  0.33696  1.0000
  H   H3656     1.0  0.73001  0.95300  0.30186  1.0000
  H   H3657     1.0  0.81435  0.78728  0.48312  1.0000
  H   H3658     1.0  0.97034  0.71417  0.47342  1.0000
  C   C2081     1.0  0.74008  0.96593  0.39613  1.0000
  N   N119      1.0  0.77884  0.78809  0.37216  1.0000
  C   C2082     1.0  0.78696  0.80326  0.35779  1.0000
  C   C2083     1.0  0.76132  0.77886  0.36721  1.0000
  C   C2084     1.0  0.77009  0.79982  0.38708  1.0000
  C   C2085     1.0  0.79578  0.77162  0.37789  1.0000
  C   C2086     1.0  0.80758  0.75843  0.36414  1.0000
  C   C2087     1.0  0.80658  0.81196  0.36028  1.0000
  C   C2088     1.0  0.75925  0.78745  0.40306  1.0000
  C   C2089     1.0  0.76183  0.77638  0.34815  1.0000
  C   C2090     1.0  0.74483  0.76443  0.34562  1.0000
  C   C2091     1.0  0.82662  0.74493  0.37054  1.0000
  C   C2092     1.0  0.81232  0.82808  0.34544  1.0000
  C   C2093     1.0  0.77186  0.78310  0.41811  1.0000
  H   H3659     1.0  0.77451  0.81639  0.35517  1.0000
  H   H3660     1.0  0.79132  0.79641  0.34572  1.0000
  H   H3661     1.0  0.76022  0.76347  0.37457  1.0000
  H   H3662     1.0  0.74608  0.78837  0.37064  1.0000
  H   H3663     1.0  0.75849  0.81310  0.38299  1.0000
  H   H3664     1.0  0.78216  0.80697  0.39133  1.0000
  H   H3665     1.0  0.80719  0.77840  0.38353  1.0000
  H   H3666     1.0  0.78942  0.76070  0.38845  1.0000
  H   H3667     1.0  0.81301  0.76797  0.35232  1.0000
  H   H3668     1.0  0.79735  0.74817  0.36104  1.0000
  H   H3669     1.0  0.80442  0.81920  0.37212  1.0000
  H   H3670     1.0  0.82002  0.79958  0.36080  1.0000
  H   H3671     1.0  0.75548  0.77271  0.40048  1.0000
  H   H3672     1.0  0.74419  0.79661  0.40732  1.0000
  H   H3673     1.0  0.75907  0.79173  0.34059  1.0000
  H   H3674     1.0  0.77690  0.76820  0.34291  1.0000
  H   H3675     1.0  0.74526  0.76335  0.33184  1.0000
  H   H3676     1.0  0.74717  0.74865  0.35245  1.0000
  H   H3677     1.0  0.72932  0.77237  0.35034  1.0000
  H   H3678     1.0  0.83456  0.73515  0.36070  1.0000
  H   H3679     1.0  0.83778  0.75457  0.37315  1.0000
  H   H3680     1.0  0.82214  0.73484  0.38238  1.0000
  H   H3681     1.0  0.79936  0.84092  0.34419  1.0000
  H   H3682     1.0  0.82611  0.83438  0.34777  1.0000
  H   H3683     1.0  0.81613  0.82116  0.33333  1.0000
  H   H3684     1.0  0.77319  0.79762  0.42287  1.0000
  H   H3685     1.0  0.76390  0.77335  0.42867  1.0000
  H   H3686     1.0  0.78766  0.77505  0.41449  1.0000
  H   H3687     1.0  0.86484  0.48361  0.33515  1.0000
  H   H3688     1.0  0.74351  0.92702  0.32046  1.0000
  C   C2094     1.0  0.98186  0.65100  0.37481  1.0000
  C   C2095     1.0  0.70344  0.96721  0.28974  1.0000
  C   C2096     1.0  0.76178  0.91382  0.34875  1.0000
  H   H3689     1.0  0.75956  0.92846  0.35438  1.0000
  H   H3690     1.0  0.83712  0.59708  0.34625  1.0000
  H   H3691     1.0  0.97893  0.54671  0.38520  1.0000
  C   C2097     1.0  0.75060  0.87043  0.46467  1.0000
  H   H3692     1.0  0.91281  0.60816  0.27929  1.0000
  H   H3693     1.0  0.74405  0.89376  0.34042  1.0000
  H   H3694     1.0  0.86600  0.62435  0.35980  1.0000
  H   H3695     1.0  0.75204  0.97012  0.40300  1.0000
  C   C2098     1.0  0.85087  0.79462  0.47082  1.0000
  H   H3696     1.0  0.94594  0.48849  0.37823  1.0000
  H   H3697     1.0  0.65629  0.87592  0.23993  1.0000
  H   H3698     1.0  0.71782  0.94388  0.40217  1.0000
  H   H3699     1.0  0.91094  0.65776  0.46539  1.0000
  H   H3700     1.0  0.66881  0.90092  0.26516  1.0000
  C   C2099     1.0  0.74113  0.90900  0.34508  1.0000
  H   H3701     1.0  0.98584  0.48224  0.26703  1.0000
  H   H3702     1.0  0.89380  0.50244  0.25839  1.0000
  H   H3703     1.0  0.72973  0.90616  0.30622  1.0000
  C   C2100     1.0  0.83574  0.61390  0.34249  1.0000
  H   H3704     1.0  0.73083  0.90790  0.35737  1.0000
  H   H3705     1.0  0.70392  0.93834  0.35781  1.0000
  H   H3706     1.0  0.87425  0.55478  0.35474  1.0000
  H   H3707     1.0  0.72069  0.88992  0.32423  1.0000
  H   H3708     1.0  0.76474  0.97030  0.36470  1.0000
  C   C2101     1.0  0.85279  0.83889  0.42389  1.0000
  H   H3709     1.0  0.86048  0.58965  0.36355  1.0000
  H   H3710     1.0  0.84424  0.92129  0.42189  1.0000
  H   H3711     1.0  0.84951  0.84611  0.44942  1.0000
  H   H3712     1.0  0.83544  0.62172  0.35386  1.0000
  H   H3713     1.0  0.71315  0.97243  0.27785  1.0000
  C   C2102     1.0  0.87760  0.76453  0.46262  1.0000
  C   C2103     1.0  0.78714  0.77805  0.46523  1.0000
  C   C2104     1.0  0.94912  0.68089  0.48226  1.0000
  C   C2105     1.0  0.70469  0.88233  0.29683  1.0000
  H   H3714     1.0  0.70250  0.97044  0.38494  1.0000
  H   H3715     1.0  0.69144  0.87961  0.29079  1.0000
  H   H3716     1.0  0.70169  0.90181  0.34871  1.0000
  H   H3717     1.0  0.89050  0.53362  0.29390  1.0000
  C   C2106     1.0  0.87016  0.66395  0.35878  1.0000
  H   H3718     1.0  0.72964  0.94079  0.33678  1.0000
  C   C2107     1.0  0.90601  0.64288  0.47124  1.0000
  H   H3719     1.0  0.90480  0.62466  0.32272  1.0000
  H   H3720     1.0  0.67291  0.93651  0.37940  1.0000
  H   H3721     1.0  0.98703  0.49042  0.24443  1.0000
  H   H3722     1.0  0.89443  0.54185  0.27138  1.0000
  H   H3723     1.0  0.86544  0.84835  0.41980  1.0000
  H   H3724     1.0  0.91455  0.51711  0.25203  1.0000
  H   H3725     1.0  0.74872  0.95552  0.38699  1.0000
  H   H3726     1.0  0.85915  0.78407  0.44531  1.0000
  C   C2108     1.0  0.79406  0.94910  0.42026  1.0000
  H   H3727     1.0  0.76851  0.90139  0.35800  1.0000
  H   H3728     1.0  0.96506  0.64988  0.37628  1.0000
  H   H3729     1.0  0.68127  0.91467  0.33770  1.0000
  C   C2109     1.0  0.83012  0.82651  0.47885  1.0000
  N   N120      1.0  0.92423  0.48434  0.25757  1.0000
  C   C2110     1.0  0.90970  0.61824  0.28958  1.0000
  H   H3730     1.0  0.87690  0.58384  0.33200  1.0000
  H   H3731     1.0  0.80220  0.61638  0.34601  1.0000
  H   H3732     1.0  0.79798  0.80347  0.44874  1.0000
  N   N121      1.0  0.83179  0.80980  0.46757  1.0000
  C   C2111     1.0  0.89110  0.52874  0.28113  1.0000
  H   H3733     1.0  0.71910  0.93633  0.29093  1.0000
  H   H3734     1.0  0.84886  0.78648  0.48398  1.0000
  C   C2112     1.0  0.75659  0.84919  0.46661  1.0000
  C   C2113     1.0  0.66955  0.86903  0.35359  1.0000
  C   C2114     1.0  0.71607  0.90444  0.31603  1.0000
  H   H3735     1.0  0.89169  0.62714  0.35125  1.0000
  H   H3736     1.0  0.92396  0.95643  0.37446  1.0000
  H   H3737     1.0  0.81682  0.78091  0.45078  1.0000
  H   H3738     1.0  0.88158  0.75235  0.45405  1.0000
  H   H3739     1.0  0.85259  0.65593  0.34087  1.0000
  H   H3740     1.0  0.68442  0.89728  0.31621  1.0000
  H   H3741     1.0  0.90346  0.63394  0.28413  1.0000
  C   C2115     1.0  0.80445  0.79075  0.45794  1.0000
  C   C2116     1.0  0.71533  0.94856  0.29940  1.0000
  C   C2117     1.0  0.91750  0.96976  0.38148  1.0000
  H   H3742     1.0  0.90396  0.49771  0.28904  1.0000
  H   H3743     1.0  0.68677  0.94000  0.31360  1.0000
  H   H3744     1.0  0.67345  0.87344  0.26523  1.0000
  H   H3745     1.0  0.76449  0.82235  0.48424  1.0000
  H   H3746     1.0  0.86283  0.92945  0.43294  1.0000
  H   H3747     1.0  0.81400  0.61289  0.32463  1.0000
  C   C2118     1.0  0.79616  0.96922  0.41292  1.0000
  C   C2119     1.0  0.95554  0.74035  0.44665  1.0000
  C   C2120     1.0  0.98647  0.71758  0.47017  1.0000
  H   H3748     1.0  0.84450  0.83372  0.47665  1.0000
  H   H3749     1.0  0.81853  0.83068  0.44741  1.0000
  C   C2121     1.0  0.94447  0.76032  0.43814  1.0000
  C   C2122     1.0  0.86885  0.65269  0.34370  1.0000
  H   H3750     1.0  0.77387  0.78764  0.47186  1.0000
  C   C2123     1.0  0.70234  0.94153  0.31638  1.0000
  H   H3751     1.0  0.98117  0.60605  0.33937  1.0000
  H   H3752     1.0  0.90095  0.59391  0.30833  1.0000
  H   H3753     1.0  0.66333  0.87896  0.37856  1.0000
  H   H3754     1.0  0.71483  0.96163  0.41760  1.0000
  H   H3755     1.0  0.87570  0.52471  0.28006  1.0000
  C   C2124     1.0  0.73944  0.93683  0.42047  1.0000
  C   C2125     1.0  0.90794  0.51025  0.27898  1.0000
  H   H3756     1.0  0.98390  0.66711  0.37000  1.0000
  H   H3757     1.0  0.95029  0.72759  0.44175  1.0000
  H   H3758     1.0  0.95023  0.73963  0.46052  1.0000
  C   C2126     1.0  0.88298  0.56262  0.36208  1.0000
  H   H3759     1.0  0.86644  0.82261  0.44551  1.0000
  H   H3760     1.0  0.89967  0.59083  0.33745  1.0000
  C   C2127     1.0  0.67160  0.88836  0.25697  1.0000
  H   H3761     1.0  0.86490  0.68061  0.35568  1.0000
  H   H3762     1.0  0.75682  0.84063  0.45606  1.0000
  C   C2128     1.0  0.97420  0.59061  0.26245  1.0000
  C   C2129     1.0  0.97944  0.73946  0.44287  1.0000
  H   H3763     1.0  0.94918  0.76193  0.42414  1.0000
  H   H3764     1.0  0.92746  0.76019  0.44057  1.0000
  H   H3765     1.0  0.94805  0.77371  0.44338  1.0000
  C   C2130     1.0  0.85705  0.97093  0.41843  1.0000
  H   H3766     1.0  0.79287  0.76482  0.47430  1.0000
  H   H3767     1.0  0.90781  0.56951  0.24221  1.0000
  H   H3768     1.0  0.83800  0.84817  0.42061  1.0000
  H   H3769     1.0  0.88590  0.59276  0.36683  1.0000
  C   C2131     1.0  0.87708  0.58588  0.35888  1.0000
  H   H3770     1.0  0.68845  0.91180  0.37788  1.0000
  C   C2132     1.0  0.69018  0.93299  0.35446  1.0000
  H   H3771     1.0  0.94703  0.49007  0.27252  1.0000
  H   H3772     1.0  0.87929  0.55725  0.37583  1.0000
  C   C2133     1.0  0.83306  0.81990  0.44936  1.0000
  C   C2134     1.0  0.85148  0.83205  0.44305  1.0000
  C   C2135     1.0  0.87567  0.62930  0.34784  1.0000
  H   H3773     1.0  0.72941  0.92675  0.42901  1.0000
  C   C2136     1.0  0.88964  0.62338  0.31872  1.0000
  H   H3774     1.0  0.92726  0.96988  0.39165  1.0000
  H   H3775     1.0  0.77206  0.96953  0.46150  1.0000
  H   H3776     1.0  0.88367  0.63903  0.31294  1.0000
  H   H3777     1.0  0.88640  0.66199  0.36163  1.0000
  H   H3778     1.0  0.97119  0.69987  0.44823  1.0000
  H   H3779     1.0  0.68000  0.94642  0.34883  1.0000
  H   H3780     1.0  0.75132  0.92708  0.41270  1.0000
  C   C2137     1.0  0.88244  0.59396  0.33977  1.0000
  C   C2138     1.0  0.79767  0.97397  0.39522  1.0000
  H   H3781     1.0  0.86023  0.65811  0.37033  1.0000
  H   H3782     1.0  0.88914  0.64377  0.47077  1.0000
  C   C2139     1.0  0.69609  0.91687  0.34173  1.0000
  H   H3783     1.0  0.78162  0.77205  0.45474  1.0000
  H   H3784     1.0  0.86445  0.80271  0.47039  1.0000
  C   C2140     1.0  0.97331  0.55143  0.37259  1.0000
  H   H3785     1.0  0.95671  0.54954  0.37387  1.0000
  H   H3786     1.0  0.70963  0.86824  0.30536  1.0000
  H   H3787     1.0  0.71762  0.88534  0.28666  1.0000
  C   C2141     1.0  0.72632  0.95248  0.40908  1.0000
  H   H3788     1.0  0.81211  0.63750  0.33235  1.0000
  C   C2142     1.0  0.69805  0.90063  0.30692  1.0000
  H   H3789     1.0  0.96521  0.58335  0.37496  1.0000
  C   C2143     1.0  0.67829  0.92426  0.37104  1.0000
  H   H3790     1.0  0.83390  0.80848  0.44041  1.0000
  C   C2144     1.0  0.81243  0.79963  0.47224  1.0000
  C   C2145     1.0  0.84855  0.93461  0.42677  1.0000
  H   H3791     1.0  0.96183  0.58457  0.25751  1.0000
  H   H3792     1.0  0.92460  0.61865  0.29433  1.0000
  H   H3793     1.0  0.87640  0.75703  0.47600  1.0000
  C   C2146     1.0  0.94584  0.48779  0.25921  1.0000
  H   H3794     1.0  0.74511  0.89775  0.47718  1.0000
  C   C2147     1.0  0.89418  0.60980  0.30395  1.0000
  H   H3795     1.0  0.66458  0.91807  0.36841  1.0000
  H   H3796     1.0  0.92271  0.51479  0.28112  1.0000
  H   H3797     1.0  0.98297  0.75376  0.44662  1.0000
  H   H3798     1.0  0.84525  0.76717  0.46107  1.0000
  H   H3799     1.0  0.87988  0.60921  0.29842  1.0000
  H   H3800     1.0  0.98205  0.54128  0.36336  1.0000
  H   H3801     1.0  0.98026  0.57926  0.27280  1.0000
  H   H3802     1.0  0.77180  0.93827  0.48109  1.0000
  H   H3803     1.0  0.89033  0.77403  0.46034  1.0000
  C   C2148     1.0  0.89728  0.48183  0.32577  1.0000
  H   H3804     1.0  0.72283  0.96748  0.36809  1.0000
  C   C2149     1.0  0.90969  0.50377  0.26089  1.0000
  H   H3805     1.0  0.85616  0.82535  0.41675  1.0000
  C   C2150     1.0  0.85708  0.77763  0.45892  1.0000
  H   H3806     1.0  0.98144  0.75031  0.47425  1.0000
  C   C2151     1.0  0.97579  0.57373  0.36618  1.0000
  H   H3807     1.0  0.96731  0.60500  0.26787  1.0000
  H   H3808     1.0  0.97350  0.61439  0.36738  1.0000
  C   C2152     1.0  0.76110  0.83887  0.48252  1.0000
  H   H3809     1.0  0.68901  0.96323  0.28627  1.0000
  H   H3810     1.0  0.86449  0.94521  0.40255  1.0000
  H   H3811     1.0  0.79911  0.81084  0.47692  1.0000
  H   H3812     1.0  0.81730  0.83900  0.47562  1.0000
  H   H3813     1.0  0.96217  0.66875  0.48158  1.0000
  H   H3814     1.0  0.98371  0.74080  0.42876  1.0000
  C   C2153     1.0  0.85209  0.95153  0.41203  1.0000
  H   H3815     1.0  0.98743  0.64716  0.38749  1.0000
  H   H3816     1.0  0.98500  0.60615  0.23799  1.0000
  H   H3817     1.0  0.94819  0.48034  0.34868  1.0000
  H   H3818     1.0  0.97852  0.66283  0.44430  1.0000
  H   H3819     1.0  0.83768  0.95524  0.40595  1.0000
  H   H3820     1.0  0.79931  0.97337  0.47377  1.0000
  C   C2154     1.0  0.92223  0.48017  0.23987  1.0000
  H   H3821     1.0  0.90149  0.72333  0.48516  1.0000
  C   C2155     1.0  0.98747  0.70235  0.44403  1.0000
  C   C2156     1.0  0.89512  0.96798  0.38915  1.0000
  H   H3822     1.0  0.84278  0.97621  0.42692  1.0000
  C   C2157     1.0  0.75958  0.97737  0.47033  1.0000
  H   H3823     1.0  0.88633  0.96752  0.37848  1.0000
  S   S473      1.0  0.98742  0.69574  0.39442  1.0000
  H   H3824     1.0  0.98639  0.59700  0.30875  1.0000
  H   H3825     1.0  0.85306  0.97595  0.38447  1.0000
  H   H3826     1.0  0.67894  0.97867  0.36093  1.0000
  H   H3827     1.0  0.98778  0.74040  0.38934  1.0000
  H   H3828     1.0  0.73059  0.97876  0.44774  1.0000
  C   C2158     1.0  0.71429  0.97876  0.37658  1.0000
  Fe  Fe237     1.0  0.77206  0.89065  0.55413  1.0000
  S   S474      1.0  0.74546  0.87342  0.55357  1.0000
  S   S475      1.0  0.76191  0.92517  0.55220  1.0000
  Fe  Fe238     1.0  0.80229  0.85061  0.56087  1.0000
  S   S476      1.0  0.77740  0.83122  0.56175  1.0000
  S   S477      1.0  0.83514  0.83650  0.56597  1.0000
  Fe  Fe239     1.0  0.76901  0.85238  0.53840  1.0000
  S   S478      1.0  0.76619  0.83596  0.51612  1.0000
  Fe  Fe240     1.0  0.75630  0.85416  0.57686  1.0000
  S   S479      1.0  0.73685  0.84661  0.60246  1.0000
  S   S480      1.0  0.79474  0.87115  0.53695  1.0000
  S   S481      1.0  0.78204  0.87206  0.57799  1.0000
  H   H3829     1.0  0.82963  0.94959  0.54590  1.0000
  H   H3830     1.0  0.79255  0.78866  0.55198  1.0000
  Fe  Fe241     1.0  0.95974  0.72578  0.56048  1.0000
  S   S482      1.0  0.96512  0.69173  0.55997  1.0000
  Fe  Fe242     1.0  0.91383  0.73037  0.55551  1.0000
  S   S483      1.0  0.91619  0.69637  0.55453  1.0000
  S   S484      1.0  0.88234  0.74836  0.54983  1.0000
  Fe  Fe243     1.0  0.93457  0.69162  0.57662  1.0000
  S   S485      1.0  0.92631  0.66808  0.59946  1.0000
  Fe  Fe244     1.0  0.94642  0.69886  0.53797  1.0000
  S   S486      1.0  0.95786  0.68286  0.51440  1.0000
  S   S487      1.0  0.93019  0.72564  0.57892  1.0000
  S   S488      1.0  0.94300  0.73292  0.53727  1.0000
  Fe  Fe245     1.0  0.95663  0.54955  0.63956  1.0000
  S   S489      1.0  0.96643  0.54713  0.66563  1.0000
  S   S490      1.0  0.96662  0.57472  0.61859  1.0000
  Fe  Fe246     1.0  0.93945  0.50826  0.64847  1.0000
  S   S491      1.0  0.94771  0.50319  0.67507  1.0000
  H   H3831     1.0  0.67538  0.86762  0.70461  1.0000
  Fe  Fe247     1.0  0.93601  0.53656  0.67560  1.0000
  S   S492      1.0  0.91436  0.54884  0.69750  1.0000
  Fe  Fe248     1.0  0.97738  0.51390  0.66280  1.0000
  S   S493      1.0  0.92496  0.54119  0.64976  1.0000
  S   S494      1.0  0.97021  0.51669  0.63604  1.0000
  C   C2159     1.0  0.91086  0.63778  0.48962  1.0000
  H   H3832     1.0  0.66020  0.78858  0.66364  1.0000
  H   H3833     1.0  0.75114  0.97667  0.57903  1.0000
  H   H3834     1.0  0.75098  0.95960  0.50347  1.0000
  C   C2160     1.0  0.76735  0.96180  0.49877  1.0000
  H   H3835     1.0  0.68812  0.90498  0.66538  1.0000
  C   C2161     1.0  0.76712  0.91917  0.60622  1.0000
  C   C2162     1.0  0.92677  0.70635  0.49783  1.0000
  H   H3836     1.0  0.80704  0.92239  0.54919  1.0000
  H   H3837     1.0  0.92251  0.71408  0.50912  1.0000
  C   C2163     1.0  0.75518  0.87107  0.49434  1.0000
  C   C2164     1.0  0.93773  0.64210  0.60441  1.0000
  C   C2165     1.0  0.92896  0.63018  0.61884  1.0000
  C   C2166     1.0  0.93746  0.60955  0.62332  1.0000
  C   C2167     1.0  0.95495  0.60057  0.61343  1.0000
  C   C2168     1.0  0.96377  0.61250  0.59902  1.0000
  C   C2169     1.0  0.95524  0.63311  0.59451  1.0000
  H   H3838     1.0  0.91544  0.63695  0.62660  1.0000
  H   H3839     1.0  0.93048  0.60063  0.63443  1.0000
  H   H3840     1.0  0.78454  0.90890  0.50055  1.0000
  H   H3841     1.0  0.96225  0.64208  0.58346  1.0000
  C   C2170     1.0  0.84897  0.81279  0.56001  1.0000
  C   C2171     1.0  0.86825  0.80531  0.56581  1.0000
  C   C2172     1.0  0.87910  0.78595  0.56234  1.0000
  C   C2173     1.0  0.87074  0.77381  0.55300  1.0000
  C   C2174     1.0  0.85176  0.78155  0.54678  1.0000
  C   C2175     1.0  0.84090  0.80086  0.55029  1.0000
  H   H3842     1.0  0.87471  0.81443  0.57328  1.0000
  H   H3843     1.0  0.89371  0.78027  0.56717  1.0000
  H   H3844     1.0  0.84518  0.77234  0.53950  1.0000
  H   H3845     1.0  0.82612  0.80635  0.54574  1.0000
  C   C2176     1.0  0.76055  0.84974  0.49640  1.0000
  C   C2177     1.0  0.67781  0.90281  0.65621  1.0000
  H   H3846     1.0  0.69551  0.90185  0.61205  1.0000
  H   H3847     1.0  0.92797  0.63570  0.48921  1.0000
  H   H3848     1.0  0.75455  0.87955  0.50502  1.0000
  C   C2178     1.0  0.70962  0.85412  0.60574  1.0000
  C   C2179     1.0  0.69798  0.85941  0.59210  1.0000
  C   C2180     1.0  0.67630  0.86453  0.59516  1.0000
  C   C2181     1.0  0.66600  0.86466  0.61183  1.0000
  C   C2182     1.0  0.67765  0.85978  0.62551  1.0000
  C   C2183     1.0  0.69935  0.85438  0.62246  1.0000
  H   H3849     1.0  0.70565  0.85924  0.57919  1.0000
  H   H3850     1.0  0.66745  0.86840  0.58449  1.0000
  H   H3851     1.0  0.66995  0.86029  0.63836  1.0000
  H   H3852     1.0  0.70830  0.85057  0.63304  1.0000
  C   C2184     1.0  0.78813  0.77486  0.56039  1.0000
  H   H3853     1.0  0.79603  0.82183  0.59512  1.0000
  C   C2185     1.0  0.77015  0.96446  0.54905  1.0000
  C   C2186     1.0  0.77876  0.94370  0.54980  1.0000
  C   C2187     1.0  0.80025  0.93836  0.54867  1.0000
  C   C2188     1.0  0.81299  0.95379  0.54681  1.0000
  C   C2189     1.0  0.69281  0.91224  0.60020  1.0000
  H   H3854     1.0  0.88444  0.65979  0.49727  1.0000
  H   H3855     1.0  0.80223  0.96198  0.61017  1.0000
  H   H3856     1.0  0.75450  0.94343  0.58848  1.0000
  C   C2190     1.0  0.68204  0.93388  0.60411  1.0000
  H   H3857     1.0  0.98035  0.58681  0.67284  1.0000
  H   H3858     1.0  0.83959  0.80876  0.50271  1.0000
  H   H3859     1.0  0.82074  0.83316  0.52206  1.0000
  H   H3860     1.0  0.90552  0.62293  0.49480  1.0000
  C   C2191     1.0  0.86315  0.61780  0.55065  1.0000
  H   H3861     1.0  0.82244  0.84025  0.60313  1.0000
  H   H3862     1.0  0.68116  0.94337  0.59153  1.0000
  H   H3863     1.0  0.98503  0.56281  0.73270  1.0000
  C   C2192     1.0  0.67667  0.92113  0.64234  1.0000
  H   H3864     1.0  0.74621  0.95491  0.61757  1.0000
  H   H3865     1.0  0.81050  0.84967  0.50449  1.0000
  H   H3866     1.0  0.67875  0.86818  0.68179  1.0000
  H   H3867     1.0  0.94833  0.59576  0.70419  1.0000
  H   H3868     1.0  0.68327  0.90528  0.59297  1.0000
  C   C2193     1.0  0.86887  0.52873  0.72866  1.0000
  H   H3869     1.0  0.97731  0.60573  0.59129  1.0000
  C   C2194     1.0  0.90056  0.65521  0.50045  1.0000
  H   H3870     1.0  0.68419  0.88848  0.65052  1.0000
  C   C2195     1.0  0.90738  0.49503  0.73149  1.0000
  H   H3871     1.0  0.77280  0.95200  0.61963  1.0000
  C   C2196     1.0  0.97641  0.59186  0.68580  1.0000
  N   N122      1.0  0.81509  0.77880  0.60037  1.0000
  C   C2197     1.0  0.83506  0.76519  0.59529  1.0000
  C   C2198     1.0  0.80264  0.78440  0.58549  1.0000
  C   C2199     1.0  0.82072  0.79835  0.60484  1.0000
  C   C2200     1.0  0.80254  0.76918  0.61589  1.0000
  C   C2201     1.0  0.79638  0.74801  0.61481  1.0000
  C   C2202     1.0  0.85014  0.75892  0.60889  1.0000
  C   C2203     1.0  0.80263  0.81630  0.60721  1.0000
  C   C2204     1.0  0.80323  0.76778  0.57355  1.0000
  C   C2205     1.0  0.78740  0.73840  0.63229  1.0000
  C   C2206     1.0  0.86914  0.74436  0.60236  1.0000
  C   C2207     1.0  0.81006  0.83458  0.61277  1.0000
  H   H3872     1.0  0.84368  0.77296  0.58384  1.0000
  H   H3873     1.0  0.83217  0.75077  0.59127  1.0000
  H   H3874     1.0  0.78613  0.78986  0.59003  1.0000
  H   H3875     1.0  0.80834  0.79758  0.57688  1.0000
  H   H3876     1.0  0.83267  0.80431  0.59486  1.0000
  H   H3877     1.0  0.82794  0.79534  0.61684  1.0000
  H   H3878     1.0  0.81074  0.76787  0.62728  1.0000
  H   H3879     1.0  0.78771  0.77931  0.61898  1.0000
  H   H3880     1.0  0.80972  0.73703  0.61007  1.0000
  H   H3881     1.0  0.78407  0.74989  0.60641  1.0000
  H   H3882     1.0  0.85586  0.77254  0.61201  1.0000
  H   H3883     1.0  0.84254  0.75093  0.62070  1.0000
  H   H3884     1.0  0.78998  0.81168  0.61701  1.0000
  H   H3885     1.0  0.81891  0.76470  0.56639  1.0000
  H   H3886     1.0  0.79945  0.75307  0.58057  1.0000
  H   H3887     1.0  0.79922  0.73547  0.64125  1.0000
  H   H3888     1.0  0.77365  0.74861  0.63761  1.0000
  H   H3889     1.0  0.78253  0.72352  0.63109  1.0000
  H   H3890     1.0  0.86455  0.73007  0.59940  1.0000
  H   H3891     1.0  0.87765  0.75180  0.59068  1.0000
  H   H3892     1.0  0.87984  0.74017  0.61220  1.0000
  H   H3893     1.0  0.79534  0.94249  0.48799  1.0000
  N   N123      1.0  0.90054  0.65045  0.51954  1.0000
  C   C2208     1.0  0.89534  0.67053  0.52697  1.0000
  C   C2209     1.0  0.92198  0.64020  0.52304  1.0000
  C   C2210     1.0  0.77722  0.92326  0.50587  1.0000
  C   C2211     1.0  0.88450  0.63647  0.52612  1.0000
  C   C2212     1.0  0.88175  0.62937  0.54550  1.0000
  C   C2213     1.0  0.87501  0.68431  0.52258  1.0000
  C   C2214     1.0  0.94518  0.48122  0.72271  1.0000
  C   C2215     1.0  0.92884  0.64255  0.54037  1.0000
  C   C2216     1.0  0.94876  0.62812  0.54360  1.0000
  H   H3894     1.0  0.98132  0.74429  0.50550  1.0000
  C   C2217     1.0  0.87153  0.70395  0.53106  1.0000
  H   H3895     1.0  0.90817  0.67979  0.52264  1.0000
  H   H3896     1.0  0.89438  0.66809  0.54104  1.0000
  H   H3897     1.0  0.92388  0.62356  0.52167  1.0000
  H   H3898     1.0  0.93395  0.64674  0.51338  1.0000
  H   H3899     1.0  0.66370  0.83436  0.70878  1.0000
  H   H3900     1.0  0.77445  0.96319  0.51028  1.0000
  H   H3901     1.0  0.86913  0.64366  0.52239  1.0000
  H   H3902     1.0  0.88822  0.62217  0.51997  1.0000
  H   H3903     1.0  0.87919  0.64243  0.55308  1.0000
  H   H3904     1.0  0.89560  0.61858  0.54899  1.0000
  H   H3905     1.0  0.89156  0.57370  0.72106  1.0000
  H   H3906     1.0  0.86142  0.67621  0.52705  1.0000
  H   H3907     1.0  0.75231  0.91721  0.61446  1.0000
  H   H3908     1.0  0.94793  0.53105  0.71873  1.0000
  H   H3909     1.0  0.93209  0.65840  0.54018  1.0000
  H   H3910     1.0  0.91701  0.63966  0.55138  1.0000
  H   H3911     1.0  0.94626  0.61187  0.54461  1.0000
  H   H3912     1.0  0.96141  0.63117  0.53316  1.0000
  H   H3913     1.0  0.95358  0.63067  0.55577  1.0000
  S   S495      1.0  0.65634  0.97524  0.68857  1.0000
  H   H3914     1.0  0.77205  0.77845  0.56674  1.0000
  H   H3915     1.0  0.86504  0.60417  0.54372  1.0000
  C   C2218     1.0  0.97870  0.73196  0.49843  1.0000
  H   H3916     1.0  0.87563  0.68910  0.50866  1.0000
  C   C2219     1.0  0.77867  0.94159  0.49206  1.0000
  H   H3917     1.0  0.93891  0.61385  0.67660  1.0000
  H   H3918     1.0  0.98139  0.60631  0.71263  1.0000
  H   H3919     1.0  0.84786  0.52650  0.71057  1.0000
  H   H3920     1.0  0.94677  0.49552  0.71389  1.0000
  H   H3921     1.0  0.86847  0.49709  0.72650  1.0000
  N   N124      1.0  0.66083  0.93483  0.61438  1.0000
  H   H3922     1.0  0.65656  0.93216  0.68538  1.0000
  H   H3923     1.0  0.81206  0.81253  0.50202  1.0000
  H   H3924     1.0  0.69272  0.94082  0.61037  1.0000
  H   H3925     1.0  0.67529  0.76679  0.69710  1.0000
  C   C2220     1.0  0.68852  0.80144  0.67652  1.0000
  C   C2221     1.0  0.69976  0.81215  0.66010  1.0000
  C   C2222     1.0  0.67153  0.83925  0.69590  1.0000
  H   H3926     1.0  0.87021  0.70037  0.54515  1.0000
  H   H3927     1.0  0.83811  0.84554  0.50581  1.0000
  C   C2223     1.0  0.72315  0.80527  0.65863  1.0000
  H   H3928     1.0  0.66633  0.95990  0.62674  1.0000
  C   C2224     1.0  0.82634  0.81977  0.49836  1.0000
  C   C2225     1.0  0.84885  0.53595  0.72070  1.0000
  H   H3929     1.0  0.90867  0.66866  0.49549  1.0000
  H   H3930     1.0  0.88960  0.47908  0.67128  1.0000
  H   H3931     1.0  0.97545  0.60881  0.68388  1.0000
  H   H3932     1.0  0.96172  0.73237  0.49889  1.0000
  H   H3933     1.0  0.69707  0.80230  0.68732  1.0000
  H   H3934     1.0  0.69093  0.78488  0.67490  1.0000
  H   H3935     1.0  0.69725  0.82903  0.65979  1.0000
  H   H3936     1.0  0.69447  0.80791  0.64873  1.0000
  H   H3937     1.0  0.85700  0.71364  0.52770  1.0000
  H   H3938     1.0  0.68825  0.83320  0.69533  1.0000
  H   H3939     1.0  0.95284  0.57147  0.69568  1.0000
  C   C2226     1.0  0.66949  0.86263  0.69380  1.0000
  C   C2227     1.0  0.91947  0.55213  0.71788  1.0000
  H   H3940     1.0  0.92325  0.59393  0.68476  1.0000
  C   C2228     1.0  0.93917  0.59700  0.67956  1.0000
  H   H3941     1.0  0.73068  0.81284  0.64653  1.0000
  H   H3942     1.0  0.72966  0.80968  0.66938  1.0000
  H   H3943     1.0  0.72677  0.78840  0.65854  1.0000
  H   H3944     1.0  0.90425  0.48625  0.72157  1.0000
  H   H3945     1.0  0.81606  0.83026  0.62524  1.0000
  H   H3946     1.0  0.83504  0.97441  0.59794  1.0000
  H   H3947     1.0  0.84860  0.62797  0.54794  1.0000
  S   S496      1.0  0.98551  0.74466  0.56054  1.0000
  H   H3948     1.0  0.88452  0.71295  0.52663  1.0000
  C   C2229     1.0  0.76654  0.94105  0.59719  1.0000
  N   N125      1.0  0.66574  0.80895  0.68083  1.0000
  H   H3949     1.0  0.79693  0.84725  0.61405  1.0000
  H   H3950     1.0  0.98045  0.55372  0.70478  1.0000
  H   H3951     1.0  0.69251  0.92157  0.63555  1.0000
  H   H3952     1.0  0.90990  0.51031  0.72459  1.0000
  H   H3953     1.0  0.71205  0.92236  0.57680  1.0000
  H   H3954     1.0  0.90159  0.49396  0.68300  1.0000
  C   C2230     1.0  0.95399  0.58801  0.69265  1.0000
  C   C2231     1.0  0.71386  0.91325  0.58940  1.0000
  C   C2232     1.0  0.93646  0.54132  0.72569  1.0000
  C   C2233     1.0  0.82382  0.83822  0.50820  1.0000
  H   H3955     1.0  0.84866  0.55215  0.71483  1.0000
  H   H3956     1.0  0.76951  0.90834  0.59655  1.0000
  H   H3957     1.0  0.86184  0.61247  0.56454  1.0000
  H   H3958     1.0  0.72144  0.89751  0.58722  1.0000
  H   H3959     1.0  0.78858  0.76253  0.55230  1.0000
  H   H3960     1.0  0.75353  0.96861  0.54979  1.0000
  C   C2234     1.0  0.97609  0.57781  0.72851  1.0000
  H   H3961     1.0  0.66615  0.84074  0.66971  1.0000
  C   C2235     1.0  0.76166  0.95688  0.61024  1.0000
  C   C2236     1.0  0.90471  0.56535  0.72695  1.0000
  H   H3962     1.0  0.72415  0.92019  0.59598  1.0000
  H   H3963     1.0  0.76080  0.92177  0.51078  1.0000
  H   H3964     1.0  0.66800  0.80065  0.70787  1.0000
  C   C2237     1.0  0.94368  0.69072  0.49701  1.0000
  H   H3965     1.0  0.66324  0.90356  0.62683  1.0000
  H   H3966     1.0  0.78011  0.91526  0.61405  1.0000
  H   H3967     1.0  0.66586  0.97452  0.59597  1.0000
  H   H3968     1.0  0.94378  0.58987  0.66758  1.0000
  H   H3969     1.0  0.78182  0.94206  0.58944  1.0000
  H   H3970     1.0  0.67186  0.93523  0.64871  1.0000
  H   H3971     1.0  0.75405  0.97217  0.64083  1.0000
  C   C2238     1.0  0.65855  0.79816  0.69813  1.0000
  H   H3972     1.0  0.98525  0.71696  0.50494  1.0000
  H   H3973     1.0  0.96169  0.57465  0.72458  1.0000
  H   H3974     1.0  0.78565  0.97434  0.58165  1.0000
  C   C2239     1.0  0.66148  0.83171  0.68203  1.0000
  C   C2240     1.0  0.66087  0.91949  0.63021  1.0000
  C   C2241     1.0  0.65912  0.77459  0.69940  1.0000
  S   S497      1.0  0.92337  0.48396  0.64110  1.0000
  H   H3975     1.0  0.66434  0.82496  0.64588  1.0000
  C   C2242     1.0  0.89479  0.47960  0.68379  1.0000
  H   H3976     1.0  0.78547  0.92496  0.51660  1.0000
  H   H3977     1.0  0.65860  0.76938  0.72704  1.0000
  H   H3978     1.0  0.88184  0.53055  0.71838  1.0000
  H   H3979     1.0  0.83515  0.53507  0.73054  1.0000
  H   H3980     1.0  0.66222  0.90127  0.66325  1.0000
  C   C2243     1.0  0.80433  0.97456  0.54628  1.0000
  H   H3981     1.0  0.82324  0.96564  0.58192  1.0000
  H   H3982     1.0  0.98555  0.65316  0.54430  1.0000
  H   H3983     1.0  0.88120  0.47999  0.69381  1.0000
  C   C2244     1.0  0.80146  0.97740  0.60279  1.0000
  C   C2245     1.0  0.82160  0.97758  0.59060  1.0000
  H   H3984     1.0  0.73111  0.97812  0.59642  1.0000
  H   H3985     1.0  0.77948  0.97855  0.63357  1.0000
  Fe  Fe249     1.0  0.75317  0.56357  0.90187  1.0000
  S   S498      1.0  0.78499  0.57233  0.90024  1.0000
  S   S499      1.0  0.72629  0.58488  0.89082  1.0000
  Fe  Fe250     1.0  0.76693  0.51987  0.91857  1.0000
  S   S500      1.0  0.79968  0.52534  0.91858  1.0000
  H   H3986     1.0  0.69198  0.69338  0.95498  1.0000
  Fe  Fe251     1.0  0.78487  0.55578  0.92683  1.0000
  S   S501      1.0  0.79539  0.56960  0.94760  1.0000
  Fe  Fe252     1.0  0.79741  0.54122  0.89201  1.0000
  S   S502      1.0  0.82077  0.53505  0.86859  1.0000
  S   S503      1.0  0.75227  0.54921  0.92899  1.0000
  S   S504      1.0  0.76549  0.53356  0.89140  1.0000
  Fe  Fe253     1.0  0.97900  0.55328  0.81114  1.0000
  S   S505      1.0  0.97668  0.53335  0.79125  1.0000
  H   H3987     1.0  0.88176  0.54600  0.77473  1.0000
  Fe  Fe254     1.0  0.93785  0.54291  0.83258  1.0000
  S   S506      1.0  0.93277  0.52259  0.81418  1.0000
  S   S507      1.0  0.91622  0.54558  0.85741  1.0000
  Fe  Fe255     1.0  0.96672  0.51131  0.81386  1.0000
  H   H3988     1.0  0.83989  0.67015  0.85714  1.0000
  Fe  Fe256     1.0  0.94308  0.54672  0.79354  1.0000
  S   S508      1.0  0.92296  0.56053  0.77315  1.0000
  S   S509      1.0  0.97152  0.53014  0.83357  1.0000
  S   S510      1.0  0.94569  0.56825  0.81205  1.0000
  C   C2246     1.0  0.83561  0.58920  0.90433  1.0000
  C   C2247     1.0  0.84499  0.59409  0.88581  1.0000
  C   C2248     1.0  0.68933  0.48692  0.93182  1.0000
  C   C2249     1.0  0.92306  0.55686  0.75174  1.0000
  H   H3989     1.0  0.68319  0.66274  0.97412  1.0000
  H   H3990     1.0  0.66619  0.63949  0.89230  1.0000
  C   C2250     1.0  0.93815  0.54353  0.74278  1.0000
  H   H3991     1.0  0.69072  0.54662  0.96496  1.0000
  H   H3992     1.0  0.75412  0.48833  0.89626  1.0000
  H   H3993     1.0  0.81561  0.66431  0.85278  1.0000
  H   H3994     1.0  0.84743  0.49252  0.87971  1.0000
  C   C2251     1.0  0.67725  0.62973  0.89972  1.0000
  C   C2252     1.0  0.84765  0.53649  0.86611  1.0000
  C   C2253     1.0  0.85930  0.53468  0.85004  1.0000
  C   C2254     1.0  0.88045  0.53691  0.84725  1.0000
  C   C2255     1.0  0.89016  0.54098  0.86055  1.0000
  C   C2256     1.0  0.87866  0.54220  0.87672  1.0000
  C   C2257     1.0  0.85750  0.53996  0.87951  1.0000
  H   H3995     1.0  0.85181  0.53193  0.83960  1.0000
  H   H3996     1.0  0.88910  0.53600  0.83472  1.0000
  H   H3997     1.0  0.88607  0.54527  0.88710  1.0000
  H   H3998     1.0  0.84876  0.54122  0.89197  1.0000
  H   H3999     1.0  0.87556  0.49138  0.85569  1.0000
  H   H4000     1.0  0.84723  0.58960  0.91296  1.0000
  C   C2258     1.0  0.70729  0.60269  0.90131  1.0000
  C   C2259     1.0  0.70625  0.60425  0.91868  1.0000
  C   C2260     1.0  0.69071  0.61837  0.92652  1.0000
  H   H4001     1.0  0.77449  0.57814  0.84231  1.0000
  H   H4002     1.0  0.71741  0.59458  0.92603  1.0000
  H   H4003     1.0  0.88423  0.49527  0.87518  1.0000
  H   H4004     1.0  0.86939  0.53916  0.73817  1.0000
  C   C2261     1.0  0.89712  0.48263  0.81216  1.0000
  H   H4005     1.0  0.89589  0.59762  0.81401  1.0000
  C   C2262     1.0  0.97008  0.58936  0.74409  1.0000
  C   C2263     1.0  0.95685  0.49703  0.87118  1.0000
  H   H4006     1.0  0.71994  0.62342  0.98178  1.0000
  C   C2264     1.0  0.66338  0.55173  0.90734  1.0000
  H   H4007     1.0  0.82658  0.59482  0.83063  1.0000
  H   H4008     1.0  0.86796  0.53331  0.79331  1.0000
  H   H4009     1.0  0.85886  0.58247  0.88347  1.0000
  H   H4010     1.0  0.83109  0.57237  0.84531  1.0000
  C   C2265     1.0  0.67620  0.63129  0.91709  1.0000
  C   C2266     1.0  0.86668  0.59968  0.83072  1.0000
  C   C2267     1.0  0.83865  0.63759  0.85840  1.0000
  H   H4011     1.0  0.71351  0.53895  0.85824  1.0000
  H   H4012     1.0  0.81414  0.60210  0.87807  1.0000
  H   H4013     1.0  0.79659  0.58326  0.86280  1.0000
  H   H4014     1.0  0.79726  0.49130  0.97330  1.0000
  H   H4015     1.0  0.79243  0.60576  0.84765  1.0000
  H   H4016     1.0  0.89524  0.52508  0.78777  1.0000
  C   C2268     1.0  0.82924  0.59331  0.87334  1.0000
  C   C2269     1.0  0.88042  0.53095  0.78252  1.0000
  H   H4017     1.0  0.95094  0.53499  0.74899  1.0000
  C   C2270     1.0  0.87516  0.51583  0.77173  1.0000
  H   H4018     1.0  0.87221  0.50171  0.78036  1.0000
  S   S511      1.0  0.75637  0.49023  0.93206  1.0000
  C   C2271     1.0  0.73901  0.60309  0.95509  1.0000
  C   C2272     1.0  0.82428  0.58887  0.84440  1.0000
  H   H4019     1.0  0.74953  0.61380  0.94809  1.0000
  H   H4020     1.0  0.65755  0.95841  0.73890  1.0000
  H   H4021     1.0  0.77421  0.53445  0.95874  1.0000
  H   H4022     1.0  0.83013  0.62717  0.83625  1.0000
  C   C2273     1.0  0.77808  0.53981  0.96982  1.0000
  C   C2274     1.0  0.80047  0.58979  0.84938  1.0000
  H   H4023     1.0  0.82184  0.60060  0.90762  1.0000
  H   H4024     1.0  0.85996  0.59118  0.82247  1.0000
  H   H4025     1.0  0.86321  0.61637  0.82658  1.0000
  H   H4026     1.0  0.79859  0.56107  0.83997  1.0000
  C   C2275     1.0  0.74222  0.59871  0.97387  1.0000
  H   H4027     1.0  0.86736  0.60166  0.85720  1.0000
  H   H4028     1.0  0.90588  0.49483  0.83974  1.0000
  H   H4029     1.0  0.93384  0.49595  0.74495  1.0000
  C   C2276     1.0  0.70650  0.52812  0.88508  1.0000
  C   C2277     1.0  0.89314  0.51079  0.75743  1.0000
  C   C2278     1.0  0.82824  0.62285  0.85030  1.0000
  H   H4030     1.0  0.83320  0.63671  0.87224  1.0000
  H   H4031     1.0  0.71638  0.49667  0.91615  1.0000
  H   H4032     1.0  0.72951  0.54689  0.87172  1.0000
  C   C2279     1.0  0.69264  0.61544  0.89192  1.0000
  H   H4033     1.0  0.69327  0.61436  0.87849  1.0000
  C   C2280     1.0  0.67707  0.68781  0.95472  1.0000
  H   H4034     1.0  0.83097  0.57362  0.90657  1.0000
  C   C2281     1.0  0.92842  0.48531  0.73768  1.0000
  H   H4035     1.0  0.72272  0.60977  0.95367  1.0000
  H   H4036     1.0  0.79406  0.58374  0.82471  1.0000
  C   C2282     1.0  0.71357  0.54426  0.87076  1.0000
  H   H4037     1.0  0.66148  0.52780  0.92892  1.0000
  H   H4038     1.0  0.69001  0.61942  0.93994  1.0000
  H   H4039     1.0  0.83829  0.66192  0.83695  1.0000
  C   C2283     1.0  0.85825  0.59446  0.84976  1.0000
  C   C2284     1.0  0.89018  0.59364  0.82767  1.0000
  H   H4040     1.0  0.91066  0.48937  0.80505  1.0000
  C   C2285     1.0  0.79144  0.57743  0.83836  1.0000
  H   H4041     1.0  0.89491  0.57816  0.75041  1.0000
  H   H4042     1.0  0.86063  0.52280  0.76648  1.0000
  H   H4043     1.0  0.74268  0.58856  0.94925  1.0000
  H   H4044     1.0  0.66505  0.51915  0.90872  1.0000
  H   H4045     1.0  0.86261  0.57769  0.85318  1.0000
  H   H4046     1.0  0.82670  0.57695  0.87521  1.0000
  C   C2286     1.0  0.78899  0.55647  0.96793  1.0000
  H   H4047     1.0  0.85577  0.63416  0.85634  1.0000
  C   C2287     1.0  0.83269  0.65983  0.85081  1.0000
  C   C2288     1.0  0.69518  0.55115  0.93717  1.0000
  H   H4048     1.0  0.91637  0.49748  0.86588  1.0000
  H   H4049     1.0  0.97294  0.49946  0.86595  1.0000
  H   H4050     1.0  0.90665  0.50357  0.76408  1.0000
  H   H4051     1.0  0.85035  0.60917  0.88441  1.0000
  H   H4052     1.0  0.89446  0.57685  0.83099  1.0000
  H   H4053     1.0  0.81136  0.62664  0.85439  1.0000
  H   H4054     1.0  0.89806  0.60183  0.83539  1.0000
  N   N126      1.0  0.83523  0.60021  0.85461  1.0000
  C   C2289     1.0  0.79427  0.56301  0.98242  1.0000
  C   C2290     1.0  0.70135  0.55352  0.95441  1.0000
  H   H4055     1.0  0.68908  0.52052  0.94497  1.0000
  H   H4056     1.0  0.71509  0.52202  0.93556  1.0000
  H   H4057     1.0  0.96157  0.57984  0.75451  1.0000
  H   H4058     1.0  0.67858  0.55760  0.93749  1.0000
  H   H4059     1.0  0.98406  0.59269  0.74877  1.0000
  C   C2291     1.0  0.87909  0.48395  0.86845  1.0000
  H   H4060     1.0  0.66829  0.55279  0.89340  1.0000
  H   H4061     1.0  0.95976  0.60394  0.74098  1.0000
  H   H4062     1.0  0.74495  0.63055  0.97461  1.0000
  H   H4063     1.0  0.95500  0.49351  0.78932  1.0000
  H   H4064     1.0  0.70044  0.57006  0.95556  1.0000
  H   H4065     1.0  0.75859  0.59186  0.97426  1.0000
  H   H4066     1.0  0.71713  0.51352  0.88362  1.0000
  H   H4067     1.0  0.88487  0.49523  0.81605  1.0000
  H   H4068     1.0  0.71744  0.54602  0.95568  1.0000
  N   N127      1.0  0.88906  0.49712  0.74520  1.0000
  H   H4069     1.0  0.94736  0.51225  0.87246  1.0000
  C   C2292     1.0  0.67068  0.67559  0.97185  1.0000
  H   H4070     1.0  0.89775  0.52536  0.75044  1.0000
  H   H4071     1.0  0.69411  0.59552  0.97839  1.0000
  H   H4072     1.0  0.73202  0.58730  0.97992  1.0000
  H   H4073     1.0  0.66517  0.70130  0.95203  1.0000
  C   C2293     1.0  0.70689  0.53448  0.90297  1.0000
  H   H4074     1.0  0.94840  0.49514  0.84665  1.0000
  C   C2294     1.0  0.69860  0.52836  0.93411  1.0000
  H   H4075     1.0  0.69678  0.48692  0.94341  1.0000
  C   C2295     1.0  0.90658  0.56783  0.74363  1.0000
  H   H4076     1.0  0.70452  0.56034  0.92720  1.0000
  H   H4077     1.0  0.67246  0.49205  0.93466  1.0000
  H   H4078     1.0  0.80289  0.57578  0.98098  1.0000
  H   H4079     1.0  0.72331  0.53139  0.90551  1.0000
  H   H4080     1.0  0.85565  0.50473  0.74603  1.0000
  H   H4081     1.0  0.68096  0.63173  0.97043  1.0000
  N   N128      1.0  0.69348  0.52386  0.91736  1.0000
  H   H4082     1.0  0.66748  0.96069  0.75776  1.0000
  H   H4083     1.0  0.70293  0.55136  0.90221  1.0000
  H   H4084     1.0  0.66994  0.56376  0.91208  1.0000
  H   H4085     1.0  0.66193  0.92624  0.77274  1.0000
  H   H4086     1.0  0.69511  0.49665  0.90492  1.0000
  C   C2296     1.0  0.73669  0.61850  0.98267  1.0000
  H   H4087     1.0  0.69078  0.52560  0.88334  1.0000
  H   H4088     1.0  0.70298  0.55901  0.87134  1.0000
  H   H4089     1.0  0.66959  0.68581  0.98187  1.0000
  C   C2297     1.0  0.67056  0.52977  0.91604  1.0000
  C   C2298     1.0  0.69928  0.50102  0.91675  1.0000
  H   H4090     1.0  0.79167  0.48075  0.95530  1.0000
  H   H4091     1.0  0.67908  0.67805  0.94427  1.0000
  C   C2299     1.0  0.86993  0.50605  0.73684  1.0000
  S   S512      1.0  0.65700  0.64874  0.92778  1.0000
  C   C2300     1.0  0.67717  0.60073  0.97964  1.0000
  C   C2301     1.0  0.94815  0.48563  0.85922  1.0000
  H   H4092     1.0  0.95718  0.48800  0.88396  1.0000
  H   H4093     1.0  0.67128  0.59802  0.96796  1.0000
  C   C2302     1.0  0.67279  0.62352  0.98184  1.0000
  H   H4094     1.0  0.92952  0.48075  0.83200  1.0000
  C   C2303     1.0  0.92563  0.48192  0.86618  1.0000
  H   H4095     1.0  0.76260  0.47965  0.97851  1.0000
  C   C2304     1.0  0.91403  0.47888  0.83917  1.0000
  H   H4096     1.0  0.65636  0.92121  0.75232  1.0000
