data_image0
_chemical_formula_structural       FeSFeCS2H2FeS2FeS2FeSFeS3FeHSFeHSFeSH2S2C2SH10C6H4C3FeH3CH2C6H4C6H9C3H3FeHCHCH3CH3CHCH2SNCHC6HC2H6SH3CHCH2SH5C2HC2HC3H7C2H4CFeCH5CSHCH2NC12H29SHSCH2NH3C2H6CH3CH2C2HSCH2NC2H2CH3C2H3CHCHC3H2C4HC2HCHNCH4FeH4C2HNCH6CH2CHCSHCHCH2CH3CHCHCH6CHSHFeCHSCH2CSCFeS2FeS2FeSFeS3FeS2HCHSCH2SHCHCH5CHC6H6C6H4C6H4CH5C2H3NC10HCH17CH5FeSH4CHFeH2CH3SC4H3CH4C2H6CHCH6C3H3CH2CFeSNC9HC2H9CH10C4H3CSCHCNCSHCH2CH2C3H3CHNH2C2HCH2CFeH2SH3CH2CH4C2H7FeHCH3NHCSHCNH8CH2SFeH2C2H3CH9CH3CH4CHC2H2CH2CH2C2H4CH5FeS2FeS2FeSFeS3FeS2FeS2FeSFeS3HCH3FeS2HCFeH2SCH5CH3CHNHNHCH2CHCH4CSC3H3C6HCH2C6H5CHCH4C6H4C4H2C3HFeH2CH2NC12H28NHC2HC3HCH4CH2CH6C3H3C2H2CHC3H2CHCHCNH2C2HNCH2C2HCHCHSHCH4CH2CH8C2NC4HC4H2CHCH17CHCH2CH4SC2HNCH3CHCHCH4CHC2HCH3C3HCH3CH2CH5CH3SH7CH4CH4CH4CFeH4SC2H2CH6CHCH2C2H2C2H4CH3C2H2CH2CH3SCH3CHCH2CSH2CH5CNCHC3H2CH2CH4C2H2CHFeSHFeSHFeSFeS3HNFeS2FeS2FeSFeS3HFeS2HCHFeSHSNC3H7CH4C6H4C6H3C3HCSH2C6H4C6H5CH2CH2NC2HCH5CH2SH6C2H7C2HC2H2CSHC2HCH2CH4NC12H30SH2CH2C2HCHCHCNCH4FeH3CHCH3CH5CH2CHCFeH3CH2CH2CH4CHC2SCHCH2C2SC3HCHCH3SH2CH3CHC2HSH2CH2C2H6CH7C2HNH5CH3C2H7C2HCHCHCH6NH2CHNC2HCFeS2FeS2FeSFeHS2FeS2FeS2FeSFeS3HSHFeSFeSFeSCHS2HCHCH2SH8C3HCH2C2H3C6H5CH4C2H6C7H7C4H2FeC2H3CHNC2HCHC3HCHC2H4NHCH2C2H4CH3CH3CH5CHSHCH2CHCNHCFeCHCHC2NC12H17CH9NC8H2C2H17CH8NC12H31C2HCH3C2H3SHFeH4CHCH2C2SH3CS3H4CH7CH2CH4CHC3HC3HFeH6CH3CHCH5CH2CSH4CHC6H3C2H3C2HSCFeS2FeS2FeSFeS3FeS2FeS2FeSFeS3Fe2S2FeSHFeS2HSH5CH3CHCNCH2SC2HC3HC4H4C7H4C2HC3HCH2C6H4C2H3CHCH3CHC2HC5H6CHCH2CSH2CHC2H3S2FeCH3C3HNC11H25CHCH5NH8CH9CH3CH2CHSFe2CHCH4CHCH2CHCH4C2H3SHNCH2CSC2H5CH3CH2CH7CH3C2H3CH2NCH2CH3CH2C2H2CH2CH3CH2CH5CHC3HCHCHCH3CH3CHC2HSNHFeH4CH5C3H6FeSCFeSHFe2SHSHFeHFeHSFeS2HFeS2FeS2FeSFeS3FeS2FeS2FeSFeS3CHCHC2H6C6H4C6H4SCHCH2C6H4CHCH5CHC2HCH2C5H6C3H4CHCH4C2HCH2CH2NHCH5CH4C2H10CH3CHCH3SHCH2CHCHC3H4CH4CH2C4H6CH4NC8H16CHCHCH4CHCH2SHSHCHC3HCHNH2CNH6C2HCH7C2HSNH2NC8HCH15CH2SH6SC2HC2H5CHCH8C3H2NC3H2C5HSFeCHCH4CHSC2HCH2C4H5SCH2S2HCH6FeSFeS2FeHFeS2CH2FeS2FeS2FeSFeS3FeS2FeS2Fe2S3FeCSHSC3SHC6H4C6H8C2H3C4H2CH2SH4CH2NC6H5CHC2HC2H2C2H3C2H5C2H3CHCH2C2H3CH5CHNC4HC2H20CHC3H6CHNC11H16CH2C2H4CH2C2H3CHCH4CH5CHC2H4CH2CSH4CSCHC2HCHCH2CHNC12H16NH3CH9C4HCNH4CHSCH3CHCHFeHC3H2CH5CHC6H4CH2CNCHC8H5CH21NH2CH2FeHCHC2H4CHCHCH2C2HSHCSH5CNH2CHCH4CH3CS2HSHFeSFeSHCFeS2Fe2HFeS2CH2FeHNCSHC2H2C7H6CH2SCHNHC3FeH7CH4SH3SH2CH2CH4CH2SC2H2CH3SHCH2CH2CHCH2CHC2H3CH5CH2NC12H28CHC4HC3HC2H2CHCH2SHCHCH4C2H5C3H5CSHC2H3CHCH6C2HCH2C3FeCSCHFeSHSFeS2HS2FeSFeS3C6H5C3H2CH2SHC3HCH2C2HCH2CH3CH8CHC2SH5C3HCHC2H2SH5CH5CHCH6CNH2CFeCH3CH2C2H2SHCH7CH2NFeH3CH2CH2C3H6CHCH2CHC2H2CH5CH3NHC6H2C2H4CH2CH2CH2CH2CH2CH5C4H2C2FeHC2SH2CH3SHC2NSCFeSCFeS2FeSFeCS2CSHCH4CHC2HCHFeHNCFeHC6H6C3HC3H4CSH2CHCH6C2HNC12H28NH4CHSC3HCH2CH3SHSC2H5FeH4C2H2SCH4C3H3CHC2SCHCH2CHSHCHCH6C3H4FeH7CH3NC2HC5H4C2H7C2H7C5H3NH10CHC2H2CH2NHCHCHCSH2CHCHFeS2FeCFeS3FeS2FeS2FeSFeS3H6C7H4C6H4CH4NHC3H2C3H2C2H5CH3CHCH6C3H2CHC2HC2HNH2CH2C2HC4H2CH3CH3SCH4NHCHCHSC2H2CH3CHCHCH7FeCH2CH3CH2CHC2H2CH3CH3CH2CH3NH4CHC2H3NSH3C2H5CHCHCHCH12C4H2CH4CH5C4FeS2FeS2FeSFeS3FeSNFeS2FeSFeSHSHCS2HFeSH2SH3SHCH2C7H6C7H5CFeHC7H2C8H12C3H3SH6CH5SHCH2C2H8CH5SH2C2HC2H4CHCH3C2H3CHCHC2HC2H2CH2NH4C3HC2H9C3HCH2CH2FeH2CH2CH3C4H2CH3CH2FeH2CH2NH3CNH6CH2C2HNC4SC3H5CH6CH2CH5C2H2CH5CH6CNC2H2CHCHC3HCH6SCH2CHC3H2C2H2SHCSHFeSFeSCHFeS2FeSHFeSFeS3FeSCFeSCSHSC6HCH4CHC7H4C6HCH3C3H5CHCHCHCH2CH2CHCH6CH3SHSCH3CHCHCH2NC2HCHCH2CHCHNCH2CH2C3H2CH2C3HCHSH4C2H5CHC2HC2H7CHC2H2C2H7SH8CHNH4CHSHCHCHCH7NHC9H12FeHCH11C2H5CHNC4HCHC2HCH8SFeH8CNH8FeHCHCHCSH3CH4NC2SH2SHCHCH2CHFeH2C2H3CH3C3HFeSCFeS2FeSFeCS2H2CSHCH2C6H4C3H4CH2FeH2NCH4CHCH6CHC2H2CH5CH2CHC2HC2H3CHCH3NCHCH8SCH2C2HCHCNCHSC2HCH2CH3SCH4CHCHCHCH6C3FeS2FeS2FeHFeHS2HCHCHCHCH2CH2FeCHCHC2HC4HNH2CH3C2H5C2H2SCHCHCH5CH5CH2CHC2SHCH3CHCH7CH6CHCHCH4NH5C2HCSH4CH4CHC3H7S2FeSCFeS3FeSFeS3FeS2FeS2FeSFeHS2H2FeS2FeS2FeSFeS3H3CH4CSC7H8CH3C2HCHC6H5CHCHFeHC6H4CH2C6H5C6H4NC12H28NC9H10CH9NCHC4HC2H11CHCH4C2NC12H25CH6CHCHCH2C2HFeH3CH4SH2CH2FeC4HCHCH6NC3HCH4CH2CSH6C2H4CH3CHC2H4CH3CHCH2C2H2C2H3C2FeH2C2H3SH5CH4FeSCHC3FeCSCH7CHSCH4C2H4CHNHCH5C3HCNH3CHCSCHNH2C2H4CH3C3H3FeCH3C2HCH3CH4NH2CH3FeSCFeS2Fe2S4FeS2FeSHFeSFeS4CFeSFeS2FeSFeSFeS3C6H4CHCH2CH3C6H4S2H7CHCHC5H3C6H4C5H4NHFeH3C5HC2H2CHCNC12H28SH2CH3CH4CH5CHCH7SH7SCH4NHCH3CH2FeCH3C2HSH2CHCH3C2HCHCH8C3HCH2NC5HC3H2CH8CHCH8C4H2CH3CH2CS2CH2CFe2H2CHFeHCHCH2SH2CH3CH8NH3C2H2CH3CH2CH2CH3CHCHC2SH2C2H2C4HCH2SNC2H5SHSH5C2HCH2FeH2FeHSHCH2CHCH5CNSCH3C2SCHC3H2CH10CHC2HCH4FeSFeS2FeSFeS3CHC2H5NSC2HC3H2CSCHCHCHCHC3H4CH2CHCH4CHC2H3CH3CH2CH2CHC2NHC3H2C2H3CH6CHCH2CH4C2H2CH3CH2CHCH5CH5CH3CHCH2SH4CH3NHCH6C3HFeS2FeS2FeSFeHS2H8C2HC2H5CH3SHC5H2CHC3H2CH3CH2CHCH3C2H2CHCH3CHCHCH8CH3CHCH2C2H3C3H2CNH2CHSCH3NCHC3H2SH2CH4CH3CHC3H2CNH2CHC2HCSC3H4FeSH2SHFeS2FeHSH2FeHS2CFeS2FeS2H2FeS3FeS2FeS2FeSFeS3HC3HC3H6C6H4C9H4C2HCH6C2HC4H4C6H2CHC2H2CH2CHSH11C2SH9CH7N2C9H25CHFeH2SHCH2CH4C3H2CH2FeH5CSCHCNC3H2FeH3C5HCHCHCHNH5SC2H4CH4CH4CHCHSH3NH4CHCHFeC2HCH2C3H2CH4CH3CHC2HCH2CH2CH5FeC2H6C2H3CH3C2HSH2NC2SHCHCHCH2C3SHCHCH2C2H7C3H2CHCHCHCH5CH2C3H7C4H5FeS2FeS2FeHFeS3FeS2FeSCSFeS2FeS2FeSFeS3HFeS2FeS2Fe2S3C6H4C6H4C2H3CHCHC5H4C6H4C6H4C6H4C2NCH5CH3CH4C2HCH3CHFeHCH3CHCHNC5H4CH9C5H4CH2CHCHCHCH3NH3CHC2HCH3NC12H28NC11SH25C2H7SHNHCH4CH3CH3SH2CH8C2H10CH3CHFeC2HCH4C2H2C2H3NCHC3HCH6CHC3SHCHCH7CHCH3CH4CH3C3HC2HCH4CH6C2H5SH2CHCHC2H6
_chemical_formula_sum              "Fe256 S512 C2304 H4096 N128"
_cell_length_a       89.5934
_cell_length_b       89.5002
_cell_length_c       39.1665
_cell_angle_alpha    77.6669
_cell_angle_beta     77.7377
_cell_angle_gamma    77.0028

_space_group_name_H-M_alt    "P 1"
_space_group_IT_number       1

loop_
  _space_group_symop_operation_xyz
  'x, y, z'

loop_
  _atom_site_type_symbol
  _atom_site_label
  _atom_site_symmetry_multiplicity
  _atom_site_fract_x
  _atom_site_fract_y
  _atom_site_fract_z
  _atom_site_occupancy
  Fe  Fe1       1.0  0.19436  0.01975  0.19806  1.0000
  S   S1        1.0  0.16917  0.02986  0.19516  1.0000
  Fe  Fe2       1.0  0.01039  0.10365  0.15269  1.0000
  C   C1        1.0  0.15994  0.03291  0.10939  1.0000
  S   S2        1.0  0.03692  0.10051  0.14256  1.0000
  S   S3        1.0  0.22041  0.21314  0.30668  1.0000
  H   H1        1.0  0.17378  0.99344  0.12248  1.0000
  H   H2        1.0  0.09657  0.09390  0.01542  1.0000
  Fe  Fe3       1.0  0.13637  0.11680  0.18692  1.0000
  S   S4        1.0  0.14845  0.13081  0.13928  1.0000
  S   S5        1.0  0.15140  0.09927  0.22190  1.0000
  Fe  Fe4       1.0  0.10439  0.13511  0.17518  1.0000
  S   S6        1.0  0.11419  0.15122  0.12710  1.0000
  S   S7        1.0  0.07865  0.13608  0.19794  1.0000
  Fe  Fe5       1.0  0.12944  0.12919  0.11190  1.0000
  S   S8        1.0  0.13507  0.12065  0.05941  1.0000
  Fe  Fe6       1.0  0.13246  0.15160  0.15890  1.0000
  S   S9        1.0  0.14481  0.17171  0.15596  1.0000
  S   S10       1.0  0.11875  0.11315  0.15816  1.0000
  S   S11       1.0  0.12128  0.13755  0.20827  1.0000
  Fe  Fe7       1.0  0.18318  0.20222  0.28921  1.0000
  H   H3        1.0  0.16597  0.09741  0.14073  1.0000
  S   S12       1.0  0.16188  0.19273  0.28676  1.0000
  Fe  Fe8       1.0  0.19949  0.20781  0.34699  1.0000
  H   H4        1.0  0.15686  0.02886  0.08735  1.0000
  S   S13       1.0  0.20210  0.20348  0.40543  1.0000
  Fe  Fe9       1.0  0.20347  0.22704  0.27183  1.0000
  S   S14       1.0  0.20598  0.25103  0.23984  1.0000
  H   H5        1.0  0.23320  0.04999  0.00596  1.0000
  H   H6        1.0  0.04298  0.07230  0.26286  1.0000
  S   S15       1.0  0.18233  0.22319  0.31378  1.0000
  S   S16       1.0  0.19855  0.18660  0.32580  1.0000
  C   C2        1.0  0.22115  0.01174  0.00069  1.0000
  C   C3        1.0  0.18641  0.22966  0.43548  1.0000
  S   S17       1.0  0.20573  0.99996  0.16908  1.0000
  H   H7        1.0  0.20116  0.28021  0.31455  1.0000
  H   H8        1.0  0.22833  0.15228  0.39387  1.0000
  H   H9        1.0  0.19388  0.07611  0.00110  1.0000
  H   H10       1.0  0.00046  0.13604  0.99464  1.0000
  H   H11       1.0  0.18711  0.04394  0.07937  1.0000
  H   H12       1.0  0.21664  0.06991  0.45768  1.0000
  H   H13       1.0  0.08284  0.14813  0.12121  1.0000
  H   H14       1.0  0.23384  0.31420  0.25264  1.0000
  H   H15       1.0  0.22353  0.10065  0.40065  1.0000
  H   H16       1.0  0.20616  0.19637  0.47733  1.0000
  C   C4        1.0  0.15734  0.18720  0.24978  1.0000
  C   C5        1.0  0.16620  0.18969  0.21577  1.0000
  C   C6        1.0  0.16206  0.18512  0.18725  1.0000
  C   C7        1.0  0.14924  0.17772  0.19250  1.0000
  C   C8        1.0  0.14041  0.17524  0.22651  1.0000
  C   C9        1.0  0.14441  0.18000  0.25490  1.0000
  H   H17       1.0  0.17610  0.19533  0.21135  1.0000
  H   H18       1.0  0.16887  0.18728  0.16097  1.0000
  H   H19       1.0  0.13040  0.16976  0.23088  1.0000
  H   H20       1.0  0.13742  0.17811  0.28104  1.0000
  C   C10       1.0  0.12547  0.13114  0.02412  1.0000
  C   C11       1.0  0.11534  0.14544  0.02634  1.0000
  C   C12       1.0  0.07349  0.13116  0.01400  1.0000
  Fe  Fe10      1.0  0.22438  0.02304  0.21901  1.0000
  H   H21       1.0  0.17590  0.04364  0.04764  1.0000
  H   H22       1.0  0.11341  0.15048  0.05002  1.0000
  H   H23       1.0  0.23608  0.10668  0.34144  1.0000
  C   C13       1.0  0.20935  0.05803  0.02977  1.0000
  H   H24       1.0  0.22239  0.24958  0.37831  1.0000
  H   H25       1.0  0.11416  0.09640  0.26402  1.0000
  C   C14       1.0  0.04783  0.11153  0.15670  1.0000
  C   C15       1.0  0.06367  0.11052  0.14197  1.0000
  C   C16       1.0  0.07312  0.11827  0.15380  1.0000
  C   C17       1.0  0.06686  0.12700  0.18087  1.0000
  C   C18       1.0  0.05094  0.12824  0.19525  1.0000
  C   C19       1.0  0.04142  0.12062  0.18309  1.0000
  H   H26       1.0  0.06870  0.10354  0.12148  1.0000
  H   H27       1.0  0.08532  0.11733  0.14227  1.0000
  H   H28       1.0  0.04596  0.13503  0.21611  1.0000
  H   H29       1.0  0.02924  0.12148  0.19471  1.0000
  C   C20       1.0  0.16440  0.04922  0.20203  1.0000
  C   C21       1.0  0.17344  0.05478  0.21976  1.0000
  C   C22       1.0  0.16931  0.07017  0.22587  1.0000
  C   C23       1.0  0.15641  0.08015  0.21345  1.0000
  C   C24       1.0  0.14761  0.07473  0.19492  1.0000
  C   C25       1.0  0.15145  0.05919  0.18969  1.0000
  H   H30       1.0  0.18345  0.04713  0.22936  1.0000
  H   H31       1.0  0.17620  0.07436  0.24003  1.0000
  H   H32       1.0  0.13781  0.08250  0.18503  1.0000
  H   H33       1.0  0.14451  0.05492  0.17580  1.0000
  H   H34       1.0  0.18469  0.25751  0.30635  1.0000
  H   H35       1.0  0.03938  0.08806  0.22619  1.0000
  H   H36       1.0  0.03701  0.06883  0.22449  1.0000
  H   H37       1.0  0.21257  0.26369  0.29821  1.0000
  H   H38       1.0  0.20610  0.29044  0.35856  1.0000
  C   C26       1.0  0.17581  0.09021  0.12555  1.0000
  C   C27       1.0  0.00073  0.15792  0.00807  1.0000
  C   C28       1.0  0.19436  0.10487  0.21746  1.0000
  H   H39       1.0  0.17462  0.25244  0.35097  1.0000
  H   H40       1.0  0.21448  0.27889  0.09630  1.0000
  H   H41       1.0  0.16817  0.08769  0.01902  1.0000
  Fe  Fe11      1.0  0.21833  0.19307  0.28371  1.0000
  H   H42       1.0  0.18794  0.07533  0.29072  1.0000
  C   C29       1.0  0.20830  0.26862  0.32306  1.0000
  H   H43       1.0  0.20177  0.98529  0.09879  1.0000
  C   C30       1.0  0.21522  0.28043  0.36711  1.0000
  H   H44       1.0  0.15559  0.05777  0.02174  1.0000
  H   H45       1.0  0.03152  0.14286  0.02647  1.0000
  H   H46       1.0  0.21922  0.26224  0.07511  1.0000
  C   C31       1.0  0.19954  0.20804  0.47342  1.0000
  H   H47       1.0  0.09823  0.10580  0.29354  1.0000
  H   H48       1.0  0.20295  0.01626  0.09807  1.0000
  H   H49       1.0  0.03181  0.10983  0.06912  1.0000
  C   C32       1.0  0.19870  0.08700  0.31962  1.0000
  H   H50       1.0  0.01972  0.12735  0.08309  1.0000
  C   C33       1.0  0.23056  0.01283  0.02434  1.0000
  H   H51       1.0  0.22145  0.11418  0.28699  1.0000
  H   H52       1.0  0.00333  0.15220  0.03480  1.0000
  S   S18       1.0  0.00008  0.09744  0.11108  1.0000
  N   N1        1.0  0.06278  0.14121  0.03910  1.0000
  C   C34       1.0  0.22884  0.07595  0.40366  1.0000
  H   H53       1.0  0.00677  0.16798  0.99856  1.0000
  C   C35       1.0  0.07206  0.14306  0.06541  1.0000
  C   C36       1.0  0.04925  0.13379  0.05951  1.0000
  C   C37       1.0  0.03799  0.13135  0.03720  1.0000
  C   C38       1.0  0.08159  0.11486  0.03101  1.0000
  C   C39       1.0  0.06348  0.15398  0.09238  1.0000
  C   C40       1.0  0.02602  0.12192  0.05978  1.0000
  H   H54       1.0  0.21427  0.28779  0.43376  1.0000
  C   C41       1.0  0.07504  0.15863  0.10982  1.0000
  C   C42       1.0  0.23083  0.09839  0.33229  1.0000
  H   H55       1.0  0.04605  0.16292  0.03385  1.0000
  H   H56       1.0  0.19384  0.26134  0.37489  1.0000
  H   H57       1.0  0.07605  0.13169  0.08176  1.0000
  H   H58       1.0  0.05331  0.12249  0.07608  1.0000
  H   H59       1.0  0.04194  0.14105  0.07894  1.0000
  H   H60       1.0  0.23414  0.26270  0.13901  1.0000
  S   S19       1.0  0.23390  0.04146  0.23731  1.0000
  H   H61       1.0  0.09020  0.11598  0.04652  1.0000
  H   H62       1.0  0.07308  0.10811  0.04856  1.0000
  H   H63       1.0  0.06739  0.12933  0.99387  1.0000
  C   C43       1.0  0.23543  0.26180  0.11051  1.0000
  H   H64       1.0  0.16346  0.21089  0.48686  1.0000
  C   C44       1.0  0.22180  0.05505  0.99736  1.0000
  H   H65       1.0  0.01736  0.12134  0.04383  1.0000
  H   H66       1.0  0.23353  0.22236  0.36947  1.0000
  S   S20       1.0  0.99394  0.12663  0.15458  1.0000
  H   H67       1.0  0.06872  0.16504  0.13159  1.0000
  H   H68       1.0  0.21968  0.07384  0.33885  1.0000
  H   H69       1.0  0.08283  0.14734  0.05097  1.0000
  H   H70       1.0  0.16970  0.13279  0.18896  1.0000
  H   H71       1.0  0.16491  0.09559  0.07957  1.0000
  C   C45       1.0  0.19717  0.12002  0.22642  1.0000
  C   C46       1.0  0.18676  0.14572  0.24420  1.0000
  H   H72       1.0  0.15200  0.05708  0.09034  1.0000
  C   C47       1.0  0.18211  0.26036  0.33348  1.0000
  C   C48       1.0  0.19549  0.21467  0.43998  1.0000
  H   H73       1.0  0.18480  0.13782  0.37708  1.0000
  C   C49       1.0  0.22410  0.25717  0.22772  1.0000
  C   C50       1.0  0.20045  0.15369  0.22357  1.0000
  C   C51       1.0  0.20424  0.16420  0.24541  1.0000
  H   H74       1.0  0.98942  0.04943  0.07185  1.0000
  H   H75       1.0  0.19206  0.06412  0.33273  1.0000
  H   H76       1.0  0.20155  0.11679  0.25199  1.0000
  H   H77       1.0  0.20706  0.12376  0.20670  1.0000
  H   H78       1.0  0.17659  0.15545  0.24623  1.0000
  H   H79       1.0  0.18894  0.14106  0.27178  1.0000
  H   H80       1.0  0.15021  0.03242  0.13227  1.0000
  C   C52       1.0  0.21949  0.29574  0.41071  1.0000
  C   C53       1.0  0.19649  0.07225  0.30902  1.0000
  H   H81       1.0  0.18304  0.23483  0.41002  1.0000
  H   H82       1.0  0.04413  0.12511  0.01518  1.0000
  H   H83       1.0  0.20101  0.14408  0.16337  1.0000
  H   H84       1.0  0.20675  0.09191  0.41214  1.0000
  C   C54       1.0  0.20811  0.01487  0.07111  1.0000
  Fe  Fe12      1.0  0.22466  0.01370  0.14693  1.0000
  C   C55       1.0  0.23416  0.31212  0.11545  1.0000
  H   H85       1.0  0.21123  0.14518  0.21700  1.0000
  H   H86       1.0  0.19716  0.16125  0.19885  1.0000
  H   H87       1.0  0.99006  0.15230  0.41711  1.0000
  H   H88       1.0  0.20845  0.15725  0.26978  1.0000
  H   H89       1.0  0.21353  0.17045  0.22945  1.0000
  C   C56       1.0  0.23410  0.16289  0.33920  1.0000
  S   S21       1.0  0.20303  0.20721  0.24519  1.0000
  H   H90       1.0  0.20948  0.04687  0.04847  1.0000
  C   C57       1.0  0.19873  0.01386  0.04755  1.0000
  H   H91       1.0  0.20275  0.24585  0.35034  1.0000
  H   H92       1.0  0.17558  0.27252  0.33262  1.0000
  N   N2        1.0  0.08866  0.07659  0.21543  1.0000
  C   C58       1.0  0.09591  0.08918  0.22193  1.0000
  C   C59       1.0  0.09209  0.07601  0.17620  1.0000
  C   C60       1.0  0.07122  0.08132  0.22591  1.0000
  C   C61       1.0  0.09399  0.06079  0.23678  1.0000
  C   C62       1.0  0.11101  0.05710  0.24374  1.0000
  C   C63       1.0  0.09115  0.09325  0.25981  1.0000
  C   C64       1.0  0.06109  0.07154  0.21573  1.0000
  C   C65       1.0  0.10936  0.07208  0.15870  1.0000
  C   C66       1.0  0.11111  0.07493  0.11825  1.0000
  C   C67       1.0  0.11613  0.03982  0.25795  1.0000
  C   C68       1.0  0.10197  0.10292  0.26643  1.0000
  C   C69       1.0  0.04411  0.07544  0.23354  1.0000
  H   H93       1.0  0.09270  0.10020  0.20334  1.0000
  H   H94       1.0  0.10877  0.08632  0.21608  1.0000
  H   H95       1.0  0.08657  0.06709  0.17041  1.0000
  H   H96       1.0  0.08689  0.08732  0.16140  1.0000
  H   H97       1.0  0.06724  0.09369  0.21398  1.0000
  H   H98       1.0  0.06797  0.08085  0.25512  1.0000
  H   H99       1.0  0.08655  0.05921  0.26349  1.0000
  H   H100      1.0  0.09240  0.05144  0.22388  1.0000
  H   H101      1.0  0.11214  0.06374  0.26367  1.0000
  H   H102      1.0  0.11937  0.06023  0.21960  1.0000
  H   H103      1.0  0.07919  0.10033  0.26299  1.0000
  H   H104      1.0  0.09130  0.08262  0.28046  1.0000
  H   H105      1.0  0.06538  0.05889  0.22366  1.0000
  H   H106      1.0  0.06120  0.07421  0.18664  1.0000
  H   H107      1.0  0.11650  0.07934  0.16504  1.0000
  H   H108      1.0  0.11414  0.05959  0.16739  1.0000
  H   H109      1.0  0.10704  0.08744  0.10793  1.0000
  H   H110      1.0  0.12356  0.07173  0.10643  1.0000
  H   H111      1.0  0.10437  0.06777  0.10979  1.0000
  H   H112      1.0  0.11595  0.03266  0.23816  1.0000
  H   H113      1.0  0.12824  0.03770  0.26310  1.0000
  H   H114      1.0  0.10843  0.03614  0.28316  1.0000
  H   H115      1.0  0.10148  0.11399  0.24705  1.0000
  H   H116      1.0  0.18641  0.01418  0.05673  1.0000
  H   H117      1.0  0.23424  0.17036  0.43054  1.0000
  H   H118      1.0  0.19382  0.17302  0.25310  1.0000
  H   H119      1.0  0.20319  0.09453  0.29521  1.0000
  H   H120      1.0  0.20767  0.06623  0.29520  1.0000
  H   H121      1.0  0.23193  0.19187  0.48453  1.0000
  S   S22       1.0  0.20527  0.00956  0.24672  1.0000
  H   H122      1.0  0.19096  0.08373  0.05927  1.0000
  S   S23       1.0  0.99562  0.09010  0.19703  1.0000
  C   C70       1.0  0.10775  0.15328  0.99770  1.0000
  H   H123      1.0  0.22830  0.30044  0.41927  1.0000
  H   H124      1.0  0.22711  0.17406  0.34323  1.0000
  N   N3        1.0  0.22166  0.27058  0.33849  1.0000
  H   H125      1.0  0.18061  0.07997  0.14437  1.0000
  H   H126      1.0  0.20288  0.07704  0.37177  1.0000
  H   H127      1.0  0.16057  0.07853  0.11008  1.0000
  C   C71       1.0  0.09055  0.10529  0.00259  1.0000
  C   C72       1.0  0.19307  0.06471  0.01901  1.0000
  H   H128      1.0  0.98856  0.04324  0.03147  1.0000
  H   H129      1.0  0.15040  0.14394  0.23763  1.0000
  H   H130      1.0  0.05549  0.14787  0.11369  1.0000
  H   H131      1.0  0.23161  0.08110  0.45378  1.0000
  H   H132      1.0  0.21103  0.24557  0.13328  1.0000
  H   H133      1.0  0.16546  0.05303  0.12120  1.0000
  C   C73       1.0  0.15470  0.13822  0.26265  1.0000
  H   H134      1.0  0.14566  0.12422  0.31239  1.0000
  H   H135      1.0  0.17427  0.24929  0.46084  1.0000
  H   H136      1.0  0.13953  0.12115  0.27364  1.0000
  C   C74       1.0  0.22405  0.01436  0.05964  1.0000
  H   H137      1.0  0.16691  0.11729  0.24474  1.0000
  H   H138      1.0  0.20908  0.27362  0.39102  1.0000
  C   C75       1.0  0.18144  0.23780  0.46435  1.0000
  C   C76       1.0  0.17687  0.05053  0.06736  1.0000
  H   H139      1.0  0.09989  0.16430  0.99956  1.0000
  S   S24       1.0  0.21230  0.03430  0.17218  1.0000
  C   C77       1.0  0.17003  0.08494  0.09687  1.0000
  H   H140      1.0  0.13118  0.13865  0.29168  1.0000
  H   H141      1.0  0.15535  0.07889  0.05409  1.0000
  N   N4        1.0  0.18319  0.13307  0.22877  1.0000
  C   C78       1.0  0.16285  0.04959  0.09788  1.0000
  C   C79       1.0  0.20518  0.01234  0.01231  1.0000
  H   H142      1.0  0.19259  0.10931  0.37200  1.0000
  H   H143      1.0  0.19487  0.12820  0.15293  1.0000
  C   C80       1.0  0.22842  0.07174  0.44374  1.0000
  H   H144      1.0  0.19394  0.15048  0.10393  1.0000
  H   H145      1.0  0.06567  0.16506  0.01720  1.0000
  H   H146      1.0  0.21144  0.12405  0.38595  1.0000
  C   C81       1.0  0.20963  0.09391  0.20687  1.0000
  C   C82       1.0  0.22466  0.27252  0.21025  1.0000
  H   H147      1.0  0.15618  0.14718  0.27667  1.0000
  H   H148      1.0  0.17399  0.12101  0.28057  1.0000
  H   H149      1.0  0.08291  0.13735  0.99851  1.0000
  C   C83       1.0  0.16557  0.07612  0.03330  1.0000
  H   H150      1.0  0.19906  0.15019  0.36150  1.0000
  C   C84       1.0  0.19517  0.13997  0.35676  1.0000
  H   H151      1.0  0.20610  0.26256  0.15440  1.0000
  C   C85       1.0  0.19077  0.14003  0.15977  1.0000
  C   C86       1.0  0.21898  0.26622  0.10023  1.0000
  C   C87       1.0  0.20346  0.11112  0.35292  1.0000
  H   H152      1.0  0.21294  0.06626  0.04263  1.0000
  H   H153      1.0  0.21408  0.28025  0.20387  1.0000
  C   C88       1.0  0.20834  0.12579  0.35927  1.0000
  C   C89       1.0  0.05723  0.15731  0.01906  1.0000
  C   C90       1.0  0.12802  0.12485  0.99309  1.0000
  C   C91       1.0  0.18359  0.07515  0.07436  1.0000
  H   H154      1.0  0.19190  0.14288  0.33001  1.0000
  C   C92       1.0  0.21812  0.09191  0.39375  1.0000
  C   C93       1.0  0.14205  0.12998  0.28659  1.0000
  H   H155      1.0  0.18489  0.09734  0.11351  1.0000
  C   C94       1.0  0.20966  0.08299  0.34740  1.0000
  H   H156      1.0  0.19996  0.11437  0.32644  1.0000
  N   N5        1.0  0.21550  0.09625  0.35570  1.0000
  C   C95       1.0  0.17014  0.12658  0.25478  1.0000
  H   H157      1.0  0.21843  0.12882  0.33906  1.0000
  H   H158      1.0  0.19080  0.06680  0.09277  1.0000
  H   H159      1.0  0.21649  0.09944  0.18225  1.0000
  H   H160      1.0  0.18707  0.09315  0.33099  1.0000
  Fe  Fe13      1.0  0.21825  0.99062  0.21509  1.0000
  H   H161      1.0  0.18775  0.09841  0.24107  1.0000
  H   H162      1.0  0.19570  0.26140  0.12071  1.0000
  H   H163      1.0  0.22862  0.24162  0.31527  1.0000
  H   H164      1.0  0.21664  0.09070  0.22849  1.0000
  C   C96       1.0  0.20729  0.25844  0.12893  1.0000
  C   C97       1.0  0.19713  0.25835  0.34793  1.0000
  H   H165      1.0  0.17045  0.02493  0.11791  1.0000
  N   N6        1.0  0.17946  0.06662  0.04919  1.0000
  C   C98       1.0  0.17793  0.13956  0.19344  1.0000
  H   H166      1.0  0.17106  0.15153  0.19375  1.0000
  H   H167      1.0  0.08222  0.16624  0.09011  1.0000
  H   H168      1.0  0.18120  0.16301  0.13265  1.0000
  H   H169      1.0  0.20711  0.08305  0.20179  1.0000
  H   H170      1.0  0.05655  0.16489  0.08001  1.0000
  H   H171      1.0  0.18753  0.10747  0.19564  1.0000
  C   C99       1.0  0.18470  0.15083  0.12779  1.0000
  H   H172      1.0  0.22333  0.29217  0.12770  1.0000
  H   H173      1.0  0.17452  0.14719  0.12232  1.0000
  C   C100      1.0  0.23208  0.29706  0.10614  1.0000
  H   H174      1.0  0.21830  0.29364  0.27234  1.0000
  C   C101      1.0  0.23014  0.25508  0.35515  1.0000
  S   S25       1.0  0.23590  0.01574  0.08898  1.0000
  H   H175      1.0  0.98795  0.16216  0.01085  1.0000
  C   C102      1.0  0.22726  0.28700  0.38007  1.0000
  H   H176      1.0  0.21948  0.17108  0.48181  1.0000
  C   C103      1.0  0.23045  0.10365  0.29215  1.0000
  H   H177      1.0  0.19140  0.05680  0.00230  1.0000
  H   H178      1.0  0.22746  0.30035  0.08097  1.0000
  C   C104      1.0  0.15980  0.06858  0.00754  1.0000
  H   H179      1.0  0.22547  0.06624  0.39545  1.0000
  H   H180      1.0  0.23420  0.28291  0.04729  1.0000
  H   H181      1.0  0.13674  0.08351  0.01306  1.0000
  C   C105      1.0  0.23283  0.27816  0.30902  1.0000
  H   H182      1.0  0.21926  0.30226  0.30903  1.0000
  C   C106      1.0  0.22608  0.29463  0.29009  1.0000
  H   H183      1.0  0.23275  0.29532  0.35848  1.0000
  C   C107      1.0  0.23507  0.15064  0.36809  1.0000
  H   H184      1.0  0.21029  0.30563  0.40228  1.0000
  H   H185      1.0  0.22996  0.27244  0.99775  1.0000
  H   H186      1.0  0.22722  0.98377  0.11301  1.0000
  H   H187      1.0  0.22828  0.09405  0.28117  1.0000
  H   H188      1.0  0.23686  0.06078  0.44991  1.0000
  H   H189      1.0  0.23656  0.27756  0.38957  1.0000
  C   C108      1.0  0.14631  0.07962  0.99182  1.0000
  H   H190      1.0  0.14979  0.22744  0.53321  1.0000
  S   S26       1.0  0.16773  0.02973  0.83342  1.0000
  H   H191      1.0  0.22621  0.01050  0.97355  1.0000
  Fe  Fe14      1.0  0.18709  0.23066  0.58656  1.0000
  C   C109      1.0  0.17162  0.27251  0.68504  1.0000
  H   H192      1.0  0.06651  0.15576  0.96299  1.0000
  S   S27       1.0  0.18486  0.99621  0.90807  1.0000
  C   C110      1.0  0.20235  0.15985  0.69463  1.0000
  H   H193      1.0  0.21647  0.03383  0.78395  1.0000
  H   H194      1.0  0.11544  0.21786  0.64679  1.0000
  C   C111      1.0  0.11011  0.14678  0.96693  1.0000
  S   S28       1.0  0.00281  0.12486  0.82029  1.0000
  C   C112      1.0  0.12131  0.19395  0.67142  1.0000
  Fe  Fe15      1.0  0.12441  0.11173  0.86957  1.0000
  S   S29       1.0  0.12923  0.13592  0.85929  1.0000
  S   S30       1.0  0.14134  0.09204  0.89503  1.0000
  Fe  Fe16      1.0  0.09143  0.12250  0.85068  1.0000
  S   S31       1.0  0.09372  0.14786  0.83877  1.0000
  S   S32       1.0  0.07109  0.10953  0.85978  1.0000
  Fe  Fe17      1.0  0.11827  0.13964  0.81095  1.0000
  S   S33       1.0  0.13200  0.14869  0.75711  1.0000
  Fe  Fe18      1.0  0.10484  0.14223  0.88781  1.0000
  S   S34       1.0  0.09941  0.15591  0.93260  1.0000
  S   S35       1.0  0.11519  0.11461  0.81931  1.0000
  S   S36       1.0  0.10081  0.11782  0.90158  1.0000
  Fe  Fe19      1.0  0.17770  0.21644  0.66528  1.0000
  S   S37       1.0  0.17919  0.24089  0.63674  1.0000
  S   S38       1.0  0.15756  0.21238  0.71029  1.0000
  H   H195      1.0  0.14488  0.27135  0.74222  1.0000
  C   C113      1.0  0.22528  0.24537  0.72178  1.0000
  H   H196      1.0  0.11798  0.20305  0.56465  1.0000
  S   S39       1.0  0.20772  0.00016  0.83055  1.0000
  C   C114      1.0  0.09711  0.21965  0.55717  1.0000
  H   H197      1.0  0.14042  0.01662  0.89058  1.0000
  H   H198      1.0  0.11309  0.19040  0.65847  1.0000
  S   S40       1.0  0.18320  0.20692  0.61464  1.0000
  H   H199      1.0  0.22476  0.19881  0.74097  1.0000
  C   C115      1.0  0.01116  0.11430  0.94447  1.0000
  H   H200      1.0  0.19253  0.16460  0.79937  1.0000
  C   C116      1.0  0.14889  0.21699  0.55413  1.0000
  H   H201      1.0  0.16565  0.28105  0.63260  1.0000
  H   H202      1.0  0.14907  0.20272  0.62045  1.0000
  H   H203      1.0  0.98833  0.15550  0.95142  1.0000
  H   H204      1.0  0.18521  0.08671  0.76316  1.0000
  H   H205      1.0  0.16130  0.26693  0.69404  1.0000
  C   C117      1.0  0.18673  0.28780  0.77356  1.0000
  H   H206      1.0  0.19800  0.21082  0.52762  1.0000
  C   C118      1.0  0.13968  0.16608  0.74620  1.0000
  C   C119      1.0  0.15199  0.16768  0.71741  1.0000
  C   C120      1.0  0.15780  0.18166  0.70654  1.0000
  C   C121      1.0  0.15130  0.19423  0.72432  1.0000
  C   C122      1.0  0.13918  0.19255  0.75346  1.0000
  C   C123      1.0  0.13343  0.17853  0.76446  1.0000
  H   H207      1.0  0.15686  0.15813  0.70305  1.0000
  H   H208      1.0  0.16703  0.18285  0.68391  1.0000
  H   H209      1.0  0.13408  0.20219  0.76741  1.0000
  H   H210      1.0  0.12395  0.17747  0.78663  1.0000
  H   H211      1.0  0.13159  0.18444  0.67322  1.0000
  H   H212      1.0  0.14553  0.19330  0.55317  1.0000
  C   C124      1.0  0.05244  0.11383  0.84701  1.0000
  C   C125      1.0  0.04764  0.12704  0.82263  1.0000
  C   C126      1.0  0.03253  0.13005  0.81432  1.0000
  C   C127      1.0  0.02198  0.12001  0.83043  1.0000
  C   C128      1.0  0.02684  0.10673  0.85451  1.0000
  C   C129      1.0  0.04199  0.10363  0.86253  1.0000
  H   H213      1.0  0.05555  0.13494  0.81020  1.0000
  H   H214      1.0  0.02894  0.14032  0.79548  1.0000
  H   H215      1.0  0.01891  0.09885  0.86698  1.0000
  H   H216      1.0  0.04556  0.09337  0.88129  1.0000
  C   C130      1.0  0.15981  0.04690  0.85087  1.0000
  C   C131      1.0  0.16218  0.04805  0.88425  1.0000
  C   C132      1.0  0.15618  0.06190  0.89769  1.0000
  C   C133      1.0  0.14782  0.07470  0.87782  1.0000
  C   C134      1.0  0.14514  0.07351  0.84468  1.0000
  C   C135      1.0  0.15111  0.05957  0.83126  1.0000
  H   H217      1.0  0.16855  0.03820  0.89991  1.0000
  H   H218      1.0  0.15824  0.06273  0.92338  1.0000
  H   H219      1.0  0.13869  0.08336  0.82923  1.0000
  H   H220      1.0  0.14922  0.05868  0.80544  1.0000
  C   C136      1.0  0.00228  0.15362  0.88342  1.0000
  H   H221      1.0  0.13241  0.21339  0.66701  1.0000
  H   H222      1.0  0.21452  0.14711  0.81039  1.0000
  H   H223      1.0  0.12235  0.12746  0.94112  1.0000
  H   H224      1.0  0.13708  0.20861  0.52045  1.0000
  H   H225      1.0  0.12315  0.01274  0.88027  1.0000
  C   C137      1.0  0.20588  0.05809  0.76745  1.0000
  C   C138      1.0  0.14710  0.20429  0.53472  1.0000
  H   H226      1.0  0.05490  0.18365  0.96746  1.0000
  H   H227      1.0  0.22925  0.10773  0.75840  1.0000
  H   H228      1.0  0.19110  0.26319  0.79189  1.0000
  N   N7        1.0  0.19649  0.07856  0.80959  1.0000
  C   C139      1.0  0.18238  0.08590  0.79235  1.0000
  C   C140      1.0  0.20100  0.06161  0.80568  1.0000
  C   C141      1.0  0.19171  0.07903  0.84884  1.0000
  C   C142      1.0  0.21006  0.08688  0.79492  1.0000
  C   C143      1.0  0.21186  0.09468  0.75518  1.0000
  C   C144      1.0  0.17407  0.10229  0.80043  1.0000
  C   C145      1.0  0.20420  0.07123  0.87245  1.0000
  C   C146      1.0  0.14864  0.26359  0.76619  1.0000
  C   C147      1.0  0.16284  0.11046  0.77487  1.0000
  C   C148      1.0  0.19817  0.07352  0.91091  1.0000
  H   H229      1.0  0.17353  0.07829  0.80092  1.0000
  C   C149      1.0  0.12037  0.13259  0.96467  1.0000
  H   H230      1.0  0.21114  0.05570  0.81873  1.0000
  H   H231      1.0  0.19129  0.05539  0.81942  1.0000
  H   H232      1.0  0.18132  0.07356  0.85978  1.0000
  H   H233      1.0  0.18818  0.09127  0.85347  1.0000
  H   H234      1.0  0.20946  0.09633  0.80991  1.0000
  H   H235      1.0  0.22115  0.07870  0.79911  1.0000
  H   H236      1.0  0.20271  0.10526  0.75137  1.0000
  H   H237      1.0  0.04725  0.17634  0.93688  1.0000
  H   H238      1.0  0.16707  0.10120  0.82764  1.0000
  H   H239      1.0  0.18257  0.10981  0.79885  1.0000
  H   H240      1.0  0.21489  0.07626  0.86275  1.0000
  H   H241      1.0  0.20729  0.05851  0.87300  1.0000
  H   H242      1.0  0.03098  0.16231  0.87535  1.0000
  H   H243      1.0  0.13695  0.26293  0.61672  1.0000
  H   H244      1.0  0.11839  0.08350  0.77761  1.0000
  H   H245      1.0  0.15666  0.12182  0.78241  1.0000
  H   H246      1.0  0.21083  0.08687  0.73777  1.0000
  C   C150      1.0  0.20268  0.15108  0.66493  1.0000
  H   H247      1.0  0.20722  0.06761  0.92731  1.0000
  H   H248      1.0  0.19536  0.08609  0.91271  1.0000
  H   H249      1.0  0.18759  0.06835  0.92180  1.0000
  H   H250      1.0  0.10052  0.09571  0.76671  1.0000
  H   H251      1.0  0.10435  0.07532  0.76366  1.0000
  Fe  Fe20      1.0  0.22226  0.01104  0.85507  1.0000
  S   S41       1.0  0.20230  0.21107  0.67531  1.0000
  H   H252      1.0  0.16852  0.15409  0.83054  1.0000
  H   H253      1.0  0.11284  0.23414  0.59143  1.0000
  H   H254      1.0  0.16784  0.28928  0.72011  1.0000
  H   H255      1.0  0.00421  0.16532  0.93787  1.0000
  C   C151      1.0  0.22993  0.27012  0.68695  1.0000
  H   H256      1.0  0.17918  0.21942  0.75587  1.0000
  Fe  Fe21      1.0  0.18745  0.01491  0.86002  1.0000
  H   H257      1.0  0.14510  0.24987  0.54715  1.0000
  H   H258      1.0  0.22135  0.23453  0.72470  1.0000
  C   C152      1.0  0.00126  0.15349  0.94619  1.0000
  H   H259      1.0  0.15252  0.23065  0.60371  1.0000
  H   H260      1.0  0.18755  0.17202  0.75698  1.0000
  H   H261      1.0  0.09025  0.21041  0.55995  1.0000
  S   S42       1.0  0.21553  0.25377  0.65559  1.0000
  C   C153      1.0  0.12051  0.22598  0.57434  1.0000
  C   C154      1.0  0.00134  0.12907  0.92524  1.0000
  C   C155      1.0  0.02524  0.14057  0.90962  1.0000
  C   C156      1.0  0.23558  0.13926  0.77488  1.0000
  H   H262      1.0  0.19286  0.16707  0.51456  1.0000
  H   H263      1.0  0.04872  0.05189  0.94075  1.0000
  H   H264      1.0  0.17471  0.24705  0.72990  1.0000
  C   C157      1.0  0.03361  0.15468  0.90046  1.0000
  H   H265      1.0  0.07667  0.05194  0.93723  1.0000
  H   H266      1.0  0.18150  0.26385  0.67448  1.0000
  H   H267      1.0  0.22329  0.14615  0.71149  1.0000
  H   H268      1.0  0.05711  0.15946  0.88972  1.0000
  C   C158      1.0  0.05129  0.14926  0.89526  1.0000
  C   C159      1.0  0.12615  0.20910  0.65049  1.0000
  H   H269      1.0  0.02932  0.13392  0.88738  1.0000
  H   H270      1.0  0.12485  0.26095  0.78854  1.0000
  H   H271      1.0  0.99992  0.12573  0.90039  1.0000
  H   H272      1.0  0.00659  0.16477  0.87586  1.0000
  H   H273      1.0  0.13295  0.23574  0.62440  1.0000
  H   H274      1.0  0.21317  0.13268  0.78734  1.0000
  C   C160      1.0  0.22762  0.09969  0.74211  1.0000
  H   H275      1.0  0.11550  0.19557  0.69877  1.0000
  C   C161      1.0  0.04776  0.17532  0.96535  1.0000
  H   H276      1.0  0.22837  0.10576  0.71409  1.0000
  H   H277      1.0  0.02215  0.11058  0.92660  1.0000
  H   H278      1.0  0.22792  0.19694  0.78579  1.0000
  H   H279      1.0  0.10637  0.20874  0.60434  1.0000
  H   H280      1.0  0.19629  0.14130  0.67513  1.0000
  H   H281      1.0  0.15172  0.25136  0.76172  1.0000
  C   C162      1.0  0.22517  0.16368  0.50380  1.0000
  C   C163      1.0  0.13459  0.26456  0.79618  1.0000
  C   C164      1.0  0.19479  0.21619  0.50206  1.0000
  H   H282      1.0  0.19703  0.15916  0.64358  1.0000
  H   H283      1.0  0.22940  0.27860  0.66278  1.0000
  H   H284      1.0  0.03000  0.13283  0.93248  1.0000
  C   C165      1.0  0.11024  0.07310  0.95237  1.0000
  H   H285      1.0  0.05492  0.14135  0.91926  1.0000
  H   H286      1.0  0.05538  0.14304  0.87234  1.0000
  C   C166      1.0  0.18972  0.27092  0.76603  1.0000
  Fe  Fe22      1.0  0.20787  0.20363  0.62189  1.0000
  S   S43       1.0  0.21221  0.22677  0.59112  1.0000
  N   N8        1.0  0.09860  0.05939  0.87497  1.0000
  C   C167      1.0  0.10473  0.04219  0.88543  1.0000
  C   C168      1.0  0.08101  0.06266  0.88013  1.0000
  C   C169      1.0  0.10478  0.06382  0.83585  1.0000
  C   C170      1.0  0.10422  0.06918  0.89481  1.0000
  C   C171      1.0  0.10056  0.06547  0.93582  1.0000
  C   C172      1.0  0.12270  0.03717  0.88079  1.0000
  C   C173      1.0  0.09777  0.08032  0.81759  1.0000
  C   C174      1.0  0.07223  0.05282  0.91250  1.0000
  C   C175      1.0  0.05485  0.05970  0.91904  1.0000
  H   H287      1.0  0.21152  0.17916  0.72735  1.0000
  C   C176      1.0  0.12752  0.01981  0.89474  1.0000
  C   C177      1.0  0.10580  0.08385  0.77902  1.0000
  H   H288      1.0  0.10049  0.03547  0.86972  1.0000
  H   H289      1.0  0.10010  0.03777  0.91342  1.0000
  H   H290      1.0  0.07640  0.07523  0.88139  1.0000
  H   H291      1.0  0.07704  0.06055  0.85672  1.0000
  H   H292      1.0  0.10288  0.05537  0.82071  1.0000
  H   H293      1.0  0.11757  0.06322  0.83129  1.0000
  H   H294      1.0  0.11695  0.06866  0.88651  1.0000
  H   H295      1.0  0.09910  0.08172  0.88757  1.0000
  H   H296      1.0  0.04979  0.06100  0.89476  1.0000
  C   C178      1.0  0.23592  0.26287  0.74690  1.0000
  H   H297      1.0  0.12808  0.03923  0.85236  1.0000
  H   H298      1.0  0.12770  0.04359  0.89551  1.0000
  H   H299      1.0  0.09925  0.08933  0.83126  1.0000
  H   H300      1.0  0.08517  0.08151  0.81754  1.0000
  H   H301      1.0  0.07355  0.04080  0.90733  1.0000
  H   H302      1.0  0.21782  0.15904  0.56229  1.0000
  H   H303      1.0  0.20645  0.18407  0.78767  1.0000
  H   H304      1.0  0.01420  0.11637  0.96880  1.0000
  H   H305      1.0  0.23138  0.18681  0.53064  1.0000
  H   H306      1.0  0.01884  0.14258  0.98017  1.0000
  C   C179      1.0  0.16834  0.28576  0.65418  1.0000
  C   C180      1.0  0.17616  0.27835  0.71527  1.0000
  C   C181      1.0  0.21315  0.16576  0.53831  1.0000
  C   C182      1.0  0.13701  0.20669  0.61461  1.0000
  H   H307      1.0  0.22957  0.16679  0.73171  1.0000
  H   H308      1.0  0.08941  0.22957  0.56879  1.0000
  H   H309      1.0  0.19574  0.23876  0.78661  1.0000
  C   C183      1.0  0.16687  0.15428  0.80313  1.0000
  S   S44       1.0  0.17879  0.24125  0.53402  1.0000
  C   C184      1.0  0.19307  0.16122  0.77332  1.0000
  H   H310      1.0  0.17995  0.14743  0.75448  1.0000
  C   C185      1.0  0.18905  0.22143  0.76627  1.0000
  N   N9        1.0  0.00766  0.14408  0.91690  1.0000
  C   C186      1.0  0.20775  0.04068  0.76748  1.0000
  S   S45       1.0  0.22272  0.18171  0.60683  1.0000
  H   H311      1.0  0.13449  0.19659  0.60622  1.0000
  C   C187      1.0  0.18559  0.23768  0.77589  1.0000
  H   H312      1.0  0.15981  0.19146  0.49288  1.0000
  H   H313      1.0  0.14137  0.27363  0.57239  1.0000
  C   C188      1.0  0.21090  0.14919  0.72418  1.0000
  H   H314      1.0  0.18424  0.29662  0.74988  1.0000
  H   H315      1.0  0.16411  0.26269  0.80273  1.0000
  C   C189      1.0  0.11101  0.21317  0.57631  1.0000
  C   C190      1.0  0.18291  0.25051  0.74300  1.0000
  C   C191      1.0  0.20085  0.29103  0.78482  1.0000
  H   H316      1.0  0.12167  0.23285  0.54689  1.0000
  H   H317      1.0  0.19718  0.06422  0.75043  1.0000
  H   H318      1.0  0.18777  0.13755  0.79365  1.0000
  C   C192      1.0  0.19826  0.16029  0.53761  1.0000
  H   H319      1.0  0.21179  0.03830  0.73999  1.0000
  N   N10       1.0  0.13633  0.22073  0.58529  1.0000
  H   H320      1.0  0.20124  0.26886  0.74846  1.0000
  H   H321      1.0  0.16049  0.21351  0.56264  1.0000
  C   C193      1.0  0.21829  0.17812  0.77711  1.0000
  C   C194      1.0  0.18241  0.14903  0.77995  1.0000
  H   H322      1.0  0.19649  0.03673  0.77803  1.0000
  C   C195      1.0  0.16234  0.26887  0.77562  1.0000
  H   H323      1.0  0.04763  0.15077  0.97766  1.0000
  H   H324      1.0  0.13065  0.27666  0.80148  1.0000
  C   C196      1.0  0.00609  0.14624  0.98256  1.0000
  Fe  Fe23      1.0  0.20105  0.00715  0.92746  1.0000
  H   H325      1.0  0.21485  0.14650  0.65327  1.0000
  H   H326      1.0  0.19396  0.24970  0.72363  1.0000
  S   S46       1.0  0.20203  0.02692  0.88119  1.0000
  H   H327      1.0  0.19089  0.21250  0.79023  1.0000
  H   H328      1.0  0.03019  0.16161  0.92212  1.0000
  H   H329      1.0  0.17674  0.28955  0.79552  1.0000
  C   C197      1.0  0.14349  0.26203  0.58953  1.0000
  H   H330      1.0  0.12590  0.25454  0.57157  1.0000
  H   H331      1.0  0.18755  0.28199  0.70322  1.0000
  C   C198      1.0  0.16147  0.20037  0.50687  1.0000
  H   H332      1.0  0.15400  0.10332  0.77617  1.0000
  H   H333      1.0  0.10110  0.22359  0.52844  1.0000
  H   H334      1.0  0.15880  0.14632  0.80438  1.0000
  H   H335      1.0  0.15613  0.25870  0.59033  1.0000
  C   C199      1.0  0.13828  0.25010  0.57417  1.0000
  C   C200      1.0  0.21760  0.16999  0.74638  1.0000
  H   H336      1.0  0.16908  0.06571  0.98497  1.0000
  H   H337      1.0  0.16144  0.16625  0.79199  1.0000
  H   H338      1.0  0.16920  0.11266  0.74723  1.0000
  H   H339      1.0  0.20804  0.16999  0.68256  1.0000
  H   H340      1.0  0.19975  0.22000  0.74599  1.0000
  H   H341      1.0  0.19815  0.30280  0.79206  1.0000
  H   H342      1.0  0.00725  0.14727  0.86077  1.0000
  Fe  Fe24      1.0  0.20434  0.23500  0.64396  1.0000
  H   H343      1.0  0.05290  0.07125  0.92709  1.0000
  C   C201      1.0  0.14033  0.23382  0.59851  1.0000
  H   H344      1.0  0.23424  0.19721  0.65047  1.0000
  H   H345      1.0  0.23072  0.24061  0.77475  1.0000
  H   H346      1.0  0.20077  0.14770  0.53601  1.0000
  N   N11       1.0  0.17748  0.26703  0.74985  1.0000
  H   H347      1.0  0.17870  0.29128  0.64340  1.0000
  C   C202      1.0  0.18562  0.23109  0.49776  1.0000
  S   S47       1.0  0.22267  0.99210  0.90337  1.0000
  H   H348      1.0  0.22658  0.15144  0.49976  1.0000
  C   C203      1.0  0.21758  0.14368  0.78370  1.0000
  N   N12       1.0  0.20978  0.15604  0.75686  1.0000
  H   H349      1.0  0.19002  0.16428  0.70492  1.0000
  H   H350      1.0  0.17519  0.23829  0.79710  1.0000
  H   H351      1.0  0.13752  0.25664  0.82084  1.0000
  H   H352      1.0  0.12301  0.01704  0.92360  1.0000
  H   H353      1.0  0.20658  0.13800  0.73142  1.0000
  H   H354      1.0  0.17192  0.19561  0.51960  1.0000
  H   H355      1.0  0.14166  0.07358  0.97558  1.0000
  H   H356      1.0  0.20974  0.17820  0.54112  1.0000
  C   C204      1.0  0.23072  0.24881  0.75006  1.0000
  H   H357      1.0  0.22305  0.16976  0.79920  1.0000
  H   H358      1.0  0.15814  0.28130  0.77840  1.0000
  S   S48       1.0  0.19275  0.01098  0.98432  1.0000
  Fe  Fe25      1.0  0.20646  0.98229  0.88068  1.0000
  H   H359      1.0  0.21733  0.06139  0.75549  1.0000
  H   H360      1.0  0.18982  0.16210  0.56230  1.0000
  C   C205      1.0  0.22440  0.25624  0.69034  1.0000
  C   C206      1.0  0.05506  0.15867  0.98014  1.0000
  H   H361      1.0  0.15039  0.08994  0.97424  1.0000
  H   H362      1.0  0.10825  0.08589  0.94313  1.0000
  H   H363      1.0  0.08253  0.10316  0.98683  1.0000
  C   C207      1.0  0.22858  0.19041  0.76422  1.0000
  H   H364      1.0  0.08812  0.07018  0.94508  1.0000
  H   H365      1.0  0.21895  0.04661  0.98377  1.0000
  H   H366      1.0  0.21091  0.29064  0.76265  1.0000
  H   H367      1.0  0.99263  0.10286  0.97659  1.0000
  H   H368      1.0  0.15822  0.29467  0.66290  1.0000
  H   H369      1.0  0.03577  0.17853  0.97996  1.0000
  H   H370      1.0  0.01054  0.08987  0.96478  1.0000
  H   H371      1.0  0.10313  0.05284  0.94627  1.0000
  H   H372      1.0  0.98945  0.13072  0.94127  1.0000
  C   C208      1.0  0.00259  0.10063  0.95494  1.0000
  H   H373      1.0  0.20416  0.28233  0.80813  1.0000
  H   H374      1.0  0.12280  0.06824  0.94510  1.0000
  H   H375      1.0  0.99832  0.09866  0.93191  1.0000
  C   C209      1.0  0.23675  0.17516  0.63396  1.0000
  H   H376      1.0  0.09946  0.11143  0.98448  1.0000
  H   H377      1.0  0.23564  0.04303  0.86175  1.0000
  H   H378      1.0  0.10701  0.07076  0.98172  1.0000
  H   H379      1.0  0.22285  0.06609  0.97843  1.0000
  C   C210      1.0  0.23580  0.27335  0.71480  1.0000
  H   H380      1.0  0.13591  0.11390  0.99104  1.0000
  C   C211      1.0  0.21941  0.64267  0.24238  1.0000
  C   C212      1.0  0.23657  0.62701  0.20059  1.0000
  H   H381      1.0  0.23674  0.62341  0.03081  1.0000
  H   H382      1.0  0.23438  0.63517  0.14575  1.0000
  C   C213      1.0  0.23106  0.62970  0.23547  1.0000
  H   H383      1.0  0.23052  0.60915  0.01343  1.0000
  H   H384      1.0  0.22276  0.32017  0.11891  1.0000
  C   C214      1.0  0.23033  0.63729  0.17265  1.0000
  H   H385      1.0  0.23570  0.62165  0.25720  1.0000
  H   H386      1.0  0.21504  0.64456  0.26937  1.0000
  C   C215      1.0  0.19741  0.64055  0.88021  1.0000
  C   C216      1.0  0.22152  0.63230  0.90935  1.0000
  H   H387      1.0  0.20368  0.64648  0.55795  1.0000
  H   H388      1.0  0.22041  0.64232  0.85241  1.0000
  H   H389      1.0  0.21689  0.62297  0.86560  1.0000
  H   H390      1.0  0.23141  0.60201  0.89515  1.0000
  C   C217      1.0  0.21493  0.63431  0.87457  1.0000
  H   H391      1.0  0.19124  0.63256  0.90137  1.0000
  H   H392      1.0  0.22619  0.63496  0.97473  1.0000
  H   H393      1.0  0.19300  0.64151  0.85522  1.0000
  H   H394      1.0  0.21625  0.62288  0.92815  1.0000
  H   H395      1.0  0.21654  0.64297  0.92132  1.0000
  Fe  Fe26      1.0  0.07377  0.79090  0.15839  1.0000
  S   S49       1.0  0.08649  0.77026  0.13329  1.0000
  S   S50       1.0  0.04773  0.79957  0.15968  1.0000
  Fe  Fe27      1.0  0.10386  0.79793  0.17364  1.0000
  S   S51       1.0  0.11836  0.77799  0.14825  1.0000
  S   S52       1.0  0.11818  0.80764  0.20253  1.0000
  Fe  Fe28      1.0  0.10366  0.78560  0.10617  1.0000
  S   S53       1.0  0.11561  0.78765  0.04913  1.0000
  Fe  Fe29      1.0  0.10011  0.76455  0.17809  1.0000
  S   S54       1.0  0.10865  0.74041  0.20641  1.0000
  S   S55       1.0  0.09037  0.80682  0.12857  1.0000
  S   S56       1.0  0.08601  0.78390  0.20586  1.0000
  Fe  Fe30      1.0  0.19605  0.86166  0.22815  1.0000
  S   S57       1.0  0.17336  0.87874  0.23427  1.0000
  S   S58       1.0  0.20235  0.84709  0.27980  1.0000
  Fe  Fe31      1.0  0.20194  0.87164  0.14886  1.0000
  S   S59       1.0  0.18024  0.88978  0.14929  1.0000
  S   S60       1.0  0.21639  0.86772  0.09604  1.0000
  Fe  Fe32      1.0  0.18660  0.89585  0.19632  1.0000
  S   S61       1.0  0.18097  0.92158  0.20078  1.0000
  Fe  Fe33      1.0  0.16894  0.87114  0.18671  1.0000
  S   S62       1.0  0.14575  0.86977  0.17366  1.0000
  S   S63       1.0  0.20953  0.87927  0.19266  1.0000
  S   S64       1.0  0.19044  0.85258  0.18390  1.0000
  H   H396      1.0  0.20660  0.69848  0.47020  1.0000
  C   C218      1.0  0.18515  0.85812  0.02807  1.0000
  H   H397      1.0  0.00335  0.76475  0.28655  1.0000
  H   H398      1.0  0.01518  0.80635  0.15482  1.0000
  H   H399      1.0  0.23678  0.75134  0.22085  1.0000
  Fe  Fe34      1.0  0.18456  0.71418  0.28016  1.0000
  S   S65       1.0  0.20501  0.70474  0.24193  1.0000
  S   S66       1.0  0.16992  0.73777  0.26557  1.0000
  H   H400      1.0  0.03544  0.75164  0.13876  1.0000
  C   C219      1.0  0.15798  0.90078  0.02232  1.0000
  Fe  Fe35      1.0  0.21816  0.69946  0.28689  1.0000
  H   H401      1.0  0.15268  0.83836  0.08990  1.0000
  H   H402      1.0  0.21312  0.65751  0.15814  1.0000
  S   S67       1.0  0.19837  0.71133  0.32323  1.0000
  C   C220      1.0  0.09208  0.72285  0.14261  1.0000
  H   H403      1.0  0.05319  0.76757  0.14754  1.0000
  H   H404      1.0  0.99733  0.79034  0.14592  1.0000
  H   H405      1.0  0.08373  0.93305  0.26191  1.0000
  H   H406      1.0  0.12769  0.74805  0.31978  1.0000
  H   H407      1.0  0.16827  0.79485  0.08311  1.0000
  C   C221      1.0  0.17381  0.82281  0.10013  1.0000
  H   H408      1.0  0.13072  0.73343  0.42835  1.0000
  H   H409      1.0  0.17952  0.82861  0.07425  1.0000
  H   H410      1.0  0.15491  0.83241  0.03298  1.0000
  C   C222      1.0  0.15598  0.82580  0.10101  1.0000
  H   H411      1.0  0.01489  0.74618  0.28254  1.0000
  N   N13       1.0  0.06849  0.81360  0.99408  1.0000
  H   H412      1.0  0.09464  0.74433  0.02972  1.0000
  N   N14       1.0  0.99462  0.75155  0.25727  1.0000
  H   H413      1.0  0.19729  0.96276  0.04707  1.0000
  C   C223      1.0  0.22034  0.83421  0.28193  1.0000
  H   H414      1.0  0.13773  0.70933  0.34036  1.0000
  H   H415      1.0  0.18532  0.89909  0.32486  1.0000
  C   C224      1.0  0.22507  0.74979  0.21889  1.0000
  H   H416      1.0  0.14745  0.88382  0.08782  1.0000
  C   C225      1.0  0.14148  0.71139  0.01845  1.0000
  H   H417      1.0  0.09475  0.74100  0.33158  1.0000
  H   H418      1.0  0.15448  0.79889  0.02400  1.0000
  H   H419      1.0  0.22298  0.73613  0.27079  1.0000
  H   H420      1.0  0.21397  0.82574  0.33779  1.0000
  C   C226      1.0  0.20460  0.86354  0.06999  1.0000
  S   S68       1.0  0.00292  0.75741  0.13805  1.0000
  C   C227      1.0  0.10686  0.72887  0.12339  1.0000
  C   C228      1.0  0.17916  0.86095  0.06251  1.0000
  C   C229      1.0  0.18885  0.86355  0.08344  1.0000
  H   H421      1.0  0.20206  0.77562  0.43908  1.0000
  H   H422      1.0  0.16694  0.86125  0.07303  1.0000
  H   H423      1.0  0.18402  0.86564  0.11000  1.0000
  C   C230      1.0  0.19296  0.93296  0.21027  1.0000
  C   C231      1.0  0.18750  0.94905  0.20834  1.0000
  C   C232      1.0  0.19665  0.95870  0.21486  1.0000
  C   C233      1.0  0.21133  0.95232  0.22388  1.0000
  C   C234      1.0  0.21673  0.93614  0.22640  1.0000
  C   C235      1.0  0.20762  0.92650  0.21947  1.0000
  H   H424      1.0  0.17610  0.95412  0.20177  1.0000
  C   C236      1.0  0.22963  0.67908  0.43404  1.0000
  H   H425      1.0  0.16068  0.76449  0.05633  1.0000
  H   H426      1.0  0.21195  0.91413  0.22094  1.0000
  C   C237      1.0  0.15272  0.73816  0.25021  1.0000
  C   C238      1.0  0.14840  0.72445  0.24740  1.0000
  C   C239      1.0  0.13468  0.72515  0.23463  1.0000
  C   C240      1.0  0.12533  0.73958  0.22428  1.0000
  C   C241      1.0  0.12952  0.75324  0.22779  1.0000
  C   C242      1.0  0.14314  0.75253  0.24079  1.0000
  H   H427      1.0  0.15569  0.71331  0.25470  1.0000
  H   H428      1.0  0.13143  0.71454  0.23223  1.0000
  H   H429      1.0  0.12218  0.76441  0.22089  1.0000
  H   H430      1.0  0.14624  0.76318  0.24340  1.0000
  H   H431      1.0  0.23326  0.72545  0.21294  1.0000
  C   C243      1.0  0.10452  0.76271  0.03905  1.0000
  H   H432      1.0  0.20231  0.98134  0.04057  1.0000
  C   C244      1.0  0.06665  0.78903  0.04341  1.0000
  H   H433      1.0  0.13706  0.75477  0.36890  1.0000
  H   H434      1.0  0.23558  0.86962  0.37611  1.0000
  H   H435      1.0  0.10177  0.75976  0.06754  1.0000
  H   H436      1.0  0.18027  0.97158  0.09010  1.0000
  C   C245      1.0  0.12633  0.82472  0.19167  1.0000
  C   C246      1.0  0.11988  0.83824  0.17034  1.0000
  C   C247      1.0  0.12614  0.85187  0.16446  1.0000
  C   C248      1.0  0.13898  0.85208  0.17960  1.0000
  C   C249      1.0  0.14566  0.83846  0.20026  1.0000
  C   C250      1.0  0.13929  0.82489  0.20644  1.0000
  H   H437      1.0  0.10970  0.83836  0.15956  1.0000
  H   H438      1.0  0.12084  0.86238  0.14864  1.0000
  H   H439      1.0  0.15549  0.83848  0.21219  1.0000
  H   H440      1.0  0.14429  0.81452  0.22317  1.0000
  C   C251      1.0  0.04109  0.77265  0.14693  1.0000
  C   C252      1.0  0.03547  0.78808  0.15175  1.0000
  C   C253      1.0  0.01964  0.79442  0.15114  1.0000
  C   C254      1.0  0.00948  0.78536  0.14620  1.0000
  H   H441      1.0  0.13477  0.71618  0.99639  1.0000
  H   H442      1.0  0.15772  0.75775  0.31808  1.0000
  C   C255      1.0  0.99734  0.71775  0.20571  1.0000
  C   C256      1.0  0.20491  0.88505  0.29515  1.0000
  C   C257      1.0  0.12159  0.71116  0.48334  1.0000
  H   H443      1.0  0.15079  0.74516  0.39784  1.0000
  Fe  Fe36      1.0  0.19794  0.68167  0.26472  1.0000
  H   H444      1.0  0.01362  0.77362  0.21962  1.0000
  H   H445      1.0  0.17382  0.72774  0.44346  1.0000
  C   C258      1.0  0.01063  0.74368  0.02853  1.0000
  H   H446      1.0  0.22275  0.66966  0.44066  1.0000
  H   H447      1.0  0.12056  0.70549  0.13219  1.0000
  N   N15       1.0  0.13195  0.91638  0.22815  1.0000
  C   C259      1.0  0.13249  0.89936  0.22835  1.0000
  C   C260      1.0  0.13954  0.92357  0.19198  1.0000
  C   C261      1.0  0.14173  0.91733  0.25447  1.0000
  C   C262      1.0  0.11563  0.92521  0.23832  1.0000
  C   C263      1.0  0.10215  0.91968  0.22812  1.0000
  C   C264      1.0  0.12821  0.88940  0.26542  1.0000
  C   C265      1.0  0.14377  0.93391  0.25644  1.0000
  C   C266      1.0  0.13198  0.92355  0.16002  1.0000
  C   C267      1.0  0.14169  0.93017  0.12531  1.0000
  C   C268      1.0  0.08690  0.93136  0.23379  1.0000
  C   C269      1.0  0.12523  0.87359  0.26253  1.0000
  C   C270      1.0  0.15224  0.93347  0.28675  1.0000
  H   H448      1.0  0.14433  0.89386  0.21656  1.0000
  H   H449      1.0  0.12498  0.89781  0.21073  1.0000
  H   H450      1.0  0.13972  0.93600  0.19112  1.0000
  H   H451      1.0  0.15193  0.91762  0.18641  1.0000
  H   H452      1.0  0.15358  0.91014  0.24878  1.0000
  H   H453      1.0  0.13661  0.91236  0.28184  1.0000
  H   H454      1.0  0.11263  0.92471  0.26761  1.0000
  H   H455      1.0  0.11497  0.93782  0.22697  1.0000
  H   H456      1.0  0.10023  0.90838  0.24491  1.0000
  H   H457      1.0  0.10452  0.91799  0.20020  1.0000
  H   H458      1.0  0.13797  0.88706  0.28038  1.0000
  H   H459      1.0  0.11773  0.89550  0.28124  1.0000
  H   H460      1.0  0.13235  0.94185  0.26072  1.0000
  H   H461      1.0  0.15092  0.93900  0.23181  1.0000
  H   H462      1.0  0.13100  0.91163  0.15813  1.0000
  H   H463      1.0  0.12033  0.93117  0.16200  1.0000
  H   H464      1.0  0.13614  0.93009  0.10258  1.0000
  H   H465      1.0  0.14253  0.94237  0.12529  1.0000
  H   H466      1.0  0.15362  0.92305  0.12169  1.0000
  H   H467      1.0  0.15880  0.72265  0.36959  1.0000
  H   H468      1.0  0.08791  0.94275  0.21627  1.0000
  H   H469      1.0  0.07741  0.92691  0.22726  1.0000
  H   H470      1.0  0.11600  0.87500  0.24650  1.0000
  H   H471      1.0  0.13607  0.86651  0.25015  1.0000
  H   H472      1.0  0.12147  0.86714  0.28941  1.0000
  H   H473      1.0  0.16397  0.92600  0.28279  1.0000
  H   H474      1.0  0.15374  0.94541  0.28720  1.0000
  H   H475      1.0  0.14552  0.92897  0.31272  1.0000
  N   N16       1.0  0.13727  0.72098  0.11366  1.0000
  H   H476      1.0  0.17409  0.82200  0.15599  1.0000
  C   C271      1.0  0.12167  0.71745  0.13379  1.0000
  C   C272      1.0  0.14903  0.71482  0.13831  1.0000
  H   H477      1.0  0.14779  0.69295  0.41220  1.0000
  C   C273      1.0  0.15064  0.69726  0.15494  1.0000
  C   C274      1.0  0.14801  0.73045  0.36225  1.0000
  C   C275      1.0  0.16270  0.69252  0.17957  1.0000
  H   H478      1.0  0.13230  0.74391  0.12756  1.0000
  C   C276      1.0  0.14753  0.67936  0.37380  1.0000
  H   H479      1.0  0.12073  0.71741  0.16265  1.0000
  H   H480      1.0  0.14615  0.72155  0.16056  1.0000
  H   H481      1.0  0.16086  0.71653  0.12431  1.0000
  H   H482      1.0  0.14563  0.90641  0.02170  1.0000
  C   C277      1.0  0.10047  0.75400  0.01760  1.0000
  H   H483      1.0  0.15452  0.68989  0.13407  1.0000
  H   H484      1.0  0.13946  0.69454  0.17084  1.0000
  C   C278      1.0  0.14827  0.74659  0.37062  1.0000
  H   H485      1.0  0.14952  0.73118  0.33304  1.0000
  H   H486      1.0  0.16368  0.67994  0.19119  1.0000
  H   H487      1.0  0.17434  0.69445  0.16478  1.0000
  H   H488      1.0  0.15926  0.69925  0.20165  1.0000
  H   H489      1.0  0.15075  0.89617  0.11494  1.0000
  H   H490      1.0  0.17424  0.92710  0.00819  1.0000
  C   C279      1.0  0.23380  0.71036  0.34545  1.0000
  C   C280      1.0  0.10345  0.74875  0.32283  1.0000
  C   C281      1.0  0.21716  0.89310  0.30255  1.0000
  H   H491      1.0  0.10410  0.75298  0.29381  1.0000
  H   H492      1.0  0.10874  0.71950  0.44031  1.0000
  H   H493      1.0  0.22546  0.70287  0.34960  1.0000
  C   C282      1.0  0.03170  0.76908  0.25041  1.0000
  C   C283      1.0  0.15711  0.81962  0.04248  1.0000
  H   H494      1.0  0.22706  0.95379  0.01628  1.0000
  H   H495      1.0  0.18818  0.90099  0.01856  1.0000
  C   C284      1.0  0.20718  0.96863  0.04555  1.0000
  H   H496      1.0  0.21689  0.90425  0.28333  1.0000
  C   C285      1.0  0.18497  0.89983  0.99352  1.0000
  C   C286      1.0  0.17529  0.71519  0.45054  1.0000
  C   C287      1.0  0.22736  0.73649  0.19836  1.0000
  H   H497      1.0  0.17127  0.84140  0.13044  1.0000
  H   H498      1.0  0.10255  0.84985  0.06482  1.0000
  C   C288      1.0  0.17879  0.68289  0.46850  1.0000
  H   H499      1.0  0.10264  0.83630  0.10596  1.0000
  C   C289      1.0  0.06681  0.82485  0.05155  1.0000
  H   H500      1.0  0.22292  0.86036  0.02511  1.0000
  C   C290      1.0  0.13313  0.72179  0.42037  1.0000
  N   N17       1.0  0.21341  0.96402  0.08012  1.0000
  H   H501      1.0  0.00011  0.73303  0.32598  1.0000
  H   H502      1.0  0.17920  0.81031  0.10319  1.0000
  C   C291      1.0  0.20100  0.85766  0.01466  1.0000
  C   C292      1.0  0.15583  0.79873  0.09434  1.0000
  H   H503      1.0  0.20012  0.80289  0.41015  1.0000
  N   N18       1.0  0.15048  0.81587  0.08138  1.0000
  C   C293      1.0  0.17756  0.82922  0.12988  1.0000
  H   H504      1.0  0.02608  0.77846  0.26607  1.0000
  H   H505      1.0  0.06044  0.83286  0.10217  1.0000
  C   C294      1.0  0.13655  0.73835  0.10344  1.0000
  C   C295      1.0  0.12527  0.83605  0.07174  1.0000
  H   H506      1.0  0.05744  0.83676  0.00482  1.0000
  C   C296      1.0  0.17973  0.70603  0.42370  1.0000
  H   H507      1.0  0.06545  0.76645  0.07676  1.0000
  C   C297      1.0  0.06238  0.77289  0.05087  1.0000
  H   H508      1.0  0.04545  0.82548  0.09064  1.0000
  S   S69       1.0  0.21284  0.67558  0.30696  1.0000
  H   H509      1.0  0.17203  0.89405  0.06510  1.0000
  C   C298      1.0  0.20208  0.97255  0.10725  1.0000
  H   H510      1.0  0.14379  0.76147  0.04256  1.0000
  H   H511      1.0  0.04968  0.77393  0.05225  1.0000
  H   H512      1.0  0.04757  0.82181  0.02926  1.0000
  H   H513      1.0  0.14130  0.79616  0.14720  1.0000
  C   C299      1.0  0.23207  0.83317  0.25214  1.0000
  H   H514      1.0  0.22212  0.69014  0.42417  1.0000
  H   H515      1.0  0.02340  0.73975  0.02183  1.0000
  C   C300      1.0  0.13378  0.71946  0.05017  1.0000
  H   H516      1.0  0.23004  0.84006  0.22670  1.0000
  H   H517      1.0  0.12934  0.83881  0.04275  1.0000
  H   H518      1.0  0.16128  0.91372  0.06144  1.0000
  H   H519      1.0  0.15762  0.77265  0.17479  1.0000
  H   H520      1.0  0.00695  0.72056  0.05663  1.0000
  H   H521      1.0  0.08174  0.73151  0.13535  1.0000
  H   H522      1.0  0.12186  0.70114  0.43821  1.0000
  H   H523      1.0  0.17222  0.74607  0.34375  1.0000
  C   C301      1.0  0.16086  0.75423  0.34498  1.0000
  C   C302      1.0  0.14255  0.71284  0.08190  1.0000
  N   N19       1.0  0.20963  0.75920  0.27782  1.0000
  C   C303      1.0  0.21536  0.74608  0.25658  1.0000
  C   C304      1.0  0.20756  0.75151  0.31639  1.0000
  C   C305      1.0  0.19383  0.76805  0.27051  1.0000
  C   C306      1.0  0.22072  0.77034  0.27073  1.0000
  H   H524      1.0  0.13664  0.90357  0.08585  1.0000
  C   C307      1.0  0.00786  0.75638  0.26774  1.0000
  C   C308      1.0  0.19224  0.77424  0.23121  1.0000
  C   C309      1.0  0.20124  0.76249  0.34409  1.0000
  C   C310      1.0  0.19992  0.75318  0.38179  1.0000
  H   H525      1.0  0.12831  0.81087  0.07762  1.0000
  H   H526      1.0  0.22192  0.84878  0.40811  1.0000
  C   C311      1.0  0.17622  0.78435  0.22798  1.0000
  H   H527      1.0  0.20535  0.74100  0.25453  1.0000
  C   C312      1.0  0.99045  0.73113  0.31478  1.0000
  H   H528      1.0  0.19950  0.74319  0.32110  1.0000
  H   H529      1.0  0.21867  0.74411  0.32317  1.0000
  H   H530      1.0  0.19017  0.77835  0.28406  1.0000
  H   H531      1.0  0.18490  0.76061  0.28166  1.0000
  H   H532      1.0  0.22291  0.77542  0.24211  1.0000
  H   H533      1.0  0.21541  0.78069  0.28366  1.0000
  H   H534      1.0  0.21276  0.89670  0.32895  1.0000
  H   H535      1.0  0.17226  0.77296  0.13530  1.0000
  H   H536      1.0  0.21969  0.76052  0.20272  1.0000
  H   H537      1.0  0.17874  0.98058  0.16230  1.0000
  H   H538      1.0  0.19344  0.76437  0.21716  1.0000
  H   H539      1.0  0.20107  0.78148  0.21781  1.0000
  H   H540      1.0  0.20904  0.77080  0.34176  1.0000
  H   H541      1.0  0.18947  0.76918  0.34083  1.0000
  H   H542      1.0  0.21164  0.74740  0.38763  1.0000
  H   H543      1.0  0.19444  0.76110  0.40112  1.0000
  H   H544      1.0  0.19266  0.74422  0.38531  1.0000
  C   C313      1.0  0.15371  0.79348  0.13523  1.0000
  H   H545      1.0  0.14990  0.82467  0.12906  1.0000
  C   C314      1.0  0.05478  0.83243  0.07985  1.0000
  H   H546      1.0  0.00544  0.70883  0.22079  1.0000
  H   H547      1.0  0.15329  0.76921  0.13473  1.0000
  C   C315      1.0  0.00492  0.73264  0.06185  1.0000
  H   H548      1.0  0.17527  0.78838  0.19954  1.0000
  H   H549      1.0  0.16691  0.77758  0.24073  1.0000
  H   H550      1.0  0.17442  0.79477  0.24059  1.0000
  H   H551      1.0  0.16191  0.76484  0.35398  1.0000
  S   S70       1.0  0.18663  0.67783  0.39974  1.0000
  C   C316      1.0  0.21680  0.78525  0.46414  1.0000
  C   C317      1.0  0.21297  0.78031  0.43179  1.0000
  H   H552      1.0  0.14144  0.70039  0.08978  1.0000
  N   N20       1.0  0.13394  0.72354  0.38088  1.0000
  C   C318      1.0  0.03097  0.76362  0.14203  1.0000
  H   H553      1.0  0.15872  0.88826  0.02134  1.0000
  H   H554      1.0  0.18451  0.95784  0.12939  1.0000
  H   H555      1.0  0.09138  0.72116  0.17183  1.0000
  C   C319      1.0  0.18510  0.96984  0.11475  1.0000
  H   H556      1.0  0.12422  0.70375  0.37837  1.0000
  C   C320      1.0  0.13541  0.70804  0.36983  1.0000
  H   H557      1.0  0.14182  0.76811  0.08398  1.0000
  C   C321      1.0  0.21287  0.65270  0.21453  1.0000
  H   H558      1.0  0.20321  0.94329  0.09491  1.0000
  H   H559      1.0  0.20940  0.91975  0.14059  1.0000
  H   H560      1.0  0.15949  0.74273  0.10515  1.0000
  H   H561      1.0  0.20378  0.72561  0.44240  1.0000
  C   C322      1.0  0.14812  0.89598  0.08864  1.0000
  H   H562      1.0  0.12171  0.71732  0.05752  1.0000
  C   C323      1.0  0.18145  0.68982  0.43257  1.0000
  C   C324      1.0  0.16092  0.90164  0.05944  1.0000
  H   H563      1.0  0.09184  0.71167  0.13494  1.0000
  C   C325      1.0  0.10760  0.83795  0.07726  1.0000
  H   H564      1.0  0.10678  0.73098  0.09461  1.0000
  H   H565      1.0  0.10427  0.82940  0.06486  1.0000
  H   H566      1.0  0.12294  0.73017  0.31523  1.0000
  C   C326      1.0  0.11943  0.73991  0.33038  1.0000
  C   C327      1.0  0.21479  0.94660  0.09089  1.0000
  C   C328      1.0  0.01511  0.76985  0.14198  1.0000
  H   H567      1.0  0.13313  0.70434  0.48860  1.0000
  C   C329      1.0  0.21061  0.79427  0.40188  1.0000
  H   H568      1.0  0.07202  0.81317  0.06443  1.0000
  H   H569      1.0  0.18594  0.88720  0.99423  1.0000
  H   H570      1.0  0.10620  0.74023  0.13118  1.0000
  C   C330      1.0  0.05944  0.82450  0.01914  1.0000
  H   H571      1.0  0.18899  0.90625  0.27751  1.0000
  H   H572      1.0  0.12824  0.81759  0.11670  1.0000
  C   C331      1.0  0.21071  0.86047  0.03560  1.0000
  H   H573      1.0  0.06874  0.76607  0.02987  1.0000
  H   H574      1.0  0.20378  0.87415  0.31446  1.0000
  H   H575      1.0  0.20796  0.88243  0.26794  1.0000
  H   H576      1.0  0.22792  0.86085  0.31090  1.0000
  H   H577      1.0  0.20595  0.96953  0.13340  1.0000
  C   C332      1.0  0.18889  0.89564  0.29827  1.0000
  H   H578      1.0  0.20902  0.79036  0.37806  1.0000
  H   H579      1.0  0.18014  0.88936  0.29467  1.0000
  H   H580      1.0  0.22916  0.86734  0.24901  1.0000
  S   S71       1.0  0.17641  0.69150  0.30048  1.0000
  H   H581      1.0  0.08977  0.80728  0.01631  1.0000
  H   H582      1.0  0.21398  0.73841  0.45388  1.0000
  H   H583      1.0  0.98853  0.71198  0.20036  1.0000
  H   H584      1.0  0.22916  0.97985  0.05426  1.0000
  H   H585      1.0  0.14792  0.68044  0.34486  1.0000
  H   H586      1.0  0.15519  0.71247  0.07181  1.0000
  H   H587      1.0  0.11590  0.74427  0.38419  1.0000
  C   C333      1.0  0.20838  0.72811  0.46431  1.0000
  H   H588      1.0  0.15755  0.67033  0.38152  1.0000
  H   H589      1.0  0.12783  0.74383  0.08598  1.0000
  H   H590      1.0  0.22539  0.71769  0.39594  1.0000
  H   H591      1.0  0.22194  0.94060  0.06914  1.0000
  C   C334      1.0  0.12053  0.71299  0.44415  1.0000
  H   H592      1.0  0.13664  0.67544  0.38840  1.0000
  H   H593      1.0  0.22086  0.80005  0.39457  1.0000
  H   H594      1.0  0.18176  0.71150  0.39622  1.0000
  H   H595      1.0  0.16021  0.79944  0.14759  1.0000
  C   C335      1.0  0.15960  0.77600  0.14542  1.0000
  H   H596      1.0  0.15451  0.92995  0.00386  1.0000
  H   H597      1.0  0.00987  0.72959  0.24900  1.0000
  H   H598      1.0  0.14464  0.71605  0.42799  1.0000
  H   H599      1.0  0.21597  0.94440  0.14735  1.0000
  C   C336      1.0  0.22305  0.82510  0.31473  1.0000
  Fe  Fe37      1.0  0.19205  0.68777  0.34100  1.0000
  H   H600      1.0  0.19025  0.82905  0.12577  1.0000
  H   H601      1.0  0.16001  0.69765  0.37042  1.0000
  H   H602      1.0  0.22807  0.93112  0.23334  1.0000
  H   H603      1.0  0.00797  0.74329  0.20981  1.0000
  S   S72       1.0  0.22301  0.96416  0.23293  1.0000
  C   C337      1.0  0.11917  0.73393  0.37078  1.0000
  C   C338      1.0  0.23400  0.71849  0.37209  1.0000
  H   H604      1.0  0.23041  0.71290  0.45582  1.0000
  H   H605      1.0  0.05888  0.79544  0.06381  1.0000
  C   C339      1.0  0.13291  0.81934  0.08773  1.0000
  H   H606      1.0  0.17002  0.81622  0.03807  1.0000
  H   H607      1.0  0.14946  0.79174  0.08422  1.0000
  H   H608      1.0  0.02585  0.75470  0.21996  1.0000
  H   H609      1.0  0.14166  0.69866  0.02566  1.0000
  H   H610      1.0  0.22244  0.77133  0.42108  1.0000
  H   H611      1.0  0.13361  0.73208  0.04084  1.0000
  C   C340      1.0  0.00288  0.74318  0.99711  1.0000
  H   H612      1.0  0.12794  0.84486  0.08449  1.0000
  C   C341      1.0  0.15214  0.74359  0.08498  1.0000
  H   H613      1.0  0.07626  0.83169  0.04316  1.0000
  H   H614      1.0  0.07888  0.78757  0.04679  1.0000
  C   C342      1.0  0.17308  0.70822  0.48651  1.0000
  C   C343      1.0  0.14846  0.69484  0.38307  1.0000
  H   H615      1.0  0.22768  0.91555  0.11090  1.0000
  H   H616      1.0  0.23460  0.93993  0.11897  1.0000
  C   C344      1.0  0.14942  0.76046  0.06585  1.0000
  C   C345      1.0  0.22216  0.93894  0.12414  1.0000
  H   H617      1.0  0.03833  0.75928  0.26709  1.0000
  H   H618      1.0  0.09957  0.75898  0.33651  1.0000
  H   H619      1.0  0.20743  0.79518  0.47037  1.0000
  H   H620      1.0  0.19224  0.97105  0.21357  1.0000
  C   C346      1.0  0.06419  0.79766  0.00576  1.0000
  H   H621      1.0  0.21597  0.73489  0.19420  1.0000
  H   H622      1.0  0.10921  0.72772  0.38066  1.0000
  H   H623      1.0  0.15875  0.73641  0.06498  1.0000
  C   C347      1.0  0.21826  0.64989  0.17973  1.0000
  C   C348      1.0  0.11174  0.77546  0.02346  1.0000
  H   H624      1.0  0.17985  0.67038  0.47554  1.0000
  H   H625      1.0  0.04004  0.77385  0.22761  1.0000
  C   C349      1.0  0.22163  0.92155  0.13351  1.0000
  H   H626      1.0  0.05164  0.79838  0.00606  1.0000
  H   H627      1.0  0.22753  0.91615  0.15658  1.0000
  C   C350      1.0  0.01954  0.76350  0.23667  1.0000
  H   H628      1.0  0.21597  0.87396  0.36719  1.0000
  H   H629      1.0  0.15355  0.71347  0.00890  1.0000
  H   H630      1.0  0.22763  0.79024  0.45526  1.0000
  S   S73       1.0  0.19732  0.66823  0.22266  1.0000
  C   C351      1.0  0.17442  0.98132  0.13735  1.0000
  H   H631      1.0  0.01120  0.73267  0.08344  1.0000
  H   H632      1.0  0.04956  0.84449  0.06866  1.0000
  H   H633      1.0  0.13841  0.81491  0.01960  1.0000
  C   C352      1.0  0.21903  0.96510  0.01156  1.0000
  H   H634      1.0  0.99221  0.76757  0.20777  1.0000
  C   C353      1.0  0.15122  0.81175  0.01749  1.0000
  H   H635      1.0  0.21661  0.89486  0.99472  1.0000
  H   H636      1.0  0.23101  0.75488  0.46540  1.0000
  C   C354      1.0  0.00124  0.73871  0.23576  1.0000
  S   S74       1.0  0.17220  0.85621  0.00210  1.0000
  H   H637      1.0  0.22618  0.97432  0.00210  1.0000
  H   H638      1.0  0.00808  0.75543  0.03564  1.0000
  C   C355      1.0  0.23420  0.97251  0.10640  1.0000
  H   H639      1.0  0.21669  0.84625  0.36807  1.0000
  H   H640      1.0  0.16252  0.97863  0.14423  1.0000
  H   H641      1.0  0.99029  0.74326  0.00720  1.0000
  H   H642      1.0  0.23260  0.96360  0.13053  1.0000
  H   H643      1.0  0.00390  0.72266  0.17987  1.0000
  C   C356      1.0  0.23629  0.68054  0.46649  1.0000
  N   N21       1.0  0.23359  0.88393  0.30088  1.0000
  C   C357      1.0  0.22906  0.96885  0.07402  1.0000
  H   H644      1.0  0.11070  0.82176  0.00603  1.0000
  C   C358      1.0  0.22039  0.71427  0.47767  1.0000
  C   C359      1.0  0.22753  0.86634  0.36219  1.0000
  C   C360      1.0  0.23417  0.86763  0.32194  1.0000
  H   H645      1.0  0.20403  0.75802  0.48798  1.0000
  H   H646      1.0  0.99232  0.73655  0.07111  1.0000
  C   C361      1.0  0.22568  0.84965  0.37896  1.0000
  H   H647      1.0  0.99485  0.72122  0.30026  1.0000
  H   H648      1.0  0.19859  0.73085  0.48616  1.0000
  C   C362      1.0  0.23271  0.76064  0.48638  1.0000
  H   H649      1.0  0.23470  0.73921  0.17201  1.0000
  H   H650      1.0  0.23512  0.76182  0.31251  1.0000
  H   H651      1.0  0.23237  0.91692  0.29981  1.0000
  H   H652      1.0  0.99031  0.78529  0.25141  1.0000
  C   C363      1.0  0.98921  0.73068  0.22697  1.0000
  C   C364      1.0  0.23656  0.76336  0.28316  1.0000
  H   H653      1.0  0.23686  0.89412  0.24470  1.0000
  H   H654      1.0  0.23686  0.84139  0.37379  1.0000
  C   C365      1.0  0.21332  0.69937  0.49023  1.0000
  H   H655      1.0  0.11985  0.72272  0.49122  1.0000
  Fe  Fe38      1.0  0.18105  0.85780  0.94357  1.0000
  S   S75       1.0  0.16352  0.86833  0.90777  1.0000
  H   H656      1.0  0.04536  0.80881  0.95455  1.0000
  Fe  Fe39      1.0  0.20726  0.85117  0.88228  1.0000
  S   S76       1.0  0.19185  0.86137  0.84164  1.0000
  H   H657      1.0  0.20645  0.79428  0.58670  1.0000
  Fe  Fe40      1.0  0.18253  0.88062  0.87415  1.0000
  S   S77       1.0  0.17710  0.90674  0.85251  1.0000
  Fe  Fe41      1.0  0.17436  0.84823  0.87917  1.0000
  S   S78       1.0  0.16395  0.83018  0.86370  1.0000
  S   S79       1.0  0.19922  0.87127  0.91220  1.0000
  S   S80       1.0  0.19064  0.83687  0.91771  1.0000
  H   H658      1.0  0.23406  0.77910  0.52449  1.0000
  N   N22       1.0  0.21855  0.77272  0.49646  1.0000
  Fe  Fe42      1.0  0.09080  0.79773  0.86756  1.0000
  S   S81       1.0  0.10974  0.77670  0.86563  1.0000
  S   S82       1.0  0.09466  0.82099  0.87515  1.0000
  Fe  Fe43      1.0  0.06579  0.77983  0.85968  1.0000
  S   S83       1.0  0.08336  0.75747  0.85748  1.0000
  S   S84       1.0  0.03931  0.78392  0.86159  1.0000
  Fe  Fe44      1.0  0.09193  0.76393  0.90175  1.0000
  S   S85       1.0  0.09634  0.74864  0.95387  1.0000
  Fe  Fe45      1.0  0.09966  0.77251  0.82164  1.0000
  S   S86       1.0  0.11590  0.77067  0.76909  1.0000
  S   S87       1.0  0.07345  0.78522  0.90627  1.0000
  S   S88       1.0  0.08156  0.79457  0.82105  1.0000
  H   H659      1.0  0.23107  0.90766  0.73412  1.0000
  Fe  Fe46      1.0  0.18773  0.73326  0.61320  1.0000
  S   S89       1.0  0.18953  0.71471  0.66104  1.0000
  S   S90       1.0  0.19648  0.75540  0.60468  1.0000
  H   H660      1.0  0.15839  0.73759  0.80374  1.0000
  C   C366      1.0  0.23146  0.82946  0.81048  1.0000
  H   H661      1.0  0.11478  0.82836  0.78325  1.0000
  Fe  Fe47      1.0  0.16600  0.71214  0.65451  1.0000
  S   S91       1.0  0.14793  0.70965  0.70447  1.0000
  H   H662      1.0  0.14009  0.90138  0.97072  1.0000
  S   S92       1.0  0.16354  0.73215  0.60924  1.0000
  N   N23       1.0  0.16234  0.79116  0.77619  1.0000
  C   C367      1.0  0.20094  0.75886  0.64319  1.0000
  C   C368      1.0  0.19248  0.75416  0.67674  1.0000
  C   C369      1.0  0.19610  0.75767  0.70698  1.0000
  H   H663      1.0  0.18897  0.82201  0.79042  1.0000
  H   H664      1.0  0.19572  0.90473  0.93793  1.0000
  H   H665      1.0  0.20410  0.95515  0.98882  1.0000
  H   H666      1.0  0.18296  0.74817  0.67925  1.0000
  H   H667      1.0  0.18951  0.75421  0.73290  1.0000
  H   H668      1.0  0.15961  0.95785  0.97499  1.0000
  H   H669      1.0  0.21902  0.88739  0.73012  1.0000
  C   C370      1.0  0.19199  0.69941  0.75591  1.0000
  H   H670      1.0  0.17480  0.81653  0.65689  1.0000
  H   H671      1.0  0.19480  0.65231  0.88756  1.0000
  H   H672      1.0  0.03085  0.77426  0.94845  1.0000
  H   H673      1.0  0.99406  0.69523  0.78099  1.0000
  C   C371      1.0  0.12609  0.75333  0.75392  1.0000
  C   C372      1.0  0.13586  0.75449  0.72072  1.0000
  C   C373      1.0  0.14303  0.74111  0.70592  1.0000
  C   C374      1.0  0.14030  0.72646  0.72403  1.0000
  C   C375      1.0  0.13092  0.72524  0.75780  1.0000
  C   C376      1.0  0.12403  0.73862  0.77298  1.0000
  H   H674      1.0  0.13767  0.76581  0.70599  1.0000
  H   H675      1.0  0.15035  0.74219  0.68008  1.0000
  H   H676      1.0  0.12892  0.71392  0.77214  1.0000
  H   H677      1.0  0.11685  0.73759  0.79898  1.0000
  C   C377      1.0  0.00504  0.76228  0.82233  1.0000
  C   C378      1.0  0.02071  0.75482  0.82124  1.0000
  C   C379      1.0  0.03130  0.76113  0.83348  1.0000
  C   C380      1.0  0.02642  0.77514  0.84655  1.0000
  C   C381      1.0  0.01067  0.78238  0.84848  1.0000
  C   C382      1.0  0.00004  0.77601  0.83655  1.0000
  H   H678      1.0  0.02464  0.74402  0.81106  1.0000
  H   H679      1.0  0.04318  0.75512  0.83315  1.0000
  H   H680      1.0  0.00667  0.79314  0.85885  1.0000
  C   C383      1.0  0.09255  0.82694  0.97352  1.0000
  C   C384      1.0  0.10311  0.75838  0.98054  1.0000
  C   C385      1.0  0.16421  0.90497  0.95783  1.0000
  H   H681      1.0  0.22322  0.65983  0.51201  1.0000
  C   C386      1.0  0.21653  0.70867  0.72073  1.0000
  S   S93       1.0  0.17527  0.69405  0.61877  1.0000
  H   H682      1.0  0.11454  0.80900  0.80805  1.0000
  H   H683      1.0  0.02710  0.74101  0.94762  1.0000
  C   C387      1.0  0.14429  0.82789  0.87275  1.0000
  C   C388      1.0  0.13192  0.84062  0.87234  1.0000
  C   C389      1.0  0.11667  0.83834  0.87401  1.0000
  C   C390      1.0  0.11370  0.82337  0.87613  1.0000
  C   C391      1.0  0.12597  0.81061  0.87841  1.0000
  C   C392      1.0  0.14116  0.81287  0.87664  1.0000
  H   H684      1.0  0.13418  0.85225  0.86915  1.0000
  H   H685      1.0  0.10723  0.84828  0.87251  1.0000
  H   H686      1.0  0.12385  0.79901  0.88110  1.0000
  H   H687      1.0  0.15059  0.80293  0.87772  1.0000
  C   C393      1.0  0.18712  0.92049  0.85988  1.0000
  C   C394      1.0  0.20155  0.91578  0.87085  1.0000
  C   C395      1.0  0.16952  0.80171  0.79072  1.0000
  C   C396      1.0  0.20223  0.94269  0.87382  1.0000
  C   C397      1.0  0.18796  0.94752  0.86184  1.0000
  C   C398      1.0  0.18047  0.93645  0.85484  1.0000
  H   H688      1.0  0.20677  0.90358  0.87470  1.0000
  H   H689      1.0  0.09233  0.82970  0.94462  1.0000
  H   H690      1.0  0.18262  0.95972  0.85841  1.0000
  H   H691      1.0  0.16937  0.94027  0.84595  1.0000
  H   H692      1.0  0.19005  0.89356  0.72992  1.0000
  C   C399      1.0  0.23643  0.65159  0.72672  1.0000
  H   H693      1.0  0.21948  0.96272  0.95731  1.0000
  H   H694      1.0  0.11321  0.77409  0.93667  1.0000
  C   C400      1.0  0.99537  0.75380  0.93905  1.0000
  H   H695      1.0  0.09187  0.80308  0.97342  1.0000
  H   H696      1.0  0.11692  0.81234  0.76017  1.0000
  N   N24       1.0  0.00511  0.75560  0.96460  1.0000
  C   C401      1.0  0.22933  0.88146  0.81245  1.0000
  C   C402      1.0  0.02194  0.75362  0.94640  1.0000
  H   H697      1.0  0.11366  0.83614  0.96645  1.0000
  C   C403      1.0  0.21314  0.76665  0.64000  1.0000
  H   H698      1.0  0.19887  0.91740  0.96517  1.0000
  H   H699      1.0  0.05266  0.75675  0.91718  1.0000
  H   H700      1.0  0.23573  0.67290  0.54410  1.0000
  H   H701      1.0  0.00135  0.78057  0.94836  1.0000
  H   H702      1.0  0.21998  0.76993  0.61431  1.0000
  C   C404      1.0  0.21747  0.88445  0.75952  1.0000
  H   H703      1.0  0.13140  0.91617  0.91577  1.0000
  H   H704      1.0  0.18052  0.95187  0.97204  1.0000
  S   S94       1.0  0.99233  0.75411  0.80517  1.0000
  H   H705      1.0  0.23138  0.81928  0.76506  1.0000
  H   H706      1.0  0.99002  0.74732  0.73260  1.0000
  H   H707      1.0  0.02273  0.75865  0.91762  1.0000
  H   H708      1.0  0.22930  0.66083  0.86866  1.0000
  H   H709      1.0  0.18531  0.71156  0.75302  1.0000
  H   H710      1.0  0.03905  0.82623  0.97418  1.0000
  C   C405      1.0  0.20913  0.69916  0.75575  1.0000
  C   C406      1.0  0.04433  0.82994  0.91705  1.0000
  H   H711      1.0  0.08567  0.83714  0.98517  1.0000
  H   H712      1.0  0.21521  0.68685  0.75915  1.0000
  H   H713      1.0  0.18788  0.65818  0.58304  1.0000
  H   H714      1.0  0.14859  0.90190  0.90551  1.0000
  H   H715      1.0  0.01192  0.74136  0.89961  1.0000
  H   H716      1.0  0.98803  0.78188  0.83776  1.0000
  H   H717      1.0  0.01162  0.66872  0.78989  1.0000
  C   C407      1.0  0.22849  0.93122  0.76771  1.0000
  C   C408      1.0  0.00213  0.66341  0.78612  1.0000
  H   H718      1.0  0.18812  0.77980  0.54169  1.0000
  C   C409      1.0  0.20473  0.76474  0.50814  1.0000
  C   C410      1.0  0.20829  0.76563  0.70349  1.0000
  H   H719      1.0  0.03118  0.76032  0.98851  1.0000
  H   H720      1.0  0.00270  0.65176  0.80330  1.0000
  C   C411      1.0  0.19554  0.65788  0.55676  1.0000
  S   S95       1.0  0.21182  0.95571  0.88566  1.0000
  H   H721      1.0  0.18756  0.87846  0.76846  1.0000
  C   C412      1.0  0.99952  0.77182  0.97311  1.0000
  C   C413      1.0  0.18842  0.89092  0.75935  1.0000
  H   H722      1.0  0.21536  0.70305  0.69893  1.0000
  C   C414      1.0  0.13749  0.81321  0.78067  1.0000
  H   H723      1.0  0.16270  0.78359  0.72696  1.0000
  H   H724      1.0  0.15978  0.93749  0.93991  1.0000
  C   C415      1.0  0.20902  0.92678  0.87791  1.0000
  H   H725      1.0  0.17725  0.74258  0.79863  1.0000
  H   H726      1.0  0.23274  0.91192  0.80945  1.0000
  H   H727      1.0  0.14229  0.82030  0.75579  1.0000
  H   H728      1.0  0.14571  0.76503  0.79986  1.0000
  N   N25       1.0  0.07670  0.75938  0.73657  1.0000
  C   C416      1.0  0.06867  0.77142  0.75957  1.0000
  C   C417      1.0  0.08516  0.74552  0.75901  1.0000
  C   C418      1.0  0.08883  0.76647  0.70858  1.0000
  C   C419      1.0  0.06568  0.75453  0.71842  1.0000
  C   C420      1.0  0.04869  0.75478  0.73853  1.0000
  C   C421      1.0  0.06166  0.78752  0.73938  1.0000
  C   C422      1.0  0.10000  0.75541  0.68463  1.0000
  C   C423      1.0  0.07511  0.73607  0.78921  1.0000
  C   C424      1.0  0.08530  0.72314  0.81109  1.0000
  C   C425      1.0  0.03963  0.74702  0.72065  1.0000
  C   C426      1.0  0.04895  0.79674  0.76366  1.0000
  C   C427      1.0  0.10960  0.76446  0.65340  1.0000
  H   H729      1.0  0.07699  0.77357  0.77466  1.0000
  H   H730      1.0  0.05939  0.76713  0.78043  1.0000
  H   H731      1.0  0.09216  0.73685  0.74258  1.0000
  H   H732      1.0  0.09349  0.74941  0.77107  1.0000
  H   H733      1.0  0.09619  0.77146  0.72111  1.0000
  H   H734      1.0  0.08316  0.77645  0.69045  1.0000
  H   H735      1.0  0.06468  0.76218  0.69220  1.0000
  H   H736      1.0  0.07053  0.74264  0.71208  1.0000
  H   H737      1.0  0.04235  0.76692  0.73906  1.0000
  H   H738      1.0  0.04822  0.74877  0.76633  1.0000
  H   H739      1.0  0.07098  0.79449  0.72854  1.0000
  H   H740      1.0  0.05663  0.78634  0.71677  1.0000
  H   H741      1.0  0.09348  0.74880  0.67393  1.0000
  H   H742      1.0  0.10843  0.74702  0.69979  1.0000
  H   H743      1.0  0.06750  0.74353  0.80760  1.0000
  H   H744      1.0  0.06800  0.73029  0.77799  1.0000
  H   H745      1.0  0.09318  0.71514  0.79401  1.0000
  H   H746      1.0  0.09241  0.72814  0.82415  1.0000
  H   H747      1.0  0.07783  0.71631  0.83206  1.0000
  H   H748      1.0  0.02748  0.74773  0.73529  1.0000
  H   H749      1.0  0.03929  0.75303  0.69282  1.0000
  H   H750      1.0  0.04502  0.73455  0.72094  1.0000
  H   H751      1.0  0.05354  0.79841  0.78651  1.0000
  H   H752      1.0  0.04465  0.80839  0.74869  1.0000
  H   H753      1.0  0.03899  0.79059  0.77381  1.0000
  H   H754      1.0  0.11631  0.77125  0.66311  1.0000
  H   H755      1.0  0.11798  0.75618  0.63779  1.0000
  H   H756      1.0  0.10196  0.77250  0.63571  1.0000
  H   H757      1.0  0.16278  0.74588  0.83775  1.0000
  H   H758      1.0  0.19072  0.69398  0.73398  1.0000
  S   S96       1.0  0.22159  0.68102  0.62384  1.0000
  H   H759      1.0  0.22562  0.86996  0.82036  1.0000
  H   H760      1.0  0.99425  0.76431  0.91780  1.0000
  C   C428      1.0  0.15837  0.76237  0.78961  1.0000
  H   H761      1.0  0.00744  0.73140  0.99025  1.0000
  H   H762      1.0  0.17729  0.89811  0.77015  1.0000
  C   C429      1.0  0.22522  0.72995  0.76039  1.0000
  C   C430      1.0  0.00142  0.73955  0.91977  1.0000
  H   H763      1.0  0.16718  0.89223  0.95700  1.0000
  C   C431      1.0  0.22693  0.66976  0.66381  1.0000
  H   H764      1.0  0.21280  0.65913  0.75159  1.0000
  C   C432      1.0  0.20181  0.89469  0.77250  1.0000
  H   H765      1.0  0.18639  0.78512  0.49527  1.0000
  C   C433      1.0  0.21690  0.76986  0.67007  1.0000
  N   N26       1.0  0.23154  0.88628  0.77260  1.0000
  C   C434      1.0  0.11986  0.81585  0.78312  1.0000
  H   H766      1.0  0.14169  0.92145  0.96477  1.0000
  H   H767      1.0  0.21135  0.66956  0.56951  1.0000
  H   H768      1.0  0.99254  0.71980  0.76344  1.0000
  H   H769      1.0  0.18815  0.65897  0.53657  1.0000
  Fe  Fe48      1.0  0.19876  0.69822  0.62254  1.0000
  H   H770      1.0  0.17250  0.68662  0.52296  1.0000
  H   H771      1.0  0.13970  0.79073  0.76537  1.0000
  H   H772      1.0  0.00647  0.77425  0.99082  1.0000
  C   C435      1.0  0.14478  0.79563  0.78323  1.0000
  H   H773      1.0  0.14004  0.79034  0.81079  1.0000
  C   C436      1.0  0.11080  0.77078  0.96512  1.0000
  H   H774      1.0  0.22296  0.89976  0.94748  1.0000
  H   H775      1.0  0.15998  0.76173  0.76109  1.0000
  H   H776      1.0  0.13971  0.81773  0.80303  1.0000
  C   C437      1.0  0.14672  0.91039  0.95469  1.0000
  H   H777      1.0  0.21803  0.77188  0.55246  1.0000
  H   H778      1.0  0.21270  0.72956  0.76391  1.0000
  H   H779      1.0  0.21963  0.88943  0.82584  1.0000
  H   H780      1.0  0.19594  0.68221  0.54916  1.0000
  H   H781      1.0  0.22326  0.93929  0.78692  1.0000
  C   C438      1.0  0.16464  0.74612  0.80869  1.0000
  H   H782      1.0  0.16451  0.77466  0.82506  1.0000
  H   H783      1.0  0.18691  0.69273  0.78135  1.0000
  C   C439      1.0  0.05002  0.75491  0.94663  1.0000
  H   H784      1.0  0.05280  0.74226  0.95731  1.0000
  C   C440      1.0  0.16678  0.77475  0.79590  1.0000
  Fe  Fe49      1.0  0.17491  0.71457  0.57357  1.0000
  H   H785      1.0  0.18100  0.78546  0.73346  1.0000
  H   H786      1.0  0.12143  0.78856  0.97416  1.0000
  H   H787      1.0  0.17112  0.81337  0.97452  1.0000
  C   C441      1.0  0.16851  0.79101  0.73728  1.0000
  H   H788      1.0  0.17946  0.77028  0.78867  1.0000
  H   H789      1.0  0.20433  0.70163  0.51374  1.0000
  C   C442      1.0  0.04749  0.82069  0.95325  1.0000
  H   H790      1.0  0.16513  0.80100  0.81972  1.0000
  H   H791      1.0  0.03230  0.82983  0.91411  1.0000
  C   C443      1.0  0.22826  0.73322  0.79483  1.0000
  H   H792      1.0  0.05256  0.82464  0.89537  1.0000
  H   H793      1.0  0.15507  0.82969  0.97074  1.0000
  H   H794      1.0  0.19914  0.89279  0.80174  1.0000
  H   H795      1.0  0.21983  0.80443  0.50823  1.0000
  C   C444      1.0  0.21433  0.80039  0.56514  1.0000
  H   H796      1.0  0.17733  0.75599  0.54617  1.0000
  C   C445      1.0  0.23305  0.78039  0.85668  1.0000
  C   C446      1.0  0.18871  0.77525  0.51713  1.0000
  S   S97       1.0  0.19903  0.71728  0.57476  1.0000
  C   C447      1.0  0.22108  0.65983  0.72705  1.0000
  H   H797      1.0  0.20617  0.75582  0.53226  1.0000
  C   C448      1.0  0.21382  0.89509  0.96827  1.0000
  H   H798      1.0  0.19228  0.78661  0.79750  1.0000
  H   H799      1.0  0.22065  0.74428  0.80109  1.0000
  C   C449      1.0  0.21359  0.79649  0.52947  1.0000
  C   C450      1.0  0.19346  0.80969  0.80140  1.0000
  S   S98       1.0  0.16749  0.72022  0.51925  1.0000
  C   C451      1.0  0.23263  0.68483  0.52865  1.0000
  C   C452      1.0  0.16680  0.80683  0.71185  1.0000
  C   C453      1.0  0.17655  0.80520  0.67520  1.0000
  H   H800      1.0  0.17309  0.79634  0.66396  1.0000
  C   C454      1.0  0.17565  0.76596  0.52405  1.0000
  H   H801      1.0  0.22329  0.78787  0.84410  1.0000
  C   C455      1.0  0.17049  0.95244  0.95904  1.0000
  H   H802      1.0  0.20450  0.67518  0.69617  1.0000
  H   H803      1.0  0.16590  0.81413  0.77921  1.0000
  H   H804      1.0  0.21601  0.87203  0.76676  1.0000
  S   S99       1.0  0.21301  0.77021  0.74065  1.0000
  H   H805      1.0  0.16428  0.77355  0.53159  1.0000
  H   H806      1.0  0.20122  0.79908  0.52658  1.0000
  C   C456      1.0  0.18756  0.79858  0.78497  1.0000
  H   H807      1.0  0.15450  0.81087  0.70823  1.0000
  H   H808      1.0  0.19249  0.80028  0.75623  1.0000
  H   H809      1.0  0.22454  0.69173  0.54789  1.0000
  C   C457      1.0  0.15825  0.81685  0.97871  1.0000
  H   H810      1.0  0.21046  0.81311  0.56466  1.0000
  C   C458      1.0  0.06448  0.81998  0.95746  1.0000
  C   C459      1.0  0.10949  0.82502  0.97766  1.0000
  H   H811      1.0  0.21398  0.88302  0.96510  1.0000
  S   S100      1.0  0.23296  0.84144  0.86918  1.0000
  H   H812      1.0  0.22006  0.92291  0.88710  1.0000
  H   H813      1.0  0.22637  0.71559  0.64696  1.0000
  C   C460      1.0  0.03295  0.76157  0.95936  1.0000
  H   H814      1.0  0.07218  0.81300  0.93786  1.0000
  H   H815      1.0  0.21945  0.82888  0.82194  1.0000
  C   C461      1.0  0.16944  0.93617  0.95462  1.0000
  C   C462      1.0  0.23590  0.71482  0.75039  1.0000
  H   H816      1.0  0.22635  0.77583  0.66710  1.0000
  H   H817      1.0  0.05759  0.76081  0.95619  1.0000
  H   H818      1.0  0.20961  0.70393  0.77929  1.0000
  H   H819      1.0  0.98970  0.68892  0.74526  1.0000
  H   H820      1.0  0.20908  0.72047  0.71662  1.0000
  H   H821      1.0  0.17069  0.81582  0.72154  1.0000
  C   C463      1.0  0.20453  0.67123  0.54803  1.0000
  H   H822      1.0  0.18977  0.80767  0.83067  1.0000
  H   H823      1.0  0.23501  0.70531  0.77386  1.0000
  H   H824      1.0  0.20636  0.80759  0.79548  1.0000
  H   H825      1.0  0.18026  0.93164  0.93747  1.0000
  H   H826      1.0  0.99453  0.72877  0.88228  1.0000
  H   H827      1.0  0.20759  0.67180  0.49181  1.0000
  H   H828      1.0  0.14986  0.92224  0.89967  1.0000
  C   C464      1.0  0.21636  0.66897  0.69575  1.0000
  C   C465      1.0  0.14404  0.91280  0.91654  1.0000
  H   H829      1.0  0.18912  0.80166  0.67698  1.0000
  N   N27       1.0  0.22452  0.68433  0.49880  1.0000
  H   H830      1.0  0.00397  0.66184  0.75805  1.0000
  H   H831      1.0  0.04560  0.84222  0.91434  1.0000
  H   H832      1.0  0.17124  0.91024  0.93325  1.0000
  H   H833      1.0  0.99132  0.73404  0.70290  1.0000
  H   H834      1.0  0.17531  0.76144  0.49996  1.0000
  C   C466      1.0  0.22139  0.77935  0.52656  1.0000
  H   H835      1.0  0.15372  0.81127  0.96127  1.0000
  H   H836      1.0  0.20208  0.90717  0.76193  1.0000
  H   H837      1.0  0.06676  0.83204  0.94829  1.0000
  C   C467      1.0  0.23466  0.90270  0.76041  1.0000
  C   C468      1.0  0.19796  0.90536  0.96407  1.0000
  H   H838      1.0  0.11695  0.81595  0.96290  1.0000
  H   H839      1.0  0.22414  0.71727  0.50019  1.0000
  H   H840      1.0  0.20275  0.97601  0.97511  1.0000
  H   H841      1.0  0.20571  0.85539  0.98807  1.0000
  H   H842      1.0  0.22638  0.79697  0.57089  1.0000
  H   H843      1.0  0.23406  0.74109  0.61996  1.0000
  H   H844      1.0  0.22852  0.73992  0.52674  1.0000
  C   C469      1.0  0.21525  0.67138  0.51105  1.0000
  C   C470      1.0  0.17475  0.69204  0.49540  1.0000
  H   H845      1.0  0.07067  0.78992  0.98640  1.0000
  C   C471      1.0  0.22700  0.91460  0.78582  1.0000
  H   H846      1.0  0.11246  0.70488  0.50001  1.0000
  C   C472      1.0  0.21077  0.96476  0.98146  1.0000
  H   H847      1.0  0.23361  0.89315  0.87197  1.0000
  C   C473      1.0  0.11547  0.77901  0.98648  1.0000
  H   H848      1.0  0.22222  0.93488  0.74480  1.0000
  H   H849      1.0  0.22845  0.77608  0.88486  1.0000
  H   H850      1.0  0.23268  0.87263  0.88333  1.0000
  H   H851      1.0  0.17232  0.95994  0.93251  1.0000
  H   H852      1.0  0.21451  0.91448  0.79561  1.0000
  H   H853      1.0  0.22901  0.73301  0.68668  1.0000
  N   N28       1.0  0.23328  0.70987  0.71800  1.0000
  H   H854      1.0  0.00450  0.72861  0.93842  1.0000
  H   H855      1.0  0.22770  0.73980  0.73909  1.0000
  C   C474      1.0  0.98919  0.73724  0.90044  1.0000
  H   H856      1.0  0.22566  0.72370  0.81724  1.0000
  N   N29       1.0  0.16850  0.90809  0.99062  1.0000
  C   C475      1.0  0.16653  0.92528  0.99115  1.0000
  C   C476      1.0  0.08587  0.81191  0.99045  1.0000
  H   H857      1.0  0.33028  0.14393  0.17787  1.0000
  C   C477      1.0  0.24134  0.04337  0.27465  1.0000
  Fe  Fe50      1.0  0.27430  0.06852  0.37455  1.0000
  S   S101      1.0  0.26626  0.07837  0.42528  1.0000
  S   S102      1.0  0.26399  0.04855  0.36626  1.0000
  Fe  Fe51      1.0  0.29638  0.09178  0.34403  1.0000
  S   S103      1.0  0.28980  0.10358  0.39160  1.0000
  S   S104      1.0  0.31158  0.09996  0.29231  1.0000
  Fe  Fe52      1.0  0.29109  0.07952  0.42404  1.0000
  S   S105      1.0  0.30250  0.07227  0.47354  1.0000
  Fe  Fe53      1.0  0.26558  0.10156  0.38956  1.0000
  H   H858      1.0  0.26444  0.24996  0.07787  1.0000
  S   S106      1.0  0.29962  0.06753  0.37604  1.0000
  S   S107      1.0  0.27181  0.09177  0.33926  1.0000
  Fe  Fe54      1.0  0.36583  0.16238  0.22912  1.0000
  S   S108      1.0  0.35282  0.17060  0.18313  1.0000
  S   S109      1.0  0.35871  0.14531  0.27893  1.0000
  Fe  Fe55      1.0  0.38615  0.18755  0.20533  1.0000
  S   S110      1.0  0.37447  0.19736  0.15800  1.0000
  S   S111      1.0  0.40393  0.20211  0.20672  1.0000
  Fe  Fe56      1.0  0.35212  0.19430  0.19437  1.0000
  S   S112      1.0  0.32961  0.21162  0.19955  1.0000
  Fe  Fe57      1.0  0.37631  0.17302  0.14961  1.0000
  S   S113      1.0  0.38603  0.17183  0.09102  1.0000
  S   S114      1.0  0.36348  0.18620  0.24220  1.0000
  S   S115      1.0  0.38968  0.16300  0.19506  1.0000
  H   H859      1.0  0.33523  0.01618  0.19244  1.0000
  S   S116      1.0  0.28805  0.28561  0.10489  1.0000
  H   H860      1.0  0.28596  0.23776  0.15248  1.0000
  Fe  Fe58      1.0  0.46224  0.25765  0.33291  1.0000
  S   S117      1.0  0.30248  0.29748  0.16303  1.0000
  Fe  Fe59      1.0  0.31027  0.29202  0.10831  1.0000
  S   S118      1.0  0.33267  0.27567  0.09555  1.0000
  Fe  Fe60      1.0  0.27938  0.29288  0.15815  1.0000
  S   S119      1.0  0.26995  0.27524  0.20431  1.0000
  C   C478      1.0  0.34035  0.06920  0.40527  1.0000
  H   H861      1.0  0.35411  0.14916  0.03438  1.0000
  S   S120      1.0  0.41699  0.26710  0.34270  1.0000
  S   S121      1.0  0.43136  0.29568  0.25217  1.0000
  H   H862      1.0  0.26911  0.26311  0.14033  1.0000
  C   C479      1.0  0.26779  0.25379  0.12734  1.0000
  H   H863      1.0  0.46303  0.29929  0.25252  1.0000
  C   C480      1.0  0.33238  0.10658  0.48783  1.0000
  H   H864      1.0  0.25880  0.24762  0.14494  1.0000
  H   H865      1.0  0.32318  0.22185  0.10867  1.0000
  S   S122      1.0  0.42187  0.22348  0.33606  1.0000
  H   H866      1.0  0.40592  0.22422  0.46266  1.0000
  H   H867      1.0  0.23887  0.30977  0.14045  1.0000
  H   H868      1.0  0.32232  0.16136  0.14967  1.0000
  H   H869      1.0  0.31576  0.00977  0.24601  1.0000
  H   H870      1.0  0.23939  0.08730  0.33482  1.0000
  H   H871      1.0  0.31334  0.13584  0.45826  1.0000
  H   H872      1.0  0.35943  0.20028  0.01199  1.0000
  H   H873      1.0  0.46305  0.30337  0.19275  1.0000
  C   C481      1.0  0.40874  0.20783  0.24319  1.0000
  C   C482      1.0  0.41627  0.22062  0.23678  1.0000
  C   C483      1.0  0.42027  0.22564  0.26486  1.0000
  H   H874      1.0  0.30989  0.20415  0.15565  1.0000
  C   C484      1.0  0.40538  0.19999  0.27803  1.0000
  H   H875      1.0  0.41904  0.22667  0.20989  1.0000
  H   H876      1.0  0.42609  0.23547  0.25951  1.0000
  C   C485      1.0  0.23900  0.30284  0.26742  1.0000
  C   C486      1.0  0.26352  0.26041  0.08979  1.0000
  H   H877      1.0  0.24861  0.11752  0.28060  1.0000
  H   H878      1.0  0.42193  0.22482  0.42610  1.0000
  H   H879      1.0  0.28001  0.10009  0.49088  1.0000
  C   C487      1.0  0.33042  0.22950  0.17090  1.0000
  C   C488      1.0  0.31720  0.24126  0.17071  1.0000
  C   C489      1.0  0.31783  0.25551  0.14763  1.0000
  C   C490      1.0  0.33164  0.25798  0.12450  1.0000
  C   C491      1.0  0.34481  0.24621  0.12465  1.0000
  C   C492      1.0  0.34418  0.23208  0.14798  1.0000
  H   H880      1.0  0.30651  0.23946  0.18866  1.0000
  H   H881      1.0  0.30764  0.26460  0.14825  1.0000
  H   H882      1.0  0.35553  0.24806  0.10692  1.0000
  H   H883      1.0  0.35436  0.22324  0.14811  1.0000
  H   H884      1.0  0.31704  0.18847  0.13070  1.0000
  C   C493      1.0  0.38501  0.30234  0.21349  1.0000
  H   H885      1.0  0.47689  0.27987  0.18958  1.0000
  H   H886      1.0  0.39471  0.22334  0.04477  1.0000
  H   H887      1.0  0.39975  0.19003  0.28332  1.0000
  H   H888      1.0  0.26233  0.24532  0.23539  1.0000
  C   C494      1.0  0.25238  0.14658  0.30123  1.0000
  C   C495      1.0  0.25377  0.13450  0.33045  1.0000
  H   H889      1.0  0.32188  0.26164  0.01193  1.0000
  H   H890      1.0  0.29717  0.03421  0.37202  1.0000
  H   H891      1.0  0.41225  0.24244  0.44261  1.0000
  H   H892      1.0  0.25896  0.14493  0.27532  1.0000
  H   H893      1.0  0.26159  0.12368  0.32702  1.0000
  H   H894      1.0  0.26152  0.25817  0.02129  1.0000
  C   C496      1.0  0.41619  0.22971  0.45048  1.0000
  C   C497      1.0  0.34507  0.13334  0.28200  1.0000
  C   C498      1.0  0.33792  0.12680  0.31570  1.0000
  C   C499      1.0  0.32747  0.11672  0.31926  1.0000
  C   C500      1.0  0.32415  0.11305  0.28906  1.0000
  C   C501      1.0  0.33116  0.11972  0.25535  1.0000
  C   C502      1.0  0.34155  0.12988  0.25180  1.0000
  H   H895      1.0  0.34059  0.12949  0.33909  1.0000
  H   H896      1.0  0.32215  0.11161  0.34527  1.0000
  H   H897      1.0  0.32872  0.11685  0.23187  1.0000
  H   H898      1.0  0.34717  0.13468  0.22577  1.0000
  H   H899      1.0  0.31688  0.02549  0.35484  1.0000
  H   H900      1.0  0.38188  0.22126  0.08696  1.0000
  H   H901      1.0  0.26289  0.16582  0.46588  1.0000
  C   C503      1.0  0.25472  0.04718  0.33130  1.0000
  C   C504      1.0  0.25291  0.05920  0.30226  1.0000
  C   C505      1.0  0.33725  0.08969  0.44368  1.0000
  C   C506      1.0  0.30681  0.12674  0.45825  1.0000
  H   H902      1.0  0.25707  0.06977  0.30094  1.0000
  H   H903      1.0  0.26847  0.17257  0.40099  1.0000
  Fe  Fe61      1.0  0.43476  0.27832  0.30213  1.0000
  C   C507      1.0  0.37821  0.16915  0.05517  1.0000
  C   C508      1.0  0.33804  0.01454  0.21946  1.0000
  H   H904      1.0  0.40692  0.19874  0.33290  1.0000
  H   H905      1.0  0.36178  0.15527  0.08662  1.0000
  H   H906      1.0  0.33261  0.13901  0.41405  1.0000
  C   C509      1.0  0.32717  0.20917  0.10915  1.0000
  H   H907      1.0  0.31191  0.23095  0.05159  1.0000
  N   N30       1.0  0.34386  0.21517  0.04689  1.0000
  C   C510      1.0  0.32039  0.23721  0.03231  1.0000
  C   C511      1.0  0.33292  0.20532  0.07124  1.0000
  H   H908      1.0  0.32243  0.20608  0.05975  1.0000
  C   C512      1.0  0.35811  0.21270  0.06375  1.0000
  H   H909      1.0  0.28267  0.23223  0.11348  1.0000
  C   C513      1.0  0.28339  0.29354  0.99507  1.0000
  C   C514      1.0  0.41696  0.21777  0.29970  1.0000
  C   C515      1.0  0.31690  0.11323  0.43950  1.0000
  H   H910      1.0  0.40406  0.28247  0.21125  1.0000
  C   C516      1.0  0.34503  0.11499  0.42517  1.0000
  H   H911      1.0  0.34622  0.02226  0.21919  1.0000
  C   C517      1.0  0.24626  0.05731  0.27419  1.0000
  C   C518      1.0  0.33507  0.08647  0.40768  1.0000
  H   H912      1.0  0.46271  0.31200  0.36049  1.0000
  H   H913      1.0  0.36867  0.31226  0.38133  1.0000
  H   H914      1.0  0.41008  0.30102  0.19764  1.0000
  H   H915      1.0  0.23998  0.25670  0.36625  1.0000
  N   N31       1.0  0.33287  0.10648  0.44907  1.0000
  H   H916      1.0  0.35684  0.10921  0.43068  1.0000
  C   C519      1.0  0.45511  0.31126  0.38694  1.0000
  H   H917      1.0  0.31786  0.11706  0.41023  1.0000
  H   H918      1.0  0.36761  0.23375  0.03710  1.0000
  C   C520      1.0  0.47377  0.30062  0.26036  1.0000
  C   C521      1.0  0.42111  0.31495  0.25108  1.0000
  H   H919      1.0  0.39350  0.18227  0.01632  1.0000
  H   H920      1.0  0.34543  0.11424  0.39705  1.0000
  H   H921      1.0  0.48278  0.25073  0.24653  1.0000
  H   H922      1.0  0.24353  0.27857  0.31872  1.0000
  C   C522      1.0  0.33684  0.23235  0.04224  1.0000
  H   H923      1.0  0.33864  0.19278  0.07408  1.0000
  H   H924      1.0  0.34192  0.09304  0.38484  1.0000
  H   H925      1.0  0.32269  0.08966  0.40449  1.0000
  C   C523      1.0  0.25185  0.25292  0.22805  1.0000
  H   H926      1.0  0.35307  0.30850  0.21137  1.0000
  H   H927      1.0  0.30303  0.01338  0.37828  1.0000
  H   H928      1.0  0.25222  0.15123  0.46714  1.0000
  C   C524      1.0  0.38153  0.31097  0.37641  1.0000
  H   H929      1.0  0.40288  0.31039  0.46895  1.0000
  H   H930      1.0  0.34172  0.13478  0.45314  1.0000
  H   H931      1.0  0.35845  0.13761  0.37533  1.0000
  H   H932      1.0  0.29643  0.13947  0.41245  1.0000
  H   H933      1.0  0.30237  0.25784  0.02518  1.0000
  C   C525      1.0  0.47775  0.27451  0.21753  1.0000
  H   H934      1.0  0.33844  0.06721  0.37962  1.0000
  S   S123      1.0  0.44968  0.25556  0.29060  1.0000
  H   H935      1.0  0.40116  0.29392  0.16848  1.0000
  C   C526      1.0  0.36238  0.15678  0.03037  1.0000
  H   H936      1.0  0.24517  0.06661  0.25160  1.0000
  H   H937      1.0  0.29029  0.28896  0.01585  1.0000
  C   C527      1.0  0.31355  0.20128  0.12853  1.0000
  H   H938      1.0  0.28591  0.14430  0.45428  1.0000
  C   C528      1.0  0.46081  0.27308  0.46937  1.0000
  N   N32       1.0  0.24768  0.27074  0.08846  1.0000
  H   H939      1.0  0.36772  0.13341  0.41406  1.0000
  C   C529      1.0  0.25239  0.26830  0.21076  1.0000
  Fe  Fe62      1.0  0.43207  0.26747  0.38156  1.0000
  C   C530      1.0  0.46961  0.31295  0.18752  1.0000
  H   H940      1.0  0.33354  0.06203  0.42710  1.0000
  C   C531      1.0  0.45034  0.27206  0.44835  1.0000
  H   H941      1.0  0.24290  0.01245  0.01531  1.0000
  C   C532      1.0  0.24329  0.22714  0.35102  1.0000
  C   C533      1.0  0.23726  0.24308  0.33010  1.0000
  N   N33       1.0  0.29990  0.16917  0.25253  1.0000
  C   C534      1.0  0.28407  0.17670  0.24331  1.0000
  C   C535      1.0  0.29837  0.15443  0.27904  1.0000
  C   C536      1.0  0.30579  0.18050  0.26754  1.0000
  C   C537      1.0  0.31143  0.16503  0.22025  1.0000
  C   C538      1.0  0.30665  0.15465  0.19888  1.0000
  C   C539      1.0  0.28367  0.19101  0.21285  1.0000
  C   C540      1.0  0.32093  0.17395  0.28338  1.0000
  C   C541      1.0  0.28840  0.15651  0.31586  1.0000
  C   C542      1.0  0.28911  0.14085  0.34095  1.0000
  C   C543      1.0  0.31956  0.15065  0.16794  1.0000
  C   C544      1.0  0.26701  0.19814  0.20719  1.0000
  C   C545      1.0  0.32520  0.18617  0.29959  1.0000
  H   H942      1.0  0.27609  0.18072  0.26690  1.0000
  H   H943      1.0  0.27845  0.16807  0.23648  1.0000
  H   H944      1.0  0.29286  0.14674  0.26870  1.0000
  H   H945      1.0  0.31002  0.14745  0.28297  1.0000
  H   H946      1.0  0.29664  0.18567  0.28803  1.0000
  H   H947      1.0  0.30836  0.19058  0.24656  1.0000
  H   H948      1.0  0.31430  0.17573  0.20179  1.0000
  H   H949      1.0  0.32268  0.15863  0.22814  1.0000
  H   H950      1.0  0.29599  0.16060  0.18788  1.0000
  H   H951      1.0  0.30449  0.14344  0.21570  1.0000
  H   H952      1.0  0.28862  0.20027  0.21882  1.0000
  H   H953      1.0  0.29032  0.18765  0.18750  1.0000
  H   H954      1.0  0.33083  0.17054  0.26242  1.0000
  H   H955      1.0  0.31976  0.16366  0.30460  1.0000
  H   H956      1.0  0.29249  0.16444  0.32849  1.0000
  H   H957      1.0  0.27605  0.16125  0.31339  1.0000
  H   H958      1.0  0.28671  0.13188  0.32821  1.0000
  C   C546      1.0  0.24954  0.03335  0.33210  1.0000
  H   H959      1.0  0.35504  0.15186  0.40372  1.0000
  H   H960      1.0  0.31579  0.14341  0.15281  1.0000
  H   H961      1.0  0.34271  0.31116  0.12343  1.0000
  H   H962      1.0  0.26178  0.18912  0.47756  1.0000
  H   H963      1.0  0.25987  0.20213  0.23163  1.0000
  H   H964      1.0  0.26703  0.20834  0.18532  1.0000
  H   H965      1.0  0.32711  0.19658  0.27911  1.0000
  H   H966      1.0  0.31587  0.18972  0.32158  1.0000
  H   H967      1.0  0.33614  0.18118  0.31033  1.0000
  N   N34       1.0  0.29928  0.03984  0.26003  1.0000
  C   C547      1.0  0.28795  0.02977  0.25919  1.0000
  C   C548      1.0  0.30081  0.03954  0.29800  1.0000
  C   C549      1.0  0.29266  0.05637  0.24449  1.0000
  C   C550      1.0  0.31498  0.03517  0.23788  1.0000
  C   C551      1.0  0.32323  0.01801  0.24651  1.0000
  C   C552      1.0  0.28397  0.03007  0.22234  1.0000
  C   C553      1.0  0.30161  0.06910  0.24638  1.0000
  C   C554      1.0  0.29947  0.02412  0.32471  1.0000
  H   H968      1.0  0.47296  0.27232  0.45830  1.0000
  H   H969      1.0  0.23704  0.27101  0.28764  1.0000
  C   C555      1.0  0.27501  0.01722  0.22375  1.0000
  C   C556      1.0  0.29325  0.08527  0.23140  1.0000
  H   H970      1.0  0.27674  0.03334  0.27673  1.0000
  H   H971      1.0  0.29199  0.01743  0.27052  1.0000
  H   H972      1.0  0.31195  0.04294  0.29881  1.0000
  H   H973      1.0  0.29151  0.04847  0.30995  1.0000
  H   H974      1.0  0.28045  0.05973  0.25784  1.0000
  H   H975      1.0  0.29211  0.05737  0.21594  1.0000
  H   H976      1.0  0.31419  0.03791  0.20916  1.0000
  H   H977      1.0  0.32324  0.04225  0.24070  1.0000
  H   H978      1.0  0.46631  0.27732  0.23456  1.0000
  H   H979      1.0  0.47996  0.24288  0.44605  1.0000
  H   H980      1.0  0.27645  0.04136  0.21361  1.0000
  H   H981      1.0  0.29458  0.02835  0.20200  1.0000
  H   H982      1.0  0.31348  0.06725  0.23049  1.0000
  H   H983      1.0  0.30260  0.06923  0.27409  1.0000
  H   H984      1.0  0.28717  0.02250  0.33113  1.0000
  H   H985      1.0  0.40525  0.11910  0.03066  1.0000
  H   H986      1.0  0.25684  0.29129  0.08683  1.0000
  C   C557      1.0  0.40105  0.29451  0.19658  1.0000
  H   H987      1.0  0.37653  0.29549  0.21107  1.0000
  H   H988      1.0  0.28502  0.12616  0.44262  1.0000
  H   H989      1.0  0.28241  0.00555  0.22957  1.0000
  H   H990      1.0  0.26439  0.01809  0.24443  1.0000
  H   H991      1.0  0.27134  0.01838  0.19778  1.0000
  H   H992      1.0  0.29178  0.08584  0.20368  1.0000
  H   H993      1.0  0.28170  0.08823  0.24806  1.0000
  H   H994      1.0  0.30020  0.09410  0.23142  1.0000
  N   N35       1.0  0.36367  0.24507  0.24564  1.0000
  C   C558      1.0  0.35696  0.23307  0.27451  1.0000
  C   C559      1.0  0.35096  0.25901  0.23887  1.0000
  C   C560      1.0  0.37017  0.23786  0.21275  1.0000
  C   C561      1.0  0.37670  0.25027  0.25619  1.0000
  C   C562      1.0  0.37291  0.25611  0.29220  1.0000
  C   C563      1.0  0.36881  0.21870  0.28807  1.0000
  C   C564      1.0  0.37451  0.24930  0.17797  1.0000
  C   C565      1.0  0.33676  0.25577  0.22684  1.0000
  C   C566      1.0  0.32543  0.27085  0.21713  1.0000
  C   C567      1.0  0.38722  0.26038  0.30031  1.0000
  C   C568      1.0  0.36080  0.20755  0.31774  1.0000
  C   C569      1.0  0.38434  0.24054  0.14883  1.0000
  H   H995      1.0  0.34843  0.22832  0.26493  1.0000
  H   H996      1.0  0.35022  0.23847  0.29760  1.0000
  H   H997      1.0  0.34616  0.26406  0.26339  1.0000
  H   H998      1.0  0.35566  0.26848  0.21904  1.0000
  H   H999      1.0  0.36202  0.23115  0.20770  1.0000
  H   H1000     1.0  0.38085  0.22905  0.21688  1.0000
  H   H1001     1.0  0.38714  0.24077  0.25674  1.0000
  H   H1002     1.0  0.38069  0.25995  0.23591  1.0000
  H   H1003     1.0  0.36907  0.24708  0.31447  1.0000
  H   H1004     1.0  0.36367  0.26670  0.29174  1.0000
  H   H1005     1.0  0.37459  0.21218  0.26624  1.0000
  H   H1006     1.0  0.37780  0.22211  0.29879  1.0000
  H   H1007     1.0  0.38132  0.25752  0.18183  1.0000
  H   H1008     1.0  0.36384  0.25620  0.16816  1.0000
  H   H1009     1.0  0.34038  0.24997  0.20339  1.0000
  H   H1010     1.0  0.33027  0.24825  0.24846  1.0000
  H   H1011     1.0  0.31473  0.26805  0.21196  1.0000
  H   H1012     1.0  0.32202  0.27767  0.23907  1.0000
  H   H1013     1.0  0.33074  0.27798  0.19270  1.0000
  H   H1014     1.0  0.39672  0.25001  0.30250  1.0000
  H   H1015     1.0  0.39146  0.26969  0.27926  1.0000
  H   H1016     1.0  0.35175  0.20355  0.30835  1.0000
  H   H1017     1.0  0.36954  0.19718  0.32615  1.0000
  H   H1018     1.0  0.35538  0.21330  0.34103  1.0000
  H   H1019     1.0  0.37828  0.23183  0.14421  1.0000
  H   H1020     1.0  0.38649  0.24887  0.12369  1.0000
  H   H1021     1.0  0.39573  0.23443  0.15638  1.0000
  H   H1022     1.0  0.27281  0.26666  0.07350  1.0000
  H   H1023     1.0  0.38679  0.29841  0.37766  1.0000
  H   H1024     1.0  0.34909  0.30686  0.32754  1.0000
  H   H1025     1.0  0.33049  0.08230  0.46519  1.0000
  C   C570      1.0  0.37149  0.22092  0.04161  1.0000
  C   C571      1.0  0.34294  0.13254  0.42584  1.0000
  H   H1026     1.0  0.32680  0.01575  0.27284  1.0000
  C   C572      1.0  0.28327  0.24225  0.12531  1.0000
  H   H1027     1.0  0.23891  0.29006  0.18979  1.0000
  H   H1028     1.0  0.28030  0.14198  0.36532  1.0000
  H   H1029     1.0  0.39193  0.13613  0.01477  1.0000
  C   C573      1.0  0.38535  0.21726  0.06095  1.0000
  C   C574      1.0  0.35691  0.13919  0.40336  1.0000
  H   H1030     1.0  0.30080  0.13686  0.34853  1.0000
  H   H1031     1.0  0.30659  0.01378  0.31417  1.0000
  H   H1032     1.0  0.36298  0.20001  0.07009  1.0000
  S   S124      1.0  0.23830  0.00327  0.19112  1.0000
  H   H1033     1.0  0.38422  0.26465  0.32600  1.0000
  Fe  Fe63      1.0  0.43284  0.24441  0.33397  1.0000
  H   H1034     1.0  0.30347  0.20547  0.11439  1.0000
  H   H1035     1.0  0.33648  0.23703  0.06662  1.0000
  H   H1036     1.0  0.33669  0.20491  0.12497  1.0000
  H   H1037     1.0  0.47204  0.25305  0.21112  1.0000
  C   C575      1.0  0.24233  0.16072  0.30551  1.0000
  H   H1038     1.0  0.26156  0.18949  0.20008  1.0000
  C   C576      1.0  0.40948  0.20495  0.30609  1.0000
  H   H1039     1.0  0.38537  0.30167  0.24196  1.0000
  H   H1040     1.0  0.23921  0.24911  0.10967  1.0000
  C   C577      1.0  0.43449  0.27364  0.46227  1.0000
  C   C578      1.0  0.29268  0.13459  0.44071  1.0000
  S   S125      1.0  0.24577  0.12119  0.40011  1.0000
  H   H1041     1.0  0.38149  0.31165  0.43078  1.0000
  H   H1042     1.0  0.24542  0.11094  0.24288  1.0000
  H   H1043     1.0  0.34566  0.29824  0.16446  1.0000
  C   C579      1.0  0.36671  0.16023  0.06005  1.0000
  S   S126      1.0  0.44690  0.24411  0.37577  1.0000
  S   S127      1.0  0.44833  0.28106  0.34173  1.0000
  S   S128      1.0  0.42116  0.27284  0.43611  1.0000
  H   H1044     1.0  0.35506  0.21688  0.08950  1.0000
  H   H1045     1.0  0.45453  0.27022  0.42126  1.0000
  H   H1046     1.0  0.48111  0.28237  0.34894  1.0000
  H   H1047     1.0  0.30245  0.12211  0.48643  1.0000
  C   C580      1.0  0.24291  0.03143  0.30400  1.0000
  H   H1048     1.0  0.34393  0.00226  0.22661  1.0000
  H   H1049     1.0  0.45580  0.29879  0.39900  1.0000
  H   H1050     1.0  0.35737  0.10413  0.48855  1.0000
  H   H1051     1.0  0.30961  0.10407  0.44662  1.0000
  H   H1052     1.0  0.24319  0.25272  0.04300  1.0000
  H   H1053     1.0  0.24632  0.29570  0.24790  1.0000
  H   H1054     1.0  0.25407  0.28375  0.03596  1.0000
  C   C581      1.0  0.38463  0.17532  0.02038  1.0000
  H   H1055     1.0  0.42920  0.30631  0.43398  1.0000
  H   H1056     1.0  0.31360  0.25760  0.05848  1.0000
  C   C582      1.0  0.34902  0.20981  0.01129  1.0000
  H   H1057     1.0  0.25911  0.15674  0.39994  1.0000
  H   H1058     1.0  0.40829  0.30251  0.41031  1.0000
  H   H1059     1.0  0.43797  0.23150  0.46207  1.0000
  H   H1060     1.0  0.47606  0.31203  0.13099  1.0000
  C   C583      1.0  0.30448  0.02438  0.35950  1.0000
  H   H1061     1.0  0.29285  0.24807  0.10931  1.0000
  C   C584      1.0  0.24597  0.10760  0.27163  1.0000
  C   C585      1.0  0.40443  0.13087  0.01400  1.0000
  C   C586      1.0  0.48158  0.25686  0.21911  1.0000
  H   H1062     1.0  0.25086  0.02394  0.35442  1.0000
  C   C587      1.0  0.34242  0.31062  0.15216  1.0000
  C   C588      1.0  0.24490  0.13643  0.36375  1.0000
  C   C589      1.0  0.31423  0.25463  0.03198  1.0000
  H   H1063     1.0  0.23918  0.02065  0.30485  1.0000
  Fe  Fe64      1.0  0.28117  0.31068  0.08160  1.0000
  H   H1064     1.0  0.24650  0.30501  0.28437  1.0000
  H   H1065     1.0  0.40997  0.13808  0.02558  1.0000
  H   H1066     1.0  0.24887  0.21891  0.33238  1.0000
  H   H1067     1.0  0.33594  0.19144  0.01395  1.0000
  H   H1068     1.0  0.24102  0.07647  0.39073  1.0000
  H   H1069     1.0  0.47476  0.29182  0.28505  1.0000
  C   C590      1.0  0.33729  0.20304  0.99774  1.0000
  H   H1070     1.0  0.34441  0.23908  0.02115  1.0000
  H   H1071     1.0  0.25205  0.22801  0.36639  1.0000
  H   H1072     1.0  0.35292  0.06539  0.40673  1.0000
  C   C591      1.0  0.27199  0.30701  0.99755  1.0000
  H   H1073     1.0  0.36041  0.30407  0.26622  1.0000
  C   C592      1.0  0.42765  0.22642  0.47628  1.0000
  H   H1074     1.0  0.40871  0.31193  0.30479  1.0000
  H   H1075     1.0  0.32076  0.23501  0.00533  1.0000
  H   H1076     1.0  0.39008  0.20455  0.06533  1.0000
  H   H1077     1.0  0.25548  0.09739  0.27537  1.0000
  H   H1078     1.0  0.34968  0.08495  0.44582  1.0000
  C   C593      1.0  0.25094  0.16386  0.46796  1.0000
  H   H1079     1.0  0.25338  0.98321  0.07432  1.0000
  H   H1080     1.0  0.32570  0.21069  0.99907  1.0000
  C   C594      1.0  0.25722  0.16937  0.40070  1.0000
  S   S129      1.0  0.23973  0.17545  0.26867  1.0000
  H   H1081     1.0  0.37568  0.21711  0.01550  1.0000
  H   H1082     1.0  0.44919  0.31366  0.30641  1.0000
  H   H1083     1.0  0.24726  0.24686  0.31065  1.0000
  H   H1084     1.0  0.25285  0.17599  0.37624  1.0000
  C   C595      1.0  0.36913  0.16260  0.99558  1.0000
  H   H1085     1.0  0.23753  0.23546  0.24956  1.0000
  C   C596      1.0  0.40437  0.31503  0.40023  1.0000
  C   C597      1.0  0.24587  0.27581  0.04996  1.0000
  C   C598      1.0  0.24754  0.28508  0.10316  1.0000
  C   C599      1.0  0.24881  0.26258  0.02802  1.0000
  C   C600      1.0  0.24529  0.17324  0.43331  1.0000
  C   C601      1.0  0.23873  0.27806  0.20185  1.0000
  H   H1086     1.0  0.25033  0.28193  0.13029  1.0000
  H   H1087     1.0  0.24392  0.21483  0.47998  1.0000
  H   H1088     1.0  0.43458  0.31263  0.36577  1.0000
  C   C602      1.0  0.48630  0.30736  0.19654  1.0000
  C   C603      1.0  0.23780  0.24732  0.23625  1.0000
  H   H1089     1.0  0.43139  0.21362  0.48251  1.0000
  H   H1090     1.0  0.24356  0.18596  0.43245  1.0000
  H   H1091     1.0  0.36560  0.31479  0.14513  1.0000
  C   C604      1.0  0.24278  0.26846  0.99292  1.0000
  C   C605      1.0  0.45563  0.27492  0.50479  1.0000
  H   H1092     1.0  0.40459  0.29561  0.64158  1.0000
  S   S130      1.0  0.46943  0.28369  0.62353  1.0000
  C   C606      1.0  0.30111  0.03768  0.84390  1.0000
  Fe  Fe65      1.0  0.27721  0.09678  0.74535  1.0000
  S   S131      1.0  0.29949  0.08803  0.71000  1.0000
  S   S132      1.0  0.26213  0.08511  0.79359  1.0000
  Fe  Fe66      1.0  0.27869  0.13074  0.71190  1.0000
  S   S133      1.0  0.30087  0.12468  0.67468  1.0000
  S   S134      1.0  0.26815  0.15567  0.71592  1.0000
  Fe  Fe67      1.0  0.28985  0.10584  0.66531  1.0000
  S   S135      1.0  0.28610  0.10660  0.60846  1.0000
  Fe  Fe68      1.0  0.30846  0.10785  0.72209  1.0000
  S   S136      1.0  0.33060  0.10577  0.74429  1.0000
  S   S137      1.0  0.26699  0.11306  0.70081  1.0000
  S   S138      1.0  0.28686  0.11531  0.75939  1.0000
  Fe  Fe69      1.0  0.36830  0.16837  0.90142  1.0000
  S   S139      1.0  0.37907  0.18953  0.88245  1.0000
  S   S140      1.0  0.36526  0.15600  0.95918  1.0000
  Fe  Fe70      1.0  0.35806  0.17053  0.82929  1.0000
  S   S141      1.0  0.36811  0.19227  0.80541  1.0000
  S   S142      1.0  0.34204  0.16480  0.79713  1.0000
  Fe  Fe71      1.0  0.38863  0.18030  0.83148  1.0000
  S   S143      1.0  0.41360  0.18320  0.80838  1.0000
  Fe  Fe72      1.0  0.35800  0.19986  0.85773  1.0000
  S   S144      1.0  0.34608  0.22358  0.86849  1.0000
  S   S145      1.0  0.37956  0.15776  0.85227  1.0000
  S   S146      1.0  0.34634  0.17942  0.87988  1.0000
  Fe  Fe73      1.0  0.46173  0.27027  0.59028  1.0000
  Fe  Fe74      1.0  0.27569  0.28799  0.84400  1.0000
  S   S147      1.0  0.29326  0.29827  0.80078  1.0000
  S   S148      1.0  0.28166  0.28239  0.90035  1.0000
  Fe  Fe75      1.0  0.25804  0.28226  0.78841  1.0000
  S   S149      1.0  0.27415  0.29286  0.74200  1.0000
  H   H1093     1.0  0.37298  0.23950  0.76184  1.0000
  Fe  Fe76      1.0  0.29302  0.27954  0.77173  1.0000
  S   S150      1.0  0.31536  0.26727  0.74386  1.0000
  S   S151      1.0  0.24346  0.01883  0.81826  1.0000
  H   H1094     1.0  0.24157  0.21082  0.52795  1.0000
  S   S152      1.0  0.27732  0.26778  0.81656  1.0000
  H   H1095     1.0  0.28366  0.13996  0.56003  1.0000
  H   H1096     1.0  0.45242  0.22051  0.51288  1.0000
  H   H1097     1.0  0.41856  0.12363  0.91098  1.0000
  H   H1098     1.0  0.23942  0.13500  0.74924  1.0000
  H   H1099     1.0  0.25921  0.18529  0.52564  1.0000
  C   C607      1.0  0.42449  0.13512  0.85786  1.0000
  H   H1100     1.0  0.40951  0.27258  0.69202  1.0000
  H   H1101     1.0  0.30106  0.06367  0.86369  1.0000
  H   H1102     1.0  0.38707  0.24976  0.62339  1.0000
  C   C608      1.0  0.32527  0.04845  0.81947  1.0000
  H   H1103     1.0  0.35029  0.08600  0.50161  1.0000
  C   C609      1.0  0.40671  0.25304  0.74791  1.0000
  N   N36       1.0  0.42938  0.22884  0.54050  1.0000
  C   C610      1.0  0.42862  0.25215  0.78058  1.0000
  H   H1104     1.0  0.41545  0.24747  0.72725  1.0000
  H   H1105     1.0  0.27027  0.30508  0.66386  1.0000
  S   S153      1.0  0.46936  0.27491  0.53082  1.0000
  C   C611      1.0  0.41886  0.16284  0.89582  1.0000
  C   C612      1.0  0.38735  0.25096  0.71491  1.0000
  H   H1106     1.0  0.36391  0.28620  0.73671  1.0000
  C   C613      1.0  0.36376  0.27469  0.75407  1.0000
  C   C614      1.0  0.42747  0.21729  0.70616  1.0000
  C   C615      1.0  0.28339  0.03870  0.84682  1.0000
  H   H1107     1.0  0.33318  0.27182  0.87215  1.0000
  C   C616      1.0  0.41809  0.19701  0.76961  1.0000
  C   C617      1.0  0.41105  0.19876  0.73998  1.0000
  C   C618      1.0  0.41591  0.20864  0.70829  1.0000
  C   C619      1.0  0.30458  0.05347  0.78263  1.0000
  H   H1108     1.0  0.43249  0.21281  0.61001  1.0000
  H   H1109     1.0  0.43418  0.20432  0.53696  1.0000
  H   H1110     1.0  0.40222  0.19209  0.74111  1.0000
  H   H1111     1.0  0.41076  0.20950  0.68521  1.0000
  C   C620      1.0  0.28302  0.10270  0.54261  1.0000
  C   C621      1.0  0.33802  0.23568  0.83322  1.0000
  C   C622      1.0  0.34333  0.23307  0.79837  1.0000
  C   C623      1.0  0.33667  0.24307  0.77053  1.0000
  C   C624      1.0  0.32450  0.25540  0.77783  1.0000
  C   C625      1.0  0.31923  0.25795  0.81270  1.0000
  C   C626      1.0  0.32604  0.24817  0.84032  1.0000
  H   H1112     1.0  0.35258  0.22343  0.79287  1.0000
  H   H1113     1.0  0.34055  0.24100  0.74361  1.0000
  H   H1114     1.0  0.30989  0.26745  0.81865  1.0000
  H   H1115     1.0  0.32179  0.25010  0.86733  1.0000
  C   C627      1.0  0.25731  0.16358  0.68203  1.0000
  C   C628      1.0  0.25485  0.15396  0.66080  1.0000
  H   H1116     1.0  0.40433  0.22722  0.60110  1.0000
  C   C629      1.0  0.34739  0.09860  0.50306  1.0000
  C   C630      1.0  0.39195  0.29711  0.65252  1.0000
  C   C631      1.0  0.25014  0.17928  0.67778  1.0000
  H   H1117     1.0  0.26086  0.14206  0.66278  1.0000
  C   C632      1.0  0.28061  0.30641  0.64284  1.0000
  H   H1118     1.0  0.35569  0.28560  0.80125  1.0000
  H   H1119     1.0  0.25235  0.18686  0.69350  1.0000
  C   C633      1.0  0.33373  0.12210  0.75945  1.0000
  C   C634      1.0  0.32460  0.13689  0.75182  1.0000
  C   C635      1.0  0.32753  0.14971  0.76320  1.0000
  C   C636      1.0  0.33936  0.14799  0.78312  1.0000
  C   C637      1.0  0.34846  0.13317  0.79101  1.0000
  C   C638      1.0  0.34571  0.12034  0.77902  1.0000
  H   H1120     1.0  0.31541  0.13851  0.73663  1.0000
  H   H1121     1.0  0.32056  0.16107  0.75635  1.0000
  H   H1122     1.0  0.35765  0.13161  0.80616  1.0000
  H   H1123     1.0  0.35289  0.10898  0.78500  1.0000
  C   C639      1.0  0.25350  0.19093  0.50238  1.0000
  C   C640      1.0  0.27734  0.29203  0.93770  1.0000
  H   H1124     1.0  0.26944  0.15447  0.58071  1.0000
  H   H1125     1.0  0.33762  0.28104  0.90435  1.0000
  H   H1126     1.0  0.40659  0.24878  0.63010  1.0000
  C   C641      1.0  0.45585  0.23348  0.55090  1.0000
  H   H1127     1.0  0.30456  0.08425  0.78920  1.0000
  C   C642      1.0  0.35198  0.03095  0.81589  1.0000
  H   H1128     1.0  0.36529  0.23415  0.70898  1.0000
  H   H1129     1.0  0.31840  0.30649  0.72933  1.0000
  H   H1130     1.0  0.40378  0.13939  0.89739  1.0000
  C   C643      1.0  0.43975  0.27651  0.51877  1.0000
  H   H1131     1.0  0.30733  0.30389  0.91586  1.0000
  C   C644      1.0  0.28632  0.09534  0.51266  1.0000
  C   C645      1.0  0.44600  0.23072  0.52539  1.0000
  H   H1132     1.0  0.25946  0.03651  0.75715  1.0000
  C   C646      1.0  0.24692  0.03806  0.81012  1.0000
  C   C647      1.0  0.25575  0.04366  0.77759  1.0000
  C   C648      1.0  0.26000  0.05836  0.77151  1.0000
  C   C649      1.0  0.25585  0.06732  0.79838  1.0000
  C   C650      1.0  0.24683  0.06184  0.83069  1.0000
  H   H1133     1.0  0.33860  0.30799  0.65515  1.0000
  H   H1134     1.0  0.26676  0.06259  0.74639  1.0000
  H   H1135     1.0  0.29195  0.05787  0.78228  1.0000
  H   H1136     1.0  0.45508  0.22530  0.57639  1.0000
  H   H1137     1.0  0.42416  0.24355  0.80322  1.0000
  H   H1138     1.0  0.29485  0.27572  0.96375  1.0000
  C   C651      1.0  0.30034  0.06562  0.83495  1.0000
  H   H1139     1.0  0.28398  0.01362  0.85849  1.0000
  C   C652      1.0  0.29091  0.09662  0.57157  1.0000
  H   H1140     1.0  0.30844  0.03242  0.71448  1.0000
  H   H1141     1.0  0.24209  0.15199  0.62184  1.0000
  C   C653      1.0  0.43440  0.21571  0.73588  1.0000
  S   S154      1.0  0.47140  0.24682  0.61885  1.0000
  H   H1142     1.0  0.42890  0.23752  0.58872  1.0000
  H   H1143     1.0  0.41224  0.19534  0.87666  1.0000
  C   C654      1.0  0.42985  0.20546  0.76730  1.0000
  H   H1144     1.0  0.30851  0.07828  0.59192  1.0000
  C   C655      1.0  0.27815  0.02415  0.87024  1.0000
  C   C656      1.0  0.43882  0.14059  0.91952  1.0000
  H   H1145     1.0  0.33553  0.09424  0.55802  1.0000
  H   H1146     1.0  0.40463  0.12995  0.84147  1.0000
  H   H1147     1.0  0.42454  0.12325  0.97662  1.0000
  S   S155      1.0  0.45565  0.25924  0.69306  1.0000
  S   S156      1.0  0.43281  0.22975  0.66564  1.0000
  Fe  Fe77      1.0  0.44822  0.24794  0.65507  1.0000
  C   C657      1.0  0.42272  0.19076  0.88932  1.0000
  H   H1148     1.0  0.34042  0.28268  0.78131  1.0000
  H   H1149     1.0  0.35923  0.26712  0.74130  1.0000
  H   H1150     1.0  0.28037  0.03959  0.82037  1.0000
  C   C658      1.0  0.41242  0.12956  0.97588  1.0000
  C   C659      1.0  0.33444  0.03142  0.82333  1.0000
  C   C660      1.0  0.40514  0.23891  0.58492  1.0000
  H   H1151     1.0  0.41836  0.11294  0.85685  1.0000
  N   N37       1.0  0.30302  0.20840  0.79555  1.0000
  C   C661      1.0  0.29200  0.21895  0.77238  1.0000
  C   C662      1.0  0.29842  0.19254  0.80839  1.0000
  C   C663      1.0  0.30161  0.21576  0.82774  1.0000
  C   C664      1.0  0.31971  0.20681  0.77699  1.0000
  C   C665      1.0  0.32353  0.20084  0.74134  1.0000
  C   C666      1.0  0.29541  0.23555  0.75686  1.0000
  C   C667      1.0  0.31138  0.20626  0.85629  1.0000
  C   C668      1.0  0.29062  0.18640  0.78365  1.0000
  C   C669      1.0  0.28764  0.16993  0.79932  1.0000
  C   C670      1.0  0.34036  0.20155  0.72364  1.0000
  C   C671      1.0  0.30683  0.21327  0.89021  1.0000
  H   H1152     1.0  0.27988  0.22023  0.78757  1.0000
  H   H1153     1.0  0.29175  0.21379  0.74920  1.0000
  H   H1154     1.0  0.30872  0.18349  0.81482  1.0000
  H   H1155     1.0  0.28992  0.19248  0.83373  1.0000
  H   H1156     1.0  0.28918  0.21825  0.84075  1.0000
  H   H1157     1.0  0.30546  0.22717  0.82011  1.0000
  H   H1158     1.0  0.32363  0.21809  0.77248  1.0000
  H   H1159     1.0  0.32749  0.19861  0.79423  1.0000
  H   H1160     1.0  0.31594  0.20784  0.72244  1.0000
  H   H1161     1.0  0.32230  0.18849  0.74598  1.0000
  H   H1162     1.0  0.29496  0.24214  0.77804  1.0000
  H   H1163     1.0  0.30702  0.23502  0.73970  1.0000
  H   H1164     1.0  0.32390  0.20645  0.84625  1.0000
  H   H1165     1.0  0.30992  0.19394  0.86359  1.0000
  H   H1166     1.0  0.27913  0.19389  0.78042  1.0000
  H   H1167     1.0  0.29784  0.18617  0.75702  1.0000
  H   H1168     1.0  0.29857  0.16185  0.80485  1.0000
  H   H1169     1.0  0.27907  0.16995  0.82439  1.0000
  H   H1170     1.0  0.28290  0.16551  0.78018  1.0000
  H   H1171     1.0  0.34297  0.19686  0.69851  1.0000
  H   H1172     1.0  0.34226  0.21375  0.71752  1.0000
  H   H1173     1.0  0.28606  0.25680  0.72357  1.0000
  H   H1174     1.0  0.31461  0.20680  0.90929  1.0000
  H   H1175     1.0  0.30808  0.22566  0.88441  1.0000
  H   H1176     1.0  0.29463  0.21244  0.90270  1.0000
  C   C672      1.0  0.23981  0.18509  0.65370  1.0000
  H   H1177     1.0  0.42268  0.25187  0.55375  1.0000
  C   C673      1.0  0.30998  0.03929  0.76336  1.0000
  H   H1178     1.0  0.25891  0.30997  0.91963  1.0000
  H   H1179     1.0  0.30837  0.05286  0.71039  1.0000
  H   H1180     1.0  0.30351  0.03654  0.87123  1.0000
  H   H1181     1.0  0.39215  0.22842  0.75061  1.0000
  H   H1182     1.0  0.27658  0.04885  0.85880  1.0000
  N   N38       1.0  0.30792  0.05099  0.81981  1.0000
  H   H1183     1.0  0.46877  0.12581  0.89100  1.0000
  H   H1184     1.0  0.45177  0.24543  0.55712  1.0000
  H   H1185     1.0  0.33139  0.02524  0.85093  1.0000
  H   H1186     1.0  0.37519  0.28365  0.68331  1.0000
  H   H1187     1.0  0.41540  0.15333  0.96723  1.0000
  H   H1188     1.0  0.43556  0.20399  0.78984  1.0000
  H   H1189     1.0  0.31243  0.29458  0.85773  1.0000
  H   H1190     1.0  0.43705  0.24581  0.76096  1.0000
  C   C674      1.0  0.42022  0.23359  0.51028  1.0000
  H   H1191     1.0  0.38872  0.30629  0.66928  1.0000
  H   H1192     1.0  0.38495  0.17710  0.96426  1.0000
  H   H1193     1.0  0.35523  0.03712  0.83424  1.0000
  H   H1194     1.0  0.35824  0.01867  0.81981  1.0000
  H   H1195     1.0  0.40674  0.16595  0.89037  1.0000
  H   H1196     1.0  0.44938  0.14678  0.86267  1.0000
  H   H1197     1.0  0.33475  0.19547  0.95053  1.0000
  H   H1198     1.0  0.23721  0.08936  0.74337  1.0000
  H   H1199     1.0  0.44168  0.12764  0.92286  1.0000
  C   C675      1.0  0.42845  0.21208  0.55652  1.0000
  H   H1200     1.0  0.43310  0.18897  0.86827  1.0000
  H   H1201     1.0  0.31447  0.06531  0.53901  1.0000
  H   H1202     1.0  0.32755  0.05303  0.84186  1.0000
  C   C676      1.0  0.38223  0.23630  0.73952  1.0000
  H   H1203     1.0  0.41071  0.17809  0.93572  1.0000
  H   H1204     1.0  0.38545  0.30099  0.63002  1.0000
  C   C677      1.0  0.43592  0.20506  0.59002  1.0000
  H   H1205     1.0  0.27413  0.11307  0.54357  1.0000
  S   S157      1.0  0.24040  0.26770  0.78504  1.0000
  Fe  Fe78      1.0  0.27322  0.31118  0.77436  1.0000
  Fe  Fe79      1.0  0.44637  0.28174  0.65909  1.0000
  C   C678      1.0  0.39717  0.27564  0.70530  1.0000
  H   H1206     1.0  0.34852  0.19436  0.74124  1.0000
  C   C679      1.0  0.39909  0.25083  0.60971  1.0000
  H   H1207     1.0  0.41830  0.19128  0.61757  1.0000
  H   H1208     1.0  0.41611  0.21054  0.56286  1.0000
  H   H1209     1.0  0.35459  0.19290  0.95646  1.0000
  H   H1210     1.0  0.42339  0.14680  0.84090  1.0000
  C   C680      1.0  0.30232  0.08311  0.56996  1.0000
  H   H1211     1.0  0.23718  0.11575  0.80618  1.0000
  C   C681      1.0  0.41659  0.13588  0.89682  1.0000
  H   H1212     1.0  0.24089  0.18472  0.75667  1.0000
  H   H1213     1.0  0.28773  0.06868  0.83342  1.0000
  C   C682      1.0  0.30568  0.07578  0.53988  1.0000
  H   H1214     1.0  0.39728  0.24154  0.56517  1.0000
  C   C683      1.0  0.42218  0.23964  0.56687  1.0000
  H   H1215     1.0  0.37746  0.25694  0.70116  1.0000
  H   H1216     1.0  0.44877  0.20267  0.58245  1.0000
  H   H1217     1.0  0.43446  0.18106  0.58958  1.0000
  H   H1218     1.0  0.39892  0.26284  0.59447  1.0000
  C   C684      1.0  0.47297  0.23204  0.53374  1.0000
  C   C685      1.0  0.41524  0.26267  0.76347  1.0000
  H   H1219     1.0  0.44353  0.22205  0.73437  1.0000
  H   H1220     1.0  0.33188  0.02478  0.80519  1.0000
  H   H1221     1.0  0.41818  0.24648  0.50167  1.0000
  S   S158      1.0  0.43792  0.27043  0.62297  1.0000
  H   H1222     1.0  0.28684  0.09680  0.83758  1.0000
  N   N39       1.0  0.39248  0.26194  0.73253  1.0000
  C   C686      1.0  0.38022  0.26737  0.76258  1.0000
  H   H1223     1.0  0.47028  0.13869  0.91961  1.0000
  H   H1224     1.0  0.38383  0.27634  0.77310  1.0000
  C   C687      1.0  0.43107  0.18956  0.60810  1.0000
  S   S159      1.0  0.25510  0.30199  0.81918  1.0000
  C   C688      1.0  0.28333  0.24501  0.73434  1.0000
  C   C689      1.0  0.30702  0.08052  0.81663  1.0000
  H   H1225     1.0  0.28076  0.02267  0.89737  1.0000
  H   H1226     1.0  0.26034  0.21282  0.50157  1.0000
  H   H1227     1.0  0.27189  0.16181  0.51645  1.0000
  H   H1228     1.0  0.40733  0.26869  0.78426  1.0000
  H   H1229     1.0  0.43692  0.18465  0.63149  1.0000
  C   C690      1.0  0.32826  0.28023  0.89061  1.0000
  H   H1230     1.0  0.29121  0.04492  0.73253  1.0000
  H   H1231     1.0  0.32281  0.10072  0.50421  1.0000
  H   H1232     1.0  0.31872  0.27572  0.91044  1.0000
  C   C691      1.0  0.30411  0.04266  0.72807  1.0000
  H   H1233     1.0  0.30561  0.02885  0.77935  1.0000
  H   H1234     1.0  0.26540  0.02525  0.87232  1.0000
  C   C692      1.0  0.35216  0.27750  0.78794  1.0000
  H   H1235     1.0  0.39695  0.24687  0.69378  1.0000
  H   H1236     1.0  0.27150  0.24637  0.75071  1.0000
  H   H1237     1.0  0.24317  0.14624  0.54205  1.0000
  H   H1238     1.0  0.30676  0.02638  0.83549  1.0000
  H   H1239     1.0  0.42406  0.19959  0.90396  1.0000
  H   H1240     1.0  0.47976  0.23422  0.55217  1.0000
  H   H1241     1.0  0.28342  0.23929  0.71175  1.0000
  C   C693      1.0  0.24190  0.12645  0.80371  1.0000
  H   H1242     1.0  0.42621  0.16410  0.86918  1.0000
  H   H1243     1.0  0.42306  0.12462  0.81384  1.0000
  H   H1244     1.0  0.43664  0.31203  0.61044  1.0000
  C   C694      1.0  0.34306  0.20074  0.95932  1.0000
  C   C695      1.0  0.26578  0.30535  0.94045  1.0000
  H   H1245     1.0  0.43693  0.12962  0.85672  1.0000
  H   H1246     1.0  0.39090  0.27323  0.65590  1.0000
  H   H1247     1.0  0.33156  0.29926  0.84809  1.0000
  C   C696      1.0  0.28595  0.28607  0.96545  1.0000
  H   H1248     1.0  0.34400  0.21213  0.94190  1.0000
  H   H1249     1.0  0.43482  0.25932  0.79055  1.0000
  N   N40       1.0  0.42195  0.14632  0.91551  1.0000
  C   C697      1.0  0.42103  0.17552  0.91499  1.0000
  H   H1250     1.0  0.45105  0.15953  0.89031  1.0000
  H   H1251     1.0  0.32285  0.03666  0.75708  1.0000
  C   C698      1.0  0.24954  0.20842  0.50296  1.0000
  H   H1252     1.0  0.40371  0.24336  0.76960  1.0000
  H   H1253     1.0  0.43563  0.27822  0.54592  1.0000
  H   H1254     1.0  0.31037  0.06285  0.76535  1.0000
  C   C699      1.0  0.37987  0.17235  0.99080  1.0000
  H   H1255     1.0  0.23962  0.28426  0.71197  1.0000
  H   H1256     1.0  0.41685  0.27753  0.50801  1.0000
  C   C700      1.0  0.29963  0.09399  0.83674  1.0000
  C   C701      1.0  0.45127  0.14718  0.88943  1.0000
  H   H1257     1.0  0.44621  0.24106  0.50365  1.0000
  H   H1258     1.0  0.35576  0.03648  0.78806  1.0000
  C   C702      1.0  0.23863  0.18449  0.50488  1.0000
  H   H1259     1.0  0.42020  0.27154  0.74239  1.0000
  H   H1260     1.0  0.43137  0.17165  0.92822  1.0000
  C   C703      1.0  0.32202  0.29607  0.86974  1.0000
  H   H1261     1.0  0.39692  0.28559  0.71849  1.0000
  H   H1262     1.0  0.33632  0.31409  0.71573  1.0000
  H   H1263     1.0  0.37909  0.25761  0.78544  1.0000
  C   C704      1.0  0.41715  0.12502  0.84168  1.0000
  H   H1264     1.0  0.31977  0.07874  0.81529  1.0000
  H   H1265     1.0  0.40612  0.12244  0.96602  1.0000
  C   C705      1.0  0.46763  0.13818  0.89346  1.0000
  H   H1266     1.0  0.35139  0.26633  0.80657  1.0000
  H   H1267     1.0  0.30457  0.10448  0.82301  1.0000
  H   H1268     1.0  0.33100  0.05530  0.79491  1.0000
  H   H1269     1.0  0.30213  0.09103  0.86423  1.0000
  H   H1270     1.0  0.38465  0.22363  0.69614  1.0000
  C   C706      1.0  0.29765  0.08179  0.51113  1.0000
  H   H1271     1.0  0.37272  0.21638  0.73673  1.0000
  C   C707      1.0  0.37584  0.22709  0.71902  1.0000
  C   C708      1.0  0.38790  0.28178  0.67419  1.0000
  C   C709      1.0  0.27109  0.14523  0.56461  1.0000
  H   H1272     1.0  0.24837  0.27825  0.97708  1.0000
  C   C710      1.0  0.34529  0.09987  0.54219  1.0000
  H   H1273     1.0  0.26937  0.14295  0.51229  1.0000
  C   C711      1.0  0.24441  0.15968  0.63713  1.0000
  H   H1274     1.0  0.31122  0.30840  0.61873  1.0000
  C   C712      1.0  0.32702  0.30962  0.67242  1.0000
  H   H1275     1.0  0.35608  0.09392  0.55278  1.0000
  H   H1276     1.0  0.24372  0.06867  0.85170  1.0000
  H   H1277     1.0  0.26457  0.13600  0.57976  1.0000
  C   C713      1.0  0.41198  0.14586  0.95197  1.0000
  H   H1278     1.0  0.34287  0.11227  0.54545  1.0000
  H   H1279     1.0  0.39959  0.15080  0.94958  1.0000
  H   H1280     1.0  0.32945  0.11860  0.49357  1.0000
  C   C714      1.0  0.32970  0.30588  0.71081  1.0000
  H   H1281     1.0  0.35289  0.21937  0.99026  1.0000
  C   C715      1.0  0.31625  0.30850  0.89425  1.0000
  C   C716      1.0  0.24770  0.15734  0.53396  1.0000
  H   H1282     1.0  0.32058  0.30091  0.66930  1.0000
  S   S160      1.0  0.42904  0.30010  0.68586  1.0000
  N   N41       1.0  0.24091  0.16750  0.50251  1.0000
  H   H1283     1.0  0.44092  0.14332  0.94438  1.0000
  Fe  Fe80      1.0  0.47817  0.26021  0.65388  1.0000
  H   H1284     1.0  0.28803  0.29471  0.64164  1.0000
  H   H1285     1.0  0.32596  0.30867  0.90771  1.0000
  H   H1286     1.0  0.25475  0.12347  0.79676  1.0000
  H   H1287     1.0  0.40847  0.23052  0.51909  1.0000
  C   C717      1.0  0.26568  0.15212  0.52913  1.0000
  H   H1288     1.0  0.47427  0.24081  0.50915  1.0000
  H   H1289     1.0  0.33640  0.29384  0.71626  1.0000
  H   H1290     1.0  0.29326  0.31201  0.67749  1.0000
  H   H1291     1.0  0.47777  0.22018  0.52745  1.0000
  H   H1292     1.0  0.47629  0.14340  0.87226  1.0000
  C   C718      1.0  0.26312  0.31276  0.97022  1.0000
  C   C719      1.0  0.24220  0.04736  0.83641  1.0000
  C   C720      1.0  0.42916  0.27610  0.49732  1.0000
  H   H1293     1.0  0.24383  0.16317  0.55762  1.0000
  H   H1294     1.0  0.24108  0.14936  0.77340  1.0000
  H   H1295     1.0  0.23895  0.13046  0.82970  1.0000
  H   H1296     1.0  0.27651  0.31118  0.61713  1.0000
  H   H1297     1.0  0.24562  0.25893  0.97718  1.0000
  H   H1298     1.0  0.35189  0.45292  0.44835  1.0000
  Fe  Fe81      1.0  0.29341  0.63360  0.11576  1.0000
  S   S161      1.0  0.29150  0.61390  0.16101  1.0000
  C   C721      1.0  0.33655  0.42676  0.46216  1.0000
  Fe  Fe82      1.0  0.28301  0.61788  0.06571  1.0000
  S   S162      1.0  0.28040  0.59634  0.10739  1.0000
  H   H1299     1.0  0.38951  0.32806  0.45844  1.0000
  Fe  Fe83      1.0  0.26923  0.61324  0.14498  1.0000
  Fe  Fe84      1.0  0.30301  0.59872  0.12082  1.0000
  S   S163      1.0  0.32323  0.57882  0.13176  1.0000
  H   H1300     1.0  0.44074  0.55370  0.47295  1.0000
  S   S164      1.0  0.30654  0.61876  0.07595  1.0000
  H   H1301     1.0  0.35937  0.60077  0.05382  1.0000
  Fe  Fe85      1.0  0.45646  0.60956  0.42202  1.0000
  H   H1302     1.0  0.25101  0.60955  0.00814  1.0000
  Fe  Fe86      1.0  0.46392  0.61289  0.34214  1.0000
  H   H1303     1.0  0.26444  0.53126  0.22712  1.0000
  S   S165      1.0  0.46059  0.62711  0.28848  1.0000
  Fe  Fe87      1.0  0.45913  0.58164  0.38681  1.0000
  S   S166      1.0  0.44705  0.56084  0.39935  1.0000
  S   S167      1.0  0.44400  0.60526  0.38209  1.0000
  H   H1304     1.0  0.28064  0.50548  0.18345  1.0000
  Fe  Fe88      1.0  0.35833  0.37112  0.35259  1.0000
  S   S168      1.0  0.37230  0.38808  0.31717  1.0000
  S   S169      1.0  0.36589  0.36119  0.40557  1.0000
  Fe  Fe89      1.0  0.34010  0.37020  0.29439  1.0000
  S   S170      1.0  0.35257  0.38768  0.25518  1.0000
  S   S171      1.0  0.32378  0.35525  0.28590  1.0000
  Fe  Fe90      1.0  0.37404  0.37357  0.27594  1.0000
  S   S172      1.0  0.39664  0.36606  0.24057  1.0000
  Fe  Fe91      1.0  0.34973  0.40076  0.30061  1.0000
  S   S173      1.0  0.34149  0.42695  0.30124  1.0000
  S   S174      1.0  0.36192  0.35561  0.31245  1.0000
  S   S175      1.0  0.33539  0.38432  0.33867  1.0000
  Fe  Fe92      1.0  0.35514  0.53603  0.30900  1.0000
  S   S176      1.0  0.37727  0.52529  0.27678  1.0000
  S   S177      1.0  0.33590  0.55510  0.28936  1.0000
  Fe  Fe93      1.0  0.36522  0.51916  0.37893  1.0000
  S   S178      1.0  0.38810  0.50749  0.35198  1.0000
  S   S179      1.0  0.35919  0.51315  0.43842  1.0000
  Fe  Fe94      1.0  0.38895  0.53083  0.31705  1.0000
  S   S180      1.0  0.40965  0.54309  0.29813  1.0000
  Fe  Fe95      1.0  0.37425  0.50280  0.31487  1.0000
  S   S181      1.0  0.38136  0.47820  0.30124  1.0000
  S   S182      1.0  0.36701  0.54282  0.34698  1.0000
  S   S183      1.0  0.35116  0.51323  0.34422  1.0000
  C   C722      1.0  0.43579  0.50166  0.30615  1.0000
  H   H1305     1.0  0.37905  0.53643  0.42105  1.0000
  C   C723      1.0  0.40551  0.34621  0.24560  1.0000
  H   H1306     1.0  0.37157  0.46094  0.37509  1.0000
  C   C724      1.0  0.34012  0.37669  0.44476  1.0000
  C   C725      1.0  0.35562  0.36908  0.44304  1.0000
  H   H1307     1.0  0.37513  0.42232  0.37664  1.0000
  H   H1308     1.0  0.27850  0.54463  0.26537  1.0000
  H   H1309     1.0  0.41384  0.51015  0.28643  1.0000
  H   H1310     1.0  0.33427  0.37793  0.42254  1.0000
  H   H1311     1.0  0.31985  0.50950  0.23153  1.0000
  H   H1312     1.0  0.41825  0.34907  0.19223  1.0000
  C   C726      1.0  0.35275  0.44084  0.30270  1.0000
  C   C727      1.0  0.36899  0.43726  0.29852  1.0000
  C   C728      1.0  0.37748  0.44880  0.29837  1.0000
  C   C729      1.0  0.36990  0.46404  0.30283  1.0000
  C   C730      1.0  0.35362  0.46749  0.30814  1.0000
  C   C731      1.0  0.34513  0.45599  0.30786  1.0000
  H   H1313     1.0  0.37504  0.42570  0.29450  1.0000
  H   H1314     1.0  0.39004  0.44597  0.29428  1.0000
  H   H1315     1.0  0.34760  0.47911  0.31173  1.0000
  H   H1316     1.0  0.33258  0.45889  0.31121  1.0000
  C   C732      1.0  0.43514  0.55814  0.37134  1.0000
  C   C733      1.0  0.43847  0.56274  0.33454  1.0000
  C   C734      1.0  0.43033  0.55828  0.31249  1.0000
  C   C735      1.0  0.41849  0.54964  0.32702  1.0000
  C   C736      1.0  0.41457  0.54579  0.36391  1.0000
  C   C737      1.0  0.42305  0.54982  0.38594  1.0000
  H   H1317     1.0  0.44785  0.56903  0.32299  1.0000
  H   H1318     1.0  0.43345  0.56124  0.28397  1.0000
  H   H1319     1.0  0.40536  0.53926  0.37542  1.0000
  H   H1320     1.0  0.42039  0.54626  0.41442  1.0000
  S   S184      1.0  0.35124  0.63820  0.22165  1.0000
  C   C738      1.0  0.38420  0.63067  0.14922  1.0000
  H   H1321     1.0  0.34689  0.32772  0.31646  1.0000
  C   C739      1.0  0.38642  0.31762  0.40423  1.0000
  H   H1322     1.0  0.41835  0.36638  0.35112  1.0000
  H   H1323     1.0  0.39372  0.39794  0.37159  1.0000
  C   C740      1.0  0.32870  0.57370  0.17435  1.0000
  C   C741      1.0  0.32122  0.58207  0.20149  1.0000
  C   C742      1.0  0.32414  0.57657  0.23626  1.0000
  C   C743      1.0  0.33478  0.56277  0.24427  1.0000
  C   C744      1.0  0.34307  0.55486  0.21679  1.0000
  C   C745      1.0  0.33998  0.56029  0.18196  1.0000
  H   H1324     1.0  0.31274  0.59248  0.19617  1.0000
  H   H1325     1.0  0.31775  0.58282  0.25728  1.0000
  H   H1326     1.0  0.35140  0.54426  0.22258  1.0000
  H   H1327     1.0  0.34598  0.55379  0.16110  1.0000
  C   C746      1.0  0.31840  0.53981  0.12395  1.0000
  H   H1328     1.0  0.47810  0.46428  0.38382  1.0000
  C   C747      1.0  0.41575  0.63731  0.04297  1.0000
  H   H1329     1.0  0.47158  0.45711  0.42998  1.0000
  H   H1330     1.0  0.32842  0.43819  0.46220  1.0000
  H   H1331     1.0  0.27563  0.53413  0.18319  1.0000
  H   H1332     1.0  0.39654  0.34824  0.41577  1.0000
  H   H1333     1.0  0.38947  0.32541  0.20272  1.0000
  C   C748      1.0  0.40727  0.34609  0.36227  1.0000
  H   H1334     1.0  0.31058  0.55012  0.11167  1.0000
  C   C749      1.0  0.33302  0.63054  0.18243  1.0000
  C   C750      1.0  0.32212  0.63435  0.15945  1.0000
  H   H1335     1.0  0.25613  0.63901  0.34388  1.0000
  C   C751      1.0  0.28952  0.52293  0.22555  1.0000
  H   H1336     1.0  0.33934  0.61872  0.18782  1.0000
  H   H1337     1.0  0.32015  0.62544  0.14707  1.0000
  C   C752      1.0  0.30900  0.34547  0.18737  1.0000
  C   C753      1.0  0.31587  0.35847  0.18474  1.0000
  C   C754      1.0  0.32068  0.36152  0.21430  1.0000
  C   C755      1.0  0.31857  0.35166  0.24717  1.0000
  C   C756      1.0  0.31178  0.33860  0.24979  1.0000
  H   H1338     1.0  0.29650  0.56268  0.26002  1.0000
  H   H1339     1.0  0.31729  0.36639  0.15970  1.0000
  H   H1340     1.0  0.32572  0.37170  0.21183  1.0000
  H   H1341     1.0  0.33767  0.52493  0.26870  1.0000
  H   H1342     1.0  0.39307  0.62327  0.19878  1.0000
  H   H1343     1.0  0.47931  0.52385  0.32834  1.0000
  C   C757      1.0  0.30715  0.33543  0.22009  1.0000
  C   C758      1.0  0.30301  0.54362  0.18491  1.0000
  C   C759      1.0  0.38718  0.53576  0.46968  1.0000
  H   H1344     1.0  0.43712  0.58083  0.46918  1.0000
  H   H1345     1.0  0.44692  0.32551  0.26378  1.0000
  H   H1346     1.0  0.30869  0.61606  0.26340  1.0000
  H   H1347     1.0  0.33798  0.45013  0.40450  1.0000
  C   C760      1.0  0.33363  0.55252  0.47147  1.0000
  H   H1348     1.0  0.40935  0.31646  0.37156  1.0000
  C   C761      1.0  0.47003  0.32058  0.14860  1.0000
  H   H1349     1.0  0.37263  0.37141  0.14366  1.0000
  H   H1350     1.0  0.44022  0.51239  0.29203  1.0000
  H   H1351     1.0  0.30386  0.52909  0.27389  1.0000
  H   H1352     1.0  0.35341  0.61206  0.11009  1.0000
  C   C762      1.0  0.33348  0.51490  0.26404  1.0000
  C   C763      1.0  0.46285  0.63381  0.48340  1.0000
  H   H1353     1.0  0.27449  0.55302  0.22194  1.0000
  C   C764      1.0  0.45387  0.32267  0.28540  1.0000
  H   H1354     1.0  0.35060  0.33207  0.14205  1.0000
  H   H1355     1.0  0.27222  0.63652  0.23093  1.0000
  C   C765      1.0  0.43835  0.31893  0.38290  1.0000
  H   H1356     1.0  0.31998  0.38809  0.47714  1.0000
  H   H1357     1.0  0.29803  0.51362  0.21352  1.0000
  N   N42       1.0  0.34596  0.42589  0.42532  1.0000
  H   H1358     1.0  0.46207  0.45384  0.39674  1.0000
  C   C766      1.0  0.32328  0.52008  0.23531  1.0000
  H   H1359     1.0  0.44544  0.49150  0.30406  1.0000
  H   H1360     1.0  0.32254  0.53148  0.10510  1.0000
  H   H1361     1.0  0.41681  0.61870  0.29569  1.0000
  H   H1362     1.0  0.36719  0.63292  0.04169  1.0000
  H   H1363     1.0  0.41313  0.64457  0.01738  1.0000
  C   C767      1.0  0.36328  0.46405  0.39902  1.0000
  H   H1364     1.0  0.40865  0.60835  0.47839  1.0000
  H   H1365     1.0  0.41941  0.32414  0.48863  1.0000
  H   H1366     1.0  0.30995  0.33095  0.27509  1.0000
  H   H1367     1.0  0.42155  0.49410  0.35581  1.0000
  C   C768      1.0  0.40777  0.34198  0.40271  1.0000
  C   C769      1.0  0.41216  0.58300  0.48563  1.0000
  H   H1368     1.0  0.39506  0.63475  0.13520  1.0000
  H   H1369     1.0  0.33639  0.56438  0.46243  1.0000
  H   H1370     1.0  0.35053  0.64423  0.11997  1.0000
  H   H1371     1.0  0.33066  0.60925  0.99901  1.0000
  H   H1372     1.0  0.28756  0.63709  0.28215  1.0000
  H   H1373     1.0  0.32112  0.55303  0.47155  1.0000
  H   H1374     1.0  0.36979  0.44142  0.42898  1.0000
  H   H1375     1.0  0.45260  0.33337  0.29662  1.0000
  H   H1376     1.0  0.38420  0.32037  0.16643  1.0000
  H   H1377     1.0  0.26837  0.57323  0.27633  1.0000
  C   C770      1.0  0.34909  0.44170  0.40629  1.0000
  H   H1378     1.0  0.40656  0.36595  0.31942  1.0000
  H   H1379     1.0  0.34698  0.61796  0.03399  1.0000
  H   H1380     1.0  0.36809  0.41683  0.44366  1.0000
  C   C771      1.0  0.37896  0.53089  0.44847  1.0000
  H   H1381     1.0  0.43157  0.32157  0.19666  1.0000
  C   C772      1.0  0.33205  0.38239  0.47567  1.0000
  H   H1382     1.0  0.45795  0.32485  0.14332  1.0000
  H   H1383     1.0  0.44354  0.60321  0.28402  1.0000
  H   H1384     1.0  0.37778  0.61370  0.19615  1.0000
  S   S185      1.0  0.27707  0.62634  0.01002  1.0000
  H   H1385     1.0  0.37179  0.33027  0.25394  1.0000
  C   C773      1.0  0.38623  0.39940  0.39762  1.0000
  H   H1386     1.0  0.29390  0.55242  0.17236  1.0000
  H   H1387     1.0  0.34268  0.62953  0.08776  1.0000
  C   C774      1.0  0.36115  0.32908  0.24501  1.0000
  H   H1388     1.0  0.30181  0.32545  0.22273  1.0000
  C   C775      1.0  0.42755  0.31856  0.41944  1.0000
  H   H1389     1.0  0.28671  0.59379  0.99956  1.0000
  C   C776      1.0  0.40213  0.32300  0.45722  1.0000
  C   C777      1.0  0.27945  0.64522  0.23036  1.0000
  C   C778      1.0  0.38716  0.64145  0.07044  1.0000
  H   H1390     1.0  0.41670  0.34769  0.40793  1.0000
  H   H1391     1.0  0.40051  0.62174  0.04469  1.0000
  H   H1392     1.0  0.47470  0.32581  0.24811  1.0000
  H   H1393     1.0  0.39731  0.37058  0.36240  1.0000
  C   C779      1.0  0.40742  0.36333  0.34807  1.0000
  H   H1394     1.0  0.36576  0.62091  0.14164  1.0000
  H   H1395     1.0  0.38324  0.38794  0.41116  1.0000
  H   H1396     1.0  0.44875  0.52569  0.46947  1.0000
  H   H1397     1.0  0.30173  0.64436  0.24582  1.0000
  C   C780      1.0  0.33651  0.42044  0.40430  1.0000
  H   H1398     1.0  0.47607  0.33066  0.14229  1.0000
  H   H1399     1.0  0.32009  0.63715  0.00849  1.0000
  C   C781      1.0  0.31052  0.42168  0.38657  1.0000
  C   C782      1.0  0.28899  0.56468  0.23968  1.0000
  C   C783      1.0  0.35273  0.61984  0.08410  1.0000
  C   C784      1.0  0.46770  0.46227  0.40417  1.0000
  H   H1400     1.0  0.34249  0.42049  0.37637  1.0000
  H   H1401     1.0  0.35465  0.44128  0.37817  1.0000
  H   H1402     1.0  0.26710  0.58000  0.22982  1.0000
  H   H1403     1.0  0.36560  0.40682  0.37492  1.0000
  H   H1404     1.0  0.41714  0.33931  0.34639  1.0000
  H   H1405     1.0  0.39462  0.33963  0.29968  1.0000
  C   C785      1.0  0.37036  0.51907  0.46311  1.0000
  H   H1406     1.0  0.39288  0.40333  0.41384  1.0000
  H   H1407     1.0  0.33913  0.60497  0.07224  1.0000
  H   H1408     1.0  0.31650  0.41928  0.35986  1.0000
  H   H1409     1.0  0.38519  0.31744  0.34950  1.0000
  N   N43       1.0  0.38866  0.60735  0.29985  1.0000
  C   C786      1.0  0.40504  0.60203  0.28130  1.0000
  C   C787      1.0  0.37694  0.60122  0.28616  1.0000
  C   C788      1.0  0.38713  0.60275  0.33956  1.0000
  C   C789      1.0  0.39079  0.58508  0.35391  1.0000
  C   C790      1.0  0.38237  0.58533  0.27306  1.0000
  C   C791      1.0  0.36874  0.57969  0.26524  1.0000
  C   C792      1.0  0.39106  0.58194  0.39374  1.0000
  C   C793      1.0  0.43406  0.60162  0.27169  1.0000
  H   H1410     1.0  0.40606  0.60677  0.25233  1.0000
  H   H1411     1.0  0.40792  0.58919  0.28331  1.0000
  H   H1412     1.0  0.36637  0.60020  0.30677  1.0000
  H   H1413     1.0  0.37264  0.60962  0.26327  1.0000
  H   H1414     1.0  0.40225  0.57958  0.34066  1.0000
  H   H1415     1.0  0.38168  0.57937  0.34977  1.0000
  H   H1416     1.0  0.39096  0.58654  0.24804  1.0000
  H   H1417     1.0  0.38784  0.57614  0.29287  1.0000
  H   H1418     1.0  0.36305  0.58831  0.24468  1.0000
  H   H1419     1.0  0.37300  0.56847  0.25537  1.0000
  H   H1420     1.0  0.35998  0.57773  0.28970  1.0000
  H   H1421     1.0  0.38000  0.58771  0.40839  1.0000
  H   H1422     1.0  0.39252  0.56922  0.40386  1.0000
  H   H1423     1.0  0.40097  0.58618  0.39897  1.0000
  H   H1424     1.0  0.43616  0.58925  0.26860  1.0000
  H   H1425     1.0  0.43450  0.60915  0.24511  1.0000
  C   C794      1.0  0.41068  0.32004  0.28027  1.0000
  H   H1426     1.0  0.31326  0.43247  0.42795  1.0000
  C   C795      1.0  0.37149  0.41136  0.39162  1.0000
  H   H1427     1.0  0.33537  0.40813  0.41540  1.0000
  C   C796      1.0  0.29913  0.62095  0.24787  1.0000
  H   H1428     1.0  0.41810  0.64482  0.05971  1.0000
  H   H1429     1.0  0.35284  0.47224  0.39071  1.0000
  H   H1430     1.0  0.32071  0.44150  0.38379  1.0000
  H   H1431     1.0  0.37220  0.63370  0.35851  1.0000
  C   C797      1.0  0.42358  0.32544  0.21933  1.0000
  H   H1432     1.0  0.30888  0.41047  0.40430  1.0000
  C   C798      1.0  0.33615  0.64219  0.19721  1.0000
  H   H1433     1.0  0.29016  0.61350  0.25668  1.0000
  H   H1434     1.0  0.30402  0.62063  0.21953  1.0000
  S   S186      1.0  0.47849  0.58880  0.34366  1.0000
  H   H1435     1.0  0.39639  0.34371  0.35717  1.0000
  S   S187      1.0  0.47507  0.61966  0.38162  1.0000
  H   H1436     1.0  0.26980  0.50251  0.22825  1.0000
  C   C799      1.0  0.29214  0.63766  0.25346  1.0000
  H   H1437     1.0  0.26013  0.51342  0.19214  1.0000
  C   C800      1.0  0.36321  0.34442  0.18488  1.0000
  C   C801      1.0  0.38107  0.31960  0.19571  1.0000
  C   C802      1.0  0.24589  0.64382  0.33046  1.0000
  H   H1438     1.0  0.39627  0.60105  0.45760  1.0000
  C   C803      1.0  0.37263  0.35520  0.19398  1.0000
  H   H1439     1.0  0.31811  0.52183  0.16982  1.0000
  N   N44       1.0  0.41045  0.32488  0.41908  1.0000
  H   H1440     1.0  0.32866  0.54364  0.12861  1.0000
  H   H1441     1.0  0.29891  0.42902  0.38401  1.0000
  C   C804      1.0  0.36931  0.37162  0.17255  1.0000
  N   N45       1.0  0.36464  0.32806  0.20591  1.0000
  H   H1442     1.0  0.39368  0.54501  0.45844  1.0000
  H   H1443     1.0  0.38413  0.61299  0.11891  1.0000
  H   H1444     1.0  0.35252  0.33986  0.24976  1.0000
  H   H1445     1.0  0.35079  0.35038  0.18821  1.0000
  H   H1446     1.0  0.36700  0.34423  0.15599  1.0000
  H   H1447     1.0  0.28575  0.64696  0.20252  1.0000
  C   C805      1.0  0.34940  0.61036  0.05935  1.0000
  C   C806      1.0  0.28397  0.54938  0.23802  1.0000
  H   H1448     1.0  0.41123  0.57449  0.46968  1.0000
  C   C807      1.0  0.40217  0.62928  0.06216  1.0000
  H   H1449     1.0  0.46508  0.63783  0.45504  1.0000
  H   H1450     1.0  0.38531  0.35076  0.18759  1.0000
  H   H1451     1.0  0.36962  0.35625  0.22243  1.0000
  H   H1452     1.0  0.36361  0.64162  0.28372  1.0000
  H   H1453     1.0  0.38114  0.33013  0.40179  1.0000
  H   H1454     1.0  0.33062  0.52486  0.21056  1.0000
  H   H1455     1.0  0.28641  0.51762  0.25397  1.0000
  C   C808      1.0  0.40818  0.59920  0.46363  1.0000
  C   C809      1.0  0.44203  0.63882  0.28704  1.0000
  H   H1456     1.0  0.27893  0.58799  0.25033  1.0000
  S   S188      1.0  0.25039  0.61013  0.19276  1.0000
  N   N46       1.0  0.37307  0.63502  0.09122  1.0000
  H   H1457     1.0  0.41648  0.60035  0.43820  1.0000
  H   H1458     1.0  0.37619  0.37908  0.17955  1.0000
  N   N47       1.0  0.44076  0.50134  0.36936  1.0000
  C   C810      1.0  0.43197  0.50524  0.40472  1.0000
  C   C811      1.0  0.45106  0.51314  0.35244  1.0000
  C   C812      1.0  0.42900  0.50306  0.34553  1.0000
  C   C813      1.0  0.45014  0.48491  0.37220  1.0000
  C   C814      1.0  0.45628  0.47761  0.40750  1.0000
  C   C815      1.0  0.41842  0.49643  0.42209  1.0000
  C   C816      1.0  0.46306  0.51478  0.37394  1.0000
  C   C817      1.0  0.47251  0.52718  0.35370  1.0000
  H   H1459     1.0  0.43663  0.63936  0.34307  1.0000
  C   C818      1.0  0.41393  0.49678  0.46183  1.0000
  H   H1460     1.0  0.42680  0.51785  0.40191  1.0000
  H   H1461     1.0  0.43988  0.50349  0.42409  1.0000
  H   H1462     1.0  0.45791  0.51039  0.32659  1.0000
  H   H1463     1.0  0.44377  0.52490  0.34619  1.0000
  H   H1464     1.0  0.42092  0.51451  0.34561  1.0000
  H   H1465     1.0  0.44318  0.47667  0.36852  1.0000
  H   H1466     1.0  0.46026  0.48424  0.35004  1.0000
  H   H1467     1.0  0.44651  0.47502  0.42918  1.0000
  H   H1468     1.0  0.46223  0.48538  0.41600  1.0000
  H   H1469     1.0  0.40800  0.50213  0.40976  1.0000
  H   H1470     1.0  0.42141  0.48411  0.41828  1.0000
  H   H1471     1.0  0.45728  0.51831  0.39975  1.0000
  H   H1472     1.0  0.47150  0.50374  0.37823  1.0000
  H   H1473     1.0  0.43230  0.32527  0.43405  1.0000
  H   H1474     1.0  0.34061  0.54504  0.45223  1.0000
  C   C819      1.0  0.47098  0.31693  0.27094  1.0000
  H   H1475     1.0  0.25715  0.63478  0.28319  1.0000
  H   H1476     1.0  0.37723  0.61554  0.06389  1.0000
  S   S189      1.0  0.44192  0.61823  0.47075  1.0000
  H   H1477     1.0  0.41148  0.50895  0.46661  1.0000
  H   H1478     1.0  0.40327  0.49175  0.47281  1.0000
  H   H1479     1.0  0.42344  0.48992  0.47602  1.0000
  H   H1480     1.0  0.37509  0.36147  0.47077  1.0000
  H   H1481     1.0  0.35678  0.37686  0.17874  1.0000
  H   H1482     1.0  0.40900  0.34297  0.47076  1.0000
  S   S190      1.0  0.47052  0.58541  0.42943  1.0000
  C   C820      1.0  0.27461  0.52599  0.20891  1.0000
  C   C821      1.0  0.41839  0.60612  0.29519  1.0000
  H   H1483     1.0  0.37505  0.60693  0.35259  1.0000
  C   C822      1.0  0.38830  0.61819  0.18091  1.0000
  C   C823      1.0  0.36812  0.62596  0.06860  1.0000
  H   H1484     1.0  0.42865  0.49884  0.25861  1.0000
  H   H1485     1.0  0.39719  0.60836  0.17184  1.0000
  H   H1486     1.0  0.42638  0.62843  0.03736  1.0000
  H   H1487     1.0  0.41922  0.59961  0.32245  1.0000
  H   H1488     1.0  0.39330  0.63024  0.30012  1.0000
  C   C824      1.0  0.30985  0.53195  0.15882  1.0000
  H   H1489     1.0  0.48071  0.52849  0.37005  1.0000
  C   C825      1.0  0.36309  0.36734  0.47207  1.0000
  H   H1490     1.0  0.39453  0.60866  0.34978  1.0000
  H   H1491     1.0  0.36901  0.47011  0.41307  1.0000
  H   H1492     1.0  0.37597  0.64059  0.15945  1.0000
  H   H1493     1.0  0.32901  0.41778  0.47016  1.0000
  H   H1494     1.0  0.41853  0.48920  0.29918  1.0000
  H   H1495     1.0  0.35788  0.40245  0.44144  1.0000
  H   H1496     1.0  0.32692  0.50954  0.28934  1.0000
  H   H1497     1.0  0.31412  0.54306  0.24527  1.0000
  C   C826      1.0  0.36078  0.41393  0.42743  1.0000
  C   C827      1.0  0.30907  0.53277  0.24565  1.0000
  C   C828      1.0  0.38507  0.62495  0.29109  1.0000
  H   H1498     1.0  0.38701  0.62880  0.26172  1.0000
  H   H1499     1.0  0.29531  0.56945  0.21354  1.0000
  N   N48       1.0  0.29660  0.53704  0.22274  1.0000
  C   C829      1.0  0.43259  0.64324  0.31793  1.0000
  C   C830      1.0  0.27494  0.57718  0.24973  1.0000
  C   C831      1.0  0.37663  0.62417  0.12490  1.0000
  H   H1500     1.0  0.34379  0.50613  0.25555  1.0000
  H   H1501     1.0  0.35544  0.64720  0.34472  1.0000
  C   C832      1.0  0.27113  0.51089  0.20288  1.0000
  C   C833      1.0  0.36765  0.64169  0.33565  1.0000
  C   C834      1.0  0.42342  0.49983  0.28658  1.0000
  C   C835      1.0  0.31994  0.43017  0.40176  1.0000
  C   C836      1.0  0.35884  0.44936  0.42337  1.0000
  H   H1502     1.0  0.30041  0.52744  0.15235  1.0000
  S   S191      1.0  0.30254  0.34269  0.14936  1.0000
  Fe  Fe96      1.0  0.29494  0.32192  0.13630  1.0000
  C   C837      1.0  0.36823  0.63296  0.30564  1.0000
  H   H1503     1.0  0.35995  0.62485  0.31486  1.0000
  C   C838      1.0  0.40269  0.33567  0.27734  1.0000
  H   H1504     1.0  0.46478  0.53863  0.34785  1.0000
  H   H1505     1.0  0.31215  0.55022  0.18472  1.0000
  H   H1506     1.0  0.45957  0.31719  0.40380  1.0000
  H   H1507     1.0  0.43854  0.33114  0.36951  1.0000
  C   C839      1.0  0.41601  0.34101  0.21678  1.0000
  H   H1508     1.0  0.40566  0.62176  0.08667  1.0000
  S   S192      1.0  0.27009  0.63447  0.10294  1.0000
  C   C840      1.0  0.23918  0.61684  0.00855  1.0000
  C   C841      1.0  0.25095  0.64620  0.29016  1.0000
  H   H1509     1.0  0.34084  0.32695  0.20610  1.0000
  C   C842      1.0  0.35377  0.32013  0.15707  1.0000
  H   H1510     1.0  0.46280  0.32176  0.20375  1.0000
  H   H1511     1.0  0.23776  0.63547  0.33869  1.0000
  C   C843      1.0  0.43674  0.64405  0.25451  1.0000
  C   C844      1.0  0.36040  0.64847  0.10088  1.0000
  C   C845      1.0  0.40792  0.33075  0.48261  1.0000
  C   C846      1.0  0.35275  0.32060  0.19690  1.0000
  H   H1512     1.0  0.44398  0.64064  0.23055  1.0000
  H   H1513     1.0  0.34117  0.64662  0.00216  1.0000
  H   H1514     1.0  0.35519  0.43073  0.48694  1.0000
  H   H1515     1.0  0.24217  0.31801  0.09381  1.0000
  H   H1516     1.0  0.48487  0.63762  0.30856  1.0000
  S   S193      1.0  0.27085  0.31802  0.13515  1.0000
  C   C847      1.0  0.35408  0.31658  0.30957  1.0000
  H   H1517     1.0  0.47791  0.31628  0.29185  1.0000
  H   H1518     1.0  0.47292  0.64509  0.20579  1.0000
  S   S194      1.0  0.30437  0.31664  0.08087  1.0000
  S   S195      1.0  0.26839  0.31704  0.03404  1.0000
  H   H1519     1.0  0.43305  0.40138  0.47401  1.0000
  C   C848      1.0  0.35406  0.31573  0.27107  1.0000
  H   H1520     1.0  0.34177  0.31675  0.26821  1.0000
  H   H1521     1.0  0.43756  0.38043  0.48395  1.0000
  H   H1522     1.0  0.38472  0.64832  0.04433  1.0000
  H   H1523     1.0  0.36613  0.31566  0.31380  1.0000
  H   H1524     1.0  0.33034  0.31536  0.16418  1.0000
  H   H1525     1.0  0.42879  0.52400  0.48810  1.0000
  Fe  Fe97      1.0  0.28962  0.61198  0.81803  1.0000
  S   S196      1.0  0.27593  0.63625  0.81357  1.0000
  Fe  Fe98      1.0  0.30014  0.61483  0.73776  1.0000
  S   S197      1.0  0.28731  0.63954  0.72722  1.0000
  S   S198      1.0  0.31648  0.60589  0.69075  1.0000
  Fe  Fe99      1.0  0.29621  0.64273  0.77386  1.0000
  H   H1526     1.0  0.45529  0.58691  0.50232  1.0000
  Fe  Fe100     1.0  0.26778  0.63122  0.76758  1.0000
  S   S199      1.0  0.31071  0.61886  0.78125  1.0000
  S   S200      1.0  0.27988  0.60600  0.77498  1.0000
  C   C849      1.0  0.39652  0.61652  0.76387  1.0000
  H   H1527     1.0  0.30583  0.37613  0.69355  1.0000
  H   H1528     1.0  0.34803  0.32482  0.53575  1.0000
  Fe  Fe101     1.0  0.36778  0.52727  0.65763  1.0000
  S   S201      1.0  0.38453  0.51269  0.69217  1.0000
  S   S202      1.0  0.34246  0.53474  0.68099  1.0000
  Fe  Fe102     1.0  0.39234  0.52582  0.59066  1.0000
  S   S203      1.0  0.41114  0.51149  0.62039  1.0000
  S   S204      1.0  0.39727  0.53490  0.53170  1.0000
  Fe  Fe103     1.0  0.39243  0.49781  0.64957  1.0000
  S   S205      1.0  0.39633  0.47127  0.66296  1.0000
  Fe  Fe104     1.0  0.40151  0.52771  0.66000  1.0000
  S   S206      1.0  0.41261  0.54021  0.69010  1.0000
  S   S207      1.0  0.37432  0.51133  0.61757  1.0000
  S   S208      1.0  0.38413  0.54305  0.62782  1.0000
  Fe  Fe105     1.0  0.34565  0.37627  0.66331  1.0000
  S   S209      1.0  0.36816  0.38493  0.65619  1.0000
  S   S210      1.0  0.33570  0.36417  0.71772  1.0000
  Fe  Fe106     1.0  0.34362  0.38545  0.58526  1.0000
  S   S211      1.0  0.36580  0.39441  0.57158  1.0000
  S   S212      1.0  0.32919  0.38767  0.54322  1.0000
  Fe  Fe107     1.0  0.37509  0.37314  0.60839  1.0000
  Fe  Fe108     1.0  0.35728  0.40564  0.61988  1.0000
  S   S213      1.0  0.35786  0.43154  0.60967  1.0000
  S   S214      1.0  0.35350  0.36301  0.61789  1.0000
  S   S215      1.0  0.33410  0.39809  0.63132  1.0000
  Fe  Fe109     1.0  0.47066  0.61467  0.70169  1.0000
  C   C850      1.0  0.32522  0.33614  0.56020  1.0000
  S   S216      1.0  0.45638  0.61790  0.75569  1.0000
  H   H1529     1.0  0.43262  0.64132  0.67271  1.0000
  S   S217      1.0  0.39908  0.36060  0.58755  1.0000
  C   C851      1.0  0.29450  0.32436  0.86661  1.0000
  C   C852      1.0  0.36931  0.57157  0.55434  1.0000
  C   C853      1.0  0.24712  0.61914  0.87817  1.0000
  S   S218      1.0  0.46048  0.61151  0.65651  1.0000
  H   H1530     1.0  0.32373  0.43281  0.65450  1.0000
  C   C854      1.0  0.42952  0.54847  0.67371  1.0000
  C   C855      1.0  0.43295  0.55844  0.69301  1.0000
  C   C856      1.0  0.44628  0.56527  0.68128  1.0000
  C   C857      1.0  0.45664  0.56169  0.65075  1.0000
  C   C858      1.0  0.45334  0.55150  0.63169  1.0000
  C   C859      1.0  0.43972  0.54510  0.64277  1.0000
  H   H1531     1.0  0.42535  0.56065  0.71751  1.0000
  H   H1532     1.0  0.44888  0.57283  0.69646  1.0000
  H   H1533     1.0  0.46148  0.54833  0.60860  1.0000
  H   H1534     1.0  0.43736  0.53719  0.62809  1.0000
  C   C860      1.0  0.38605  0.46019  0.64701  1.0000
  C   C861      1.0  0.38708  0.44421  0.66090  1.0000
  C   C862      1.0  0.37876  0.43514  0.64940  1.0000
  C   C863      1.0  0.36946  0.44197  0.62357  1.0000
  C   C864      1.0  0.36862  0.45788  0.60933  1.0000
  C   C865      1.0  0.37684  0.46695  0.62098  1.0000
  H   H1535     1.0  0.39415  0.43890  0.68113  1.0000
  H   H1536     1.0  0.37923  0.42302  0.66117  1.0000
  H   H1537     1.0  0.36144  0.46328  0.58935  1.0000
  H   H1538     1.0  0.37605  0.47916  0.60976  1.0000
  H   H1539     1.0  0.40230  0.62864  0.68552  1.0000
  H   H1540     1.0  0.44439  0.51138  0.50849  1.0000
  H   H1541     1.0  0.33861  0.34127  0.50734  1.0000
  H   H1542     1.0  0.43164  0.53190  0.54349  1.0000
  C   C866      1.0  0.31140  0.45144  0.62147  1.0000
  C   C867      1.0  0.40676  0.59435  0.73215  1.0000
  H   H1543     1.0  0.37892  0.51071  0.54639  1.0000
  H   H1544     1.0  0.43796  0.44549  0.58741  1.0000
  H   H1545     1.0  0.44718  0.58474  0.54851  1.0000
  C   C868      1.0  0.30746  0.33566  0.90263  1.0000
  C   C869      1.0  0.45216  0.62394  0.49789  1.0000
  C   C870      1.0  0.45690  0.62373  0.55692  1.0000
  C   C871      1.0  0.46742  0.63379  0.54257  1.0000
  H   H1546     1.0  0.45142  0.53382  0.52448  1.0000
  H   H1547     1.0  0.32664  0.63260  0.92991  1.0000
  C   C872      1.0  0.42673  0.31992  0.62188  1.0000
  H   H1548     1.0  0.45449  0.61983  0.58520  1.0000
  H   H1549     1.0  0.45547  0.57225  0.78457  1.0000
  S   S219      1.0  0.29217  0.59608  0.87092  1.0000
  H   H1550     1.0  0.35780  0.61689  0.72750  1.0000
  H   H1551     1.0  0.25056  0.59489  0.90590  1.0000
  H   H1552     1.0  0.31852  0.33469  0.91229  1.0000
  H   H1553     1.0  0.40327  0.58230  0.51005  1.0000
  C   C873      1.0  0.33764  0.54570  0.50837  1.0000
  H   H1554     1.0  0.43576  0.62387  0.81968  1.0000
  H   H1555     1.0  0.45865  0.55904  0.50269  1.0000
  N   N49       1.0  0.31330  0.33100  0.62712  1.0000
  C   C874      1.0  0.32359  0.58600  0.68961  1.0000
  C   C875      1.0  0.33886  0.58137  0.67246  1.0000
  C   C876      1.0  0.34493  0.56561  0.67079  1.0000
  C   C877      1.0  0.33556  0.55446  0.68485  1.0000
  C   C878      1.0  0.32017  0.55913  0.70122  1.0000
  C   C879      1.0  0.31424  0.57484  0.70405  1.0000
  H   H1556     1.0  0.34607  0.59000  0.66082  1.0000
  H   H1557     1.0  0.35677  0.56219  0.65805  1.0000
  H   H1558     1.0  0.31278  0.55057  0.71149  1.0000
  H   H1559     1.0  0.30232  0.57839  0.71648  1.0000
  H   H1560     1.0  0.47997  0.57018  0.51526  1.0000
  C   C880      1.0  0.45008  0.56359  0.52500  1.0000
  H   H1561     1.0  0.30391  0.46312  0.62230  1.0000
  C   C881      1.0  0.29449  0.57484  0.62318  1.0000
  C   C882      1.0  0.42570  0.44984  0.58360  1.0000
  H   H1562     1.0  0.44300  0.59194  0.74012  1.0000
  C   C883      1.0  0.29492  0.33302  0.93624  1.0000
  C   C884      1.0  0.24392  0.60230  0.88539  1.0000
  H   H1563     1.0  0.28935  0.58740  0.62240  1.0000
  H   H1564     1.0  0.32160  0.45240  0.59981  1.0000
  C   C885      1.0  0.29172  0.35861  0.71745  1.0000
  C   C886      1.0  0.30541  0.36486  0.71019  1.0000
  H   H1565     1.0  0.30460  0.44366  0.61545  1.0000
  H   H1566     1.0  0.28168  0.36504  0.70596  1.0000
  H   H1567     1.0  0.40136  0.58616  0.75455  1.0000
  C   C887      1.0  0.33172  0.64159  0.84856  1.0000
  C   C888      1.0  0.44898  0.61918  0.53473  1.0000
  H   H1568     1.0  0.29227  0.58231  0.94455  1.0000
  H   H1569     1.0  0.37909  0.44115  0.54132  1.0000
  H   H1570     1.0  0.25872  0.64590  0.69397  1.0000
  H   H1571     1.0  0.29588  0.56955  0.65097  1.0000
  H   H1572     1.0  0.44036  0.61196  0.54617  1.0000
  C   C889      1.0  0.39597  0.59959  0.70407  1.0000
  C   C890      1.0  0.39064  0.58562  0.69697  1.0000
  H   H1573     1.0  0.35086  0.41151  0.49963  1.0000
  H   H1574     1.0  0.34107  0.63142  0.95654  1.0000
  H   H1575     1.0  0.42760  0.63004  0.64492  1.0000
  C   C891      1.0  0.33822  0.50679  0.59159  1.0000
  H   H1576     1.0  0.33026  0.44146  0.52252  1.0000
  C   C892      1.0  0.32780  0.33037  0.59922  1.0000
  H   H1577     1.0  0.31930  0.32816  0.55205  1.0000
  H   H1578     1.0  0.42476  0.33584  0.57249  1.0000
  C   C893      1.0  0.47148  0.57545  0.53647  1.0000
  C   C894      1.0  0.43537  0.58671  0.76375  1.0000
  H   H1579     1.0  0.38923  0.62337  0.74421  1.0000
  H   H1580     1.0  0.28636  0.56920  0.61475  1.0000
  H   H1581     1.0  0.39091  0.34813  0.66252  1.0000
  C   C895      1.0  0.28342  0.62705  0.93838  1.0000
  H   H1582     1.0  0.38543  0.60799  0.71252  1.0000
  H   H1583     1.0  0.40242  0.60489  0.67856  1.0000
  H   H1584     1.0  0.40080  0.57687  0.68768  1.0000
  H   H1585     1.0  0.38376  0.57996  0.72136  1.0000
  H   H1586     1.0  0.38324  0.58951  0.67611  1.0000
  C   C896      1.0  0.38699  0.52868  0.50535  1.0000
  H   H1587     1.0  0.31805  0.34800  0.55632  1.0000
  N   N50       1.0  0.33253  0.55223  0.57256  1.0000
  C   C897      1.0  0.34008  0.53545  0.58304  1.0000
  C   C898      1.0  0.34344  0.56268  0.57379  1.0000
  C   C899      1.0  0.31825  0.55571  0.60035  1.0000
  C   C900      1.0  0.32769  0.55555  0.53649  1.0000
  H   H1588     1.0  0.33543  0.53361  0.51518  1.0000
  C   C901      1.0  0.32913  0.52347  0.59034  1.0000
  C   C902      1.0  0.31025  0.57308  0.59852  1.0000
  H   H1589     1.0  0.29920  0.32427  0.59667  1.0000
  H   H1590     1.0  0.36608  0.54821  0.55794  1.0000
  H   H1591     1.0  0.38903  0.60875  0.78230  1.0000
  H   H1592     1.0  0.48347  0.64004  0.84950  1.0000
  H   H1593     1.0  0.34630  0.50551  0.56619  1.0000
  H   H1594     1.0  0.34498  0.53404  0.60761  1.0000
  H   H1595     1.0  0.35028  0.53183  0.56294  1.0000
  H   H1596     1.0  0.33826  0.57512  0.56555  1.0000
  H   H1597     1.0  0.34529  0.56144  0.60160  1.0000
  H   H1598     1.0  0.32119  0.55152  0.62750  1.0000
  H   H1599     1.0  0.30923  0.54923  0.59884  1.0000
  H   H1600     1.0  0.31558  0.55374  0.53896  1.0000
  H   H1601     1.0  0.32726  0.56809  0.52466  1.0000
  H   H1602     1.0  0.48186  0.62364  0.78067  1.0000
  H   H1603     1.0  0.46884  0.63254  0.83694  1.0000
  H   H1604     1.0  0.32143  0.52403  0.61653  1.0000
  H   H1605     1.0  0.32164  0.52595  0.56984  1.0000
  H   H1606     1.0  0.30841  0.57852  0.57111  1.0000
  H   H1607     1.0  0.31748  0.57964  0.60737  1.0000
  H   H1608     1.0  0.25597  0.61524  0.93876  1.0000
  C   C903      1.0  0.39677  0.33086  0.51808  1.0000
  H   H1609     1.0  0.33438  0.31820  0.60031  1.0000
  C   C904      1.0  0.34073  0.33665  0.53493  1.0000
  C   C905      1.0  0.41190  0.63123  0.69558  1.0000
  C   C906      1.0  0.31680  0.44460  0.65702  1.0000
  H   H1610     1.0  0.29145  0.34545  0.82576  1.0000
  H   H1611     1.0  0.35938  0.33468  0.81681  1.0000
  H   H1612     1.0  0.26195  0.59379  0.84366  1.0000
  H   H1613     1.0  0.33726  0.33869  0.86504  1.0000
  H   H1614     1.0  0.27132  0.32992  0.82632  1.0000
  H   H1615     1.0  0.28253  0.34866  0.86999  1.0000
  C   C907      1.0  0.30090  0.37635  0.61841  1.0000
  H   H1616     1.0  0.45222  0.55494  0.54935  1.0000
  N   N51       1.0  0.41671  0.40985  0.57589  1.0000
  C   C908      1.0  0.42927  0.40605  0.54489  1.0000
  C   C909      1.0  0.42032  0.42260  0.59085  1.0000
  C   C910      1.0  0.41744  0.39539  0.60426  1.0000
  C   C911      1.0  0.40061  0.41437  0.56629  1.0000
  C   C912      1.0  0.39927  0.42332  0.52795  1.0000
  C   C913      1.0  0.42849  0.39145  0.53025  1.0000
  C   C914      1.0  0.40666  0.39692  0.64043  1.0000
  C   C915      1.0  0.42024  0.43867  0.56640  1.0000
  C   C916      1.0  0.38267  0.43183  0.52489  1.0000
  C   C917      1.0  0.44043  0.52334  0.49455  1.0000
  C   C918      1.0  0.40719  0.38110  0.66500  1.0000
  H   H1617     1.0  0.44096  0.40400  0.55254  1.0000
  H   H1618     1.0  0.42940  0.41601  0.52261  1.0000
  H   H1619     1.0  0.41159  0.42515  0.61463  1.0000
  H   H1620     1.0  0.43179  0.41871  0.59991  1.0000
  H   H1621     1.0  0.42956  0.39110  0.60962  1.0000
  H   H1622     1.0  0.41430  0.38576  0.59499  1.0000
  H   H1623     1.0  0.39539  0.40387  0.56945  1.0000
  H   H1624     1.0  0.39266  0.42139  0.58542  1.0000
  H   H1625     1.0  0.40275  0.41502  0.50901  1.0000
  H   H1626     1.0  0.40678  0.43212  0.51872  1.0000
  H   H1627     1.0  0.43336  0.38071  0.54767  1.0000
  H   H1628     1.0  0.41635  0.39076  0.52952  1.0000
  H   H1629     1.0  0.39449  0.40162  0.63652  1.0000
  H   H1630     1.0  0.41036  0.40463  0.65448  1.0000
  H   H1631     1.0  0.42802  0.43780  0.54055  1.0000
  H   H1632     1.0  0.40820  0.44405  0.56204  1.0000
  C   C919      1.0  0.38449  0.63992  0.79443  1.0000
  H   H1633     1.0  0.32519  0.42230  0.53462  1.0000
  H   H1634     1.0  0.26321  0.34967  0.83226  1.0000
  C   C920      1.0  0.28959  0.31734  0.65156  1.0000
  C   C921      1.0  0.42874  0.58007  0.49474  1.0000
  H   H1635     1.0  0.39568  0.31879  0.53141  1.0000
  H   H1636     1.0  0.41916  0.37620  0.67048  1.0000
  H   H1637     1.0  0.39926  0.38245  0.69058  1.0000
  H   H1638     1.0  0.40340  0.37277  0.65285  1.0000
  C   C922      1.0  0.26949  0.33832  0.84467  1.0000
  H   H1639     1.0  0.33737  0.45484  0.64508  1.0000
  H   H1640     1.0  0.35889  0.40472  0.76542  1.0000
  C   C923      1.0  0.40569  0.57493  0.60562  1.0000
  C   C924      1.0  0.37029  0.51197  0.49860  1.0000
  H   H1641     1.0  0.40325  0.32474  0.70075  1.0000
  H   H1642     1.0  0.42667  0.55205  0.57123  1.0000
  H   H1643     1.0  0.40865  0.63429  0.77134  1.0000
  C   C925      1.0  0.32677  0.45491  0.66588  1.0000
  H   H1644     1.0  0.31588  0.34247  0.83214  1.0000
  C   C926      1.0  0.28506  0.34028  0.85146  1.0000
  H   H1645     1.0  0.30467  0.34800  0.88928  1.0000
  H   H1646     1.0  0.39495  0.57642  0.59444  1.0000
  H   H1647     1.0  0.40742  0.56352  0.62361  1.0000
  H   H1648     1.0  0.33403  0.63011  0.86432  1.0000
  C   C927      1.0  0.42285  0.63831  0.66380  1.0000
  H   H1649     1.0  0.28701  0.62815  0.88172  1.0000
  H   H1650     1.0  0.29652  0.31699  0.84610  1.0000
  H   H1651     1.0  0.30350  0.32510  0.77206  1.0000
  H   H1652     1.0  0.42170  0.55197  0.49586  1.0000
  H   H1653     1.0  0.32557  0.33437  0.66616  1.0000
  C   C928      1.0  0.28999  0.59482  0.94270  1.0000
  H   H1654     1.0  0.38128  0.56871  0.53942  1.0000
  C   C929      1.0  0.43568  0.63486  0.80160  1.0000
  C   C930      1.0  0.33953  0.38064  0.50469  1.0000
  H   H1655     1.0  0.36415  0.40932  0.71790  1.0000
  H   H1656     1.0  0.34261  0.34597  0.79865  1.0000
  H   H1657     1.0  0.35620  0.60163  0.70551  1.0000
  H   H1658     1.0  0.32829  0.58630  0.89892  1.0000
  C   C931      1.0  0.39921  0.62796  0.78573  1.0000
  H   H1659     1.0  0.40424  0.58428  0.62129  1.0000
  H   H1660     1.0  0.42995  0.57470  0.58903  1.0000
  C   C932      1.0  0.28330  0.61747  0.97185  1.0000
  S   S220      1.0  0.47424  0.56894  0.63675  1.0000
  H   H1661     1.0  0.41762  0.58785  0.56005  1.0000
  H   H1662     1.0  0.47214  0.56750  0.56225  1.0000
  H   H1663     1.0  0.25828  0.64078  0.89743  1.0000
  H   H1664     1.0  0.32997  0.42610  0.70780  1.0000
  C   C933      1.0  0.30346  0.34716  0.62424  1.0000
  S   S221      1.0  0.27377  0.33625  0.74673  1.0000
  C   C934      1.0  0.29093  0.34410  0.73948  1.0000
  H   H1665     1.0  0.28053  0.63956  0.93653  1.0000
  C   C935      1.0  0.41975  0.57604  0.57603  1.0000
  C   C936      1.0  0.40090  0.34034  0.65109  1.0000
  H   H1666     1.0  0.45766  0.64647  0.88676  1.0000
  C   C937      1.0  0.35965  0.56016  0.55029  1.0000
  H   H1667     1.0  0.34793  0.43112  0.68445  1.0000
  C   C938      1.0  0.40792  0.32711  0.67272  1.0000
  H   H1668     1.0  0.47460  0.58656  0.53829  1.0000
  H   H1669     1.0  0.32753  0.33589  0.75905  1.0000
  C   C939      1.0  0.35511  0.37324  0.50273  1.0000
  H   H1670     1.0  0.33592  0.33699  0.60477  1.0000
  N   N52       1.0  0.33982  0.57197  0.79764  1.0000
  C   C940      1.0  0.35568  0.56192  0.80008  1.0000
  C   C941      1.0  0.33329  0.57890  0.83106  1.0000
  C   C942      1.0  0.32910  0.56162  0.79461  1.0000
  C   C943      1.0  0.34032  0.58451  0.76510  1.0000
  C   C944      1.0  0.35023  0.59685  0.76334  1.0000
  C   C945      1.0  0.36327  0.55293  0.76892  1.0000
  C   C946      1.0  0.31147  0.56899  0.79807  1.0000
  C   C947      1.0  0.34489  0.58317  0.85012  1.0000
  C   C948      1.0  0.33622  0.59289  0.87854  1.0000
  C   C949      1.0  0.34759  0.33432  0.81265  1.0000
  C   C950      1.0  0.37965  0.54409  0.77332  1.0000
  C   C951      1.0  0.30175  0.55692  0.79856  1.0000
  H   H1671     1.0  0.35496  0.55311  0.82496  1.0000
  H   H1672     1.0  0.36411  0.56888  0.80230  1.0000
  H   H1673     1.0  0.32420  0.58944  0.82555  1.0000
  H   H1674     1.0  0.32719  0.57062  0.85184  1.0000
  H   H1675     1.0  0.33029  0.55089  0.81521  1.0000
  H   H1676     1.0  0.33240  0.55765  0.76847  1.0000
  H   H1677     1.0  0.34422  0.57934  0.74066  1.0000
  H   H1678     1.0  0.32846  0.59107  0.76248  1.0000
  H   H1679     1.0  0.36234  0.59140  0.76657  1.0000
  H   H1680     1.0  0.34491  0.60405  0.78418  1.0000
  H   H1681     1.0  0.35641  0.54420  0.76781  1.0000
  H   H1682     1.0  0.36434  0.56089  0.74300  1.0000
  H   H1683     1.0  0.30924  0.57856  0.77556  1.0000
  H   H1684     1.0  0.30694  0.57379  0.82286  1.0000
  H   H1685     1.0  0.35170  0.57237  0.86350  1.0000
  H   H1686     1.0  0.35325  0.58981  0.83177  1.0000
  N   N53       1.0  0.43363  0.56493  0.51892  1.0000
  H   H1687     1.0  0.34467  0.59590  0.89178  1.0000
  H   H1688     1.0  0.32921  0.60388  0.86643  1.0000
  H   H1689     1.0  0.35868  0.56237  0.52189  1.0000
  C   C952      1.0  0.42075  0.61661  0.71740  1.0000
  H   H1690     1.0  0.29728  0.34977  0.60119  1.0000
  H   H1691     1.0  0.38743  0.55230  0.77239  1.0000
  H   H1692     1.0  0.37941  0.53573  0.79877  1.0000
  H   H1693     1.0  0.38458  0.53742  0.75128  1.0000
  H   H1694     1.0  0.30574  0.55140  0.77460  1.0000
  H   H1695     1.0  0.30255  0.54776  0.82256  1.0000
  H   H1696     1.0  0.28936  0.56269  0.79914  1.0000
  H   H1697     1.0  0.35400  0.43309  0.74503  1.0000
  H   H1698     1.0  0.34164  0.42594  0.54902  1.0000
  C   C953      1.0  0.28975  0.60446  0.90930  1.0000
  C   C954      1.0  0.24544  0.64364  0.89875  1.0000
  C   C955      1.0  0.31803  0.32655  0.66325  1.0000
  C   C956      1.0  0.33732  0.33005  0.84843  1.0000
  H   H1699     1.0  0.31693  0.61028  0.97039  1.0000
  C   C957      1.0  0.30391  0.33608  0.75469  1.0000
  N   N54       1.0  0.41109  0.60691  0.74636  1.0000
  H   H1700     1.0  0.31786  0.35921  0.64431  1.0000
  H   H1701     1.0  0.41342  0.59286  0.79816  1.0000
  H   H1702     1.0  0.29406  0.34794  0.64788  1.0000
  H   H1703     1.0  0.41734  0.58733  0.71870  1.0000
  C   C958      1.0  0.31754  0.34230  0.74747  1.0000
  H   H1704     1.0  0.29130  0.37647  0.64158  1.0000
  S   S222      1.0  0.47710  0.64006  0.57010  1.0000
  C   C959      1.0  0.28690  0.62060  0.90724  1.0000
  H   H1705     1.0  0.42835  0.60921  0.69854  1.0000
  H   H1706     1.0  0.30768  0.32841  0.68440  1.0000
  H   H1707     1.0  0.43211  0.57645  0.75768  1.0000
  C   C960      1.0  0.32905  0.62986  0.95740  1.0000
  H   H1708     1.0  0.33900  0.61427  0.72382  1.0000
  C   C961      1.0  0.43961  0.53511  0.51840  1.0000
  H   H1709     1.0  0.33748  0.60540  0.95440  1.0000
  Fe  Fe110     1.0  0.47905  0.62383  0.62207  1.0000
  H   H1710     1.0  0.40255  0.62146  0.81136  1.0000
  C   C962      1.0  0.35424  0.40966  0.74042  1.0000
  C   C963      1.0  0.28688  0.60129  0.97390  1.0000
  C   C964      1.0  0.32052  0.33024  0.84364  1.0000
  H   H1711     1.0  0.41826  0.45124  0.60974  1.0000
  H   H1712     1.0  0.29594  0.37880  0.59365  1.0000
  C   C965      1.0  0.35086  0.60802  0.72782  1.0000
  H   H1713     1.0  0.26213  0.33408  0.86995  1.0000
  H   H1714     1.0  0.42928  0.59024  0.50600  1.0000
  H   H1715     1.0  0.25421  0.32311  0.97193  1.0000
  H   H1716     1.0  0.42499  0.60755  0.78497  1.0000
  H   H1717     1.0  0.32126  0.36134  0.59714  1.0000
  C   C966      1.0  0.31214  0.36069  0.62111  1.0000
  H   H1718     1.0  0.33615  0.42596  0.76502  1.0000
  C   C967      1.0  0.32010  0.64533  0.82749  1.0000
  C   C968      1.0  0.45509  0.57873  0.52791  1.0000
  C   C969      1.0  0.42072  0.59886  0.77486  1.0000
  C   C970      1.0  0.41998  0.33338  0.60042  1.0000
  C   C971      1.0  0.44480  0.58046  0.79378  1.0000
  C   C972      1.0  0.31845  0.35660  0.72487  1.0000
  H   H1719     1.0  0.25996  0.61795  0.87515  1.0000
  H   H1720     1.0  0.31324  0.63682  0.82783  1.0000
  H   H1721     1.0  0.42489  0.46149  0.56635  1.0000
  H   H1722     1.0  0.37442  0.42364  0.53364  1.0000
  C   C973      1.0  0.40704  0.34361  0.61495  1.0000
  H   H1723     1.0  0.36095  0.37181  0.52505  1.0000
  H   H1724     1.0  0.30722  0.38579  0.61761  1.0000
  C   C974      1.0  0.33857  0.43340  0.70744  1.0000
  N   N55       1.0  0.33119  0.45049  0.70244  1.0000
  C   C975      1.0  0.34310  0.45995  0.70312  1.0000
  H   H1725     1.0  0.36388  0.50265  0.50976  1.0000
  C   C976      1.0  0.44465  0.63534  0.76745  1.0000
  C   C977      1.0  0.31661  0.45346  0.72968  1.0000
  C   C978      1.0  0.31849  0.45751  0.76499  1.0000
  C   C979      1.0  0.33855  0.47776  0.69046  1.0000
  C   C980      1.0  0.34557  0.42642  0.74155  1.0000
  C   C981      1.0  0.32846  0.61266  0.97128  1.0000
  C   C982      1.0  0.30352  0.45733  0.79230  1.0000
  C   C983      1.0  0.34931  0.48667  0.70009  1.0000
  H   H1726     1.0  0.34493  0.50353  0.61369  1.0000
  H   H1727     1.0  0.35424  0.45593  0.68591  1.0000
  H   H1728     1.0  0.34619  0.45806  0.72985  1.0000
  H   H1729     1.0  0.44839  0.59005  0.80203  1.0000
  H   H1730     1.0  0.28323  0.33471  0.92922  1.0000
  C   C984      1.0  0.37869  0.51664  0.51952  1.0000
  H   H1731     1.0  0.32014  0.46708  0.66181  1.0000
  H   H1732     1.0  0.30795  0.46334  0.71858  1.0000
  H   H1733     1.0  0.31067  0.44326  0.73628  1.0000
  H   H1734     1.0  0.32119  0.46937  0.76032  1.0000
  H   H1735     1.0  0.32798  0.44935  0.77700  1.0000
  H   H1736     1.0  0.33959  0.48031  0.66110  1.0000
  H   H1737     1.0  0.32639  0.48233  0.70216  1.0000
  H   H1738     1.0  0.41107  0.56157  0.54923  1.0000
  H   H1739     1.0  0.43787  0.57416  0.81709  1.0000
  H   H1740     1.0  0.33003  0.49864  0.59604  1.0000
  H   H1741     1.0  0.42893  0.62108  0.72862  1.0000
  H   H1742     1.0  0.30507  0.46067  0.81690  1.0000
  H   H1743     1.0  0.29369  0.46576  0.78185  1.0000
  H   H1744     1.0  0.30063  0.44549  0.79921  1.0000
  H   H1745     1.0  0.34611  0.49928  0.68951  1.0000
  H   H1746     1.0  0.34829  0.48516  0.72933  1.0000
  H   H1747     1.0  0.36160  0.48255  0.68833  1.0000
  H   H1748     1.0  0.37463  0.63406  0.80841  1.0000
  H   H1749     1.0  0.30639  0.44346  0.67792  1.0000
  H   H1750     1.0  0.24626  0.63635  0.97171  1.0000
  H   H1751     1.0  0.34631  0.40223  0.73756  1.0000
  N   N56       1.0  0.30971  0.32471  0.87676  1.0000
  H   H1752     1.0  0.28481  0.34236  0.98452  1.0000
  H   H1753     1.0  0.36412  0.58370  0.54354  1.0000
  C   C985      1.0  0.42249  0.56304  0.55365  1.0000
  H   H1754     1.0  0.34714  0.34446  0.54218  1.0000
  H   H1755     1.0  0.28142  0.32848  0.65469  1.0000
  Fe  Fe111     1.0  0.47881  0.58997  0.65428  1.0000
  H   H1756     1.0  0.29090  0.35665  0.94721  1.0000
  C   C986      1.0  0.47303  0.64335  0.83678  1.0000
  H   H1757     1.0  0.38201  0.43732  0.49687  1.0000
  C   C987      1.0  0.33498  0.42875  0.52683  1.0000
  C   C988      1.0  0.34566  0.42407  0.49328  1.0000
  H   H1758     1.0  0.36998  0.57083  0.58262  1.0000
  H   H1759     1.0  0.35027  0.54484  0.50642  1.0000
  H   H1760     1.0  0.38509  0.33771  0.51416  1.0000
  H   H1761     1.0  0.47779  0.64397  0.73272  1.0000
  C   C989      1.0  0.24318  0.61960  0.94138  1.0000
  H   H1762     1.0  0.23787  0.60899  0.94914  1.0000
  C   C990      1.0  0.47012  0.63908  0.50584  1.0000
  H   H1763     1.0  0.24322  0.60195  0.83014  1.0000
  C   C991      1.0  0.30381  0.31996  0.62195  1.0000
  H   H1764     1.0  0.40680  0.64035  0.71220  1.0000
  H   H1765     1.0  0.40130  0.33630  0.53579  1.0000
  C   C992      1.0  0.29396  0.34445  0.96091  1.0000
  C   C993      1.0  0.31712  0.64036  0.98140  1.0000
  H   H1766     1.0  0.24635  0.58303  0.85789  1.0000
  S   S223      1.0  0.35553  0.64775  0.87366  1.0000
  H   H1767     1.0  0.24435  0.62498  0.85167  1.0000
  C   C994      1.0  0.24917  0.59488  0.85211  1.0000
  S   S224      1.0  0.24209  0.64042  0.76657  1.0000
  H   H1768     1.0  0.30574  0.63677  0.98460  1.0000
  H   H1769     1.0  0.30519  0.34278  0.97027  1.0000
  H   H1770     1.0  0.29768  0.32111  0.95154  1.0000
  H   H1771     1.0  0.34876  0.32551  0.79563  1.0000
  H   H1772     1.0  0.32109  0.32341  0.82258  1.0000
  C   C995      1.0  0.43361  0.55191  0.49992  1.0000
  N   N57       1.0  0.23903  0.62880  0.90638  1.0000
  H   H1773     1.0  0.28687  0.31862  0.88940  1.0000
  H   H1774     1.0  0.34287  0.31844  0.86117  1.0000
  C   C996      1.0  0.42080  0.31683  0.65817  1.0000
  H   H1775     1.0  0.47786  0.64724  0.49471  1.0000
  C   C997      1.0  0.23825  0.62824  0.97356  1.0000
  H   H1776     1.0  0.38130  0.64774  0.76991  1.0000
  H   H1777     1.0  0.38657  0.64714  0.81214  1.0000
  H   H1778     1.0  0.42020  0.64814  0.83952  1.0000
  H   H1779     1.0  0.45029  0.39162  0.49277  1.0000
  C   C998      1.0  0.43796  0.39128  0.49293  1.0000
  H   H1780     1.0  0.24644  0.86118  0.31947  1.0000
  H   H1781     1.0  0.24025  0.64988  0.27828  1.0000
  H   H1782     1.0  0.35364  0.73294  0.43894  1.0000
  C   C999      1.0  0.24155  0.88345  0.26269  1.0000
  S   S225      1.0  0.35560  0.68006  0.16764  1.0000
  S   S226      1.0  0.25293  0.77974  0.39087  1.0000
  H   H1783     1.0  0.25419  0.88356  0.25966  1.0000
  S   S227      1.0  0.37951  0.69694  0.19332  1.0000
  H   H1784     1.0  0.33000  0.66634  0.20245  1.0000
  Fe  Fe112     1.0  0.35417  0.69515  0.20791  1.0000
  S   S228      1.0  0.33296  0.71405  0.21776  1.0000
  Fe  Fe113     1.0  0.38114  0.67999  0.15647  1.0000
  S   S229      1.0  0.39521  0.67843  0.10122  1.0000
  H   H1785     1.0  0.31982  0.69540  0.33651  1.0000
  C   C1000     1.0  0.34499  0.68950  0.33372  1.0000
  Fe  Fe114     1.0  0.29533  0.75809  0.37025  1.0000
  S   S230      1.0  0.27963  0.75088  0.42144  1.0000
  S   S231      1.0  0.32002  0.74552  0.35436  1.0000
  Fe  Fe115     1.0  0.27074  0.78484  0.34258  1.0000
  Fe  Fe116     1.0  0.27194  0.77646  0.42267  1.0000
  H   H1786     1.0  0.38721  0.64978  0.39581  1.0000
  Fe  Fe117     1.0  0.26173  0.75465  0.38678  1.0000
  S   S232      1.0  0.28934  0.78360  0.37428  1.0000
  S   S233      1.0  0.27793  0.75990  0.33556  1.0000
  C   C1001     1.0  0.38689  0.70774  0.33122  1.0000
  H   H1787     1.0  0.33938  0.74244  0.41079  1.0000
  H   H1788     1.0  0.26528  0.73522  0.33341  1.0000
  Fe  Fe118     1.0  0.36107  0.66005  0.21129  1.0000
  H   H1789     1.0  0.25033  0.77591  0.23798  1.0000
  N   N58       1.0  0.26926  0.66032  0.23896  1.0000
  C   C1002     1.0  0.25435  0.91593  0.31422  1.0000
  S   S234      1.0  0.24429  0.73884  0.40011  1.0000
  H   H1790     1.0  0.28781  0.67162  0.20658  1.0000
  C   C1003     1.0  0.38655  0.68423  0.06254  1.0000
  C   C1004     1.0  0.37173  0.69351  0.06292  1.0000
  H   H1791     1.0  0.33658  0.70946  0.35806  1.0000
  H   H1792     1.0  0.36535  0.69739  0.08716  1.0000
  C   C1005     1.0  0.24510  0.72782  0.36752  1.0000
  C   C1006     1.0  0.32345  0.73666  0.31655  1.0000
  C   C1007     1.0  0.33828  0.73501  0.29548  1.0000
  C   C1008     1.0  0.34153  0.72737  0.26613  1.0000
  C   C1009     1.0  0.32986  0.72158  0.25729  1.0000
  C   C1010     1.0  0.31500  0.72330  0.27826  1.0000
  C   C1011     1.0  0.31184  0.73067  0.30800  1.0000
  H   H1793     1.0  0.34723  0.73981  0.30168  1.0000
  H   H1794     1.0  0.35296  0.72630  0.24978  1.0000
  H   H1795     1.0  0.30593  0.71881  0.27163  1.0000
  H   H1796     1.0  0.30048  0.73151  0.32455  1.0000
  H   H1797     1.0  0.26766  0.65610  0.16654  1.0000
  H   H1798     1.0  0.25382  0.67661  0.12613  1.0000
  C   C1012     1.0  0.47397  0.66071  0.34485  1.0000
  H   H1799     1.0  0.39427  0.69688  0.34268  1.0000
  H   H1800     1.0  0.26456  0.72131  0.28584  1.0000
  S   S235      1.0  0.26756  0.80212  0.29174  1.0000
  C   C1013     1.0  0.31419  0.64972  0.15184  1.0000
  H   H1801     1.0  0.41814  0.65788  0.22761  1.0000
  N   N59       1.0  0.36033  0.70171  0.36750  1.0000
  H   H1802     1.0  0.36474  0.65574  0.11503  1.0000
  C   C1014     1.0  0.35694  0.71643  0.38321  1.0000
  C   C1015     1.0  0.36850  0.68872  0.39244  1.0000
  C   C1016     1.0  0.37349  0.67264  0.38072  1.0000
  Fe  Fe119     1.0  0.38295  0.67547  0.23532  1.0000
  H   H1803     1.0  0.38988  0.64993  0.08418  1.0000
  H   H1804     1.0  0.35310  0.72676  0.36326  1.0000
  H   H1805     1.0  0.36761  0.71849  0.39021  1.0000
  H   H1806     1.0  0.37892  0.69206  0.39777  1.0000
  H   H1807     1.0  0.37998  0.67346  0.35328  1.0000
  H   H1808     1.0  0.34722  0.69713  0.30755  1.0000
  H   H1809     1.0  0.38835  0.72425  0.28132  1.0000
  C   C1017     1.0  0.41812  0.65318  0.31613  1.0000
  H   H1810     1.0  0.37803  0.65969  0.43262  1.0000
  H   H1811     1.0  0.25146  0.73155  0.48159  1.0000
  H   H1812     1.0  0.33279  0.71660  0.41204  1.0000
  H   H1813     1.0  0.23983  0.65499  0.33912  1.0000
  S   S236      1.0  0.38680  0.65881  0.19789  1.0000
  H   H1814     1.0  0.25945  0.76894  0.27669  1.0000
  H   H1815     1.0  0.24380  0.68941  0.45664  1.0000
  H   H1816     1.0  0.23838  0.95993  0.06222  1.0000
  S   S237      1.0  0.39501  0.67158  0.28239  1.0000
  H   H1817     1.0  0.33750  0.66702  0.00435  1.0000
  H   H1818     1.0  0.38649  0.71698  0.34634  1.0000
  C   C1018     1.0  0.36528  0.69810  0.03163  1.0000
  H   H1819     1.0  0.35403  0.67882  0.33354  1.0000
  H   H1820     1.0  0.26887  0.67071  0.04857  1.0000
  C   C1019     1.0  0.35377  0.65968  0.06931  1.0000
  H   H1821     1.0  0.36093  0.68676  0.41875  1.0000
  H   H1822     1.0  0.24382  0.78559  0.27606  1.0000
  H   H1823     1.0  0.39584  0.70417  0.27652  1.0000
  H   H1824     1.0  0.28993  0.65081  0.02590  1.0000
  C   C1020     1.0  0.39492  0.71297  0.29334  1.0000
  H   H1825     1.0  0.30187  0.69002  0.26693  1.0000
  H   H1826     1.0  0.24787  0.85839  0.26041  1.0000
  S   S238      1.0  0.24254  0.70378  0.27831  1.0000
  C   C1021     1.0  0.39476  0.67949  0.03062  1.0000
  C   C1022     1.0  0.38814  0.68376  0.99948  1.0000
  H   H1827     1.0  0.28675  0.67211  0.06055  1.0000
  H   H1828     1.0  0.32935  0.67932  0.31412  1.0000
  C   C1023     1.0  0.24823  0.77413  0.26740  1.0000
  H   H1829     1.0  0.27093  0.68476  0.22182  1.0000
  H   H1830     1.0  0.34866  0.65337  0.05475  1.0000
  H   H1831     1.0  0.33761  0.68138  0.05820  1.0000
  S   S239      1.0  0.26389  0.78770  0.47200  1.0000
  H   H1832     1.0  0.30616  0.68429  0.22404  1.0000
  C   C1024     1.0  0.29660  0.68823  0.24522  1.0000
  H   H1833     1.0  0.31226  0.66255  0.02148  1.0000
  H   H1834     1.0  0.40635  0.67258  0.02990  1.0000
  C   C1025     1.0  0.28057  0.67366  0.03793  1.0000
  H   H1835     1.0  0.24261  0.88172  0.19198  1.0000
  H   H1836     1.0  0.47808  0.65378  0.36935  1.0000
  C   C1026     1.0  0.32924  0.68493  0.33690  1.0000
  H   H1837     1.0  0.26969  0.65642  0.29551  1.0000
  C   C1027     1.0  0.25637  0.72850  0.33674  1.0000
  H   H1838     1.0  0.39495  0.66558  0.40270  1.0000
  H   H1839     1.0  0.24846  0.67545  0.22314  1.0000
  C   C1028     1.0  0.24445  0.71181  0.31380  1.0000
  H   H1840     1.0  0.35391  0.70549  0.03208  1.0000
  C   C1029     1.0  0.38404  0.66127  0.40456  1.0000
  C   C1030     1.0  0.24655  0.82332  0.25543  1.0000
  H   H1841     1.0  0.27704  0.68066  0.28088  1.0000
  H   H1842     1.0  0.46453  0.65579  0.33945  1.0000
  H   H1843     1.0  0.41106  0.65689  0.33996  1.0000
  C   C1031     1.0  0.28616  0.67610  0.25957  1.0000
  H   H1844     1.0  0.26111  0.87154  0.20418  1.0000
  H   H1845     1.0  0.34484  0.67886  0.09898  1.0000
  H   H1846     1.0  0.25453  0.88537  0.31825  1.0000
  H   H1847     1.0  0.25367  0.67016  0.28207  1.0000
  H   H1848     1.0  0.29330  0.66528  0.27157  1.0000
  C   C1032     1.0  0.24929  0.81434  0.28838  1.0000
  H   H1849     1.0  0.40686  0.71449  0.29366  1.0000
  H   H1850     1.0  0.48298  0.66861  0.29041  1.0000
  N   N60       1.0  0.30396  0.77020  0.20577  1.0000
  C   C1033     1.0  0.30280  0.78600  0.18209  1.0000
  C   C1034     1.0  0.31839  0.75911  0.19211  1.0000
  C   C1035     1.0  0.28994  0.76373  0.20432  1.0000
  C   C1036     1.0  0.30359  0.77127  0.24384  1.0000
  C   C1037     1.0  0.31667  0.77838  0.25076  1.0000
  C   C1038     1.0  0.28894  0.79878  0.19422  1.0000
  C   C1039     1.0  0.28962  0.74665  0.22334  1.0000
  C   C1040     1.0  0.33317  0.76594  0.17415  1.0000
  C   C1041     1.0  0.34723  0.75296  0.16721  1.0000
  C   C1042     1.0  0.31276  0.78295  0.28743  1.0000
  C   C1043     1.0  0.28887  0.81406  0.16777  1.0000
  C   C1044     1.0  0.27618  0.74079  0.21538  1.0000
  H   H1851     1.0  0.30219  0.78483  0.15466  1.0000
  H   H1852     1.0  0.31337  0.79094  0.17913  1.0000
  H   H1853     1.0  0.32165  0.74950  0.21398  1.0000
  H   H1854     1.0  0.31604  0.75332  0.17175  1.0000
  H   H1855     1.0  0.28888  0.76444  0.17612  1.0000
  H   H1856     1.0  0.27906  0.77079  0.21653  1.0000
  H   H1857     1.0  0.29211  0.77778  0.25517  1.0000
  H   H1858     1.0  0.30452  0.75952  0.26066  1.0000
  H   H1859     1.0  0.31867  0.78901  0.23139  1.0000
  H   H1860     1.0  0.32764  0.76959  0.24973  1.0000
  H   H1861     1.0  0.27758  0.79536  0.19648  1.0000
  H   H1862     1.0  0.28980  0.80125  0.22026  1.0000
  H   H1863     1.0  0.28803  0.74581  0.25255  1.0000
  H   H1864     1.0  0.30044  0.73856  0.21466  1.0000
  H   H1865     1.0  0.33138  0.77328  0.14808  1.0000
  H   H1866     1.0  0.33613  0.77315  0.19050  1.0000
  H   H1867     1.0  0.35001  0.74566  0.19261  1.0000
  H   H1868     1.0  0.34491  0.74541  0.15054  1.0000
  H   H1869     1.0  0.35753  0.75809  0.15312  1.0000
  H   H1870     1.0  0.30985  0.77297  0.30802  1.0000
  H   H1871     1.0  0.32289  0.78658  0.29323  1.0000
  H   H1872     1.0  0.30271  0.79281  0.28870  1.0000
  H   H1873     1.0  0.29978  0.81843  0.16538  1.0000
  H   H1874     1.0  0.28760  0.81243  0.14126  1.0000
  H   H1875     1.0  0.27891  0.82298  0.17718  1.0000
  H   H1876     1.0  0.27695  0.74176  0.18632  1.0000
  H   H1877     1.0  0.27675  0.72833  0.22749  1.0000
  H   H1878     1.0  0.26486  0.74750  0.22651  1.0000
  C   C1045     1.0  0.34262  0.73218  0.43126  1.0000
  H   H1879     1.0  0.34739  0.70730  0.43891  1.0000
  C   C1046     1.0  0.37046  0.70473  0.33153  1.0000
  C   C1047     1.0  0.41286  0.65851  0.28360  1.0000
  C   C1048     1.0  0.24936  0.67545  0.15510  1.0000
  C   C1049     1.0  0.26262  0.66746  0.17539  1.0000
  H   H1880     1.0  0.36308  0.66752  0.38277  1.0000
  C   C1050     1.0  0.34435  0.71706  0.41732  1.0000
  C   C1051     1.0  0.24396  0.90913  0.29769  1.0000
  C   C1052     1.0  0.34092  0.67277  0.08161  1.0000
  H   H1881     1.0  0.27164  0.67482  0.16736  1.0000
  C   C1053     1.0  0.24256  0.89227  0.31698  1.0000
  C   C1054     1.0  0.34496  0.69837  0.36377  1.0000
  H   H1882     1.0  0.37245  0.69490  0.31707  1.0000
  H   H1883     1.0  0.28974  0.69955  0.23433  1.0000
  C   C1055     1.0  0.25604  0.72051  0.30986  1.0000
  H   H1884     1.0  0.32676  0.67657  0.36184  1.0000
  C   C1056     1.0  0.31710  0.66123  0.16732  1.0000
  H   H1885     1.0  0.33948  0.69201  0.38935  1.0000
  H   H1886     1.0  0.31112  0.67315  0.16123  1.0000
  S   S240      1.0  0.35751  0.67499  0.25216  1.0000
  H   H1887     1.0  0.36436  0.71479  0.31446  1.0000
  C   C1057     1.0  0.27850  0.67334  0.22995  1.0000
  H   H1888     1.0  0.33329  0.73256  0.45497  1.0000
  C   C1058     1.0  0.25675  0.66476  0.21614  1.0000
  H   H1889     1.0  0.27913  0.68604  0.02461  1.0000
  H   H1890     1.0  0.24900  0.90954  0.26914  1.0000
  H   H1891     1.0  0.25564  0.82266  0.23240  1.0000
  H   H1892     1.0  0.33048  0.66807  0.09610  1.0000
  C   C1059     1.0  0.28954  0.66299  0.01172  1.0000
  C   C1060     1.0  0.24861  0.87099  0.20740  1.0000
  H   H1893     1.0  0.36298  0.66516  0.05072  1.0000
  H   H1894     1.0  0.24440  0.68724  0.16168  1.0000
  H   H1895     1.0  0.24774  0.86082  0.19637  1.0000
  H   H1896     1.0  0.25891  0.96286  0.09342  1.0000
  H   H1897     1.0  0.37463  0.65102  0.32602  1.0000
  C   C1061     1.0  0.32794  0.65743  0.19022  1.0000
  C   C1062     1.0  0.26123  0.65882  0.27723  1.0000
  C   C1063     1.0  0.24116  0.86914  0.24663  1.0000
  H   H1898     1.0  0.25494  0.92803  0.30026  1.0000
  H   H1899     1.0  0.24994  0.68438  0.39497  1.0000
  H   H1900     1.0  0.26633  0.90892  0.31170  1.0000
  H   H1901     1.0  0.24006  0.66846  0.16177  1.0000
  H   H1902     1.0  0.25430  0.97767  0.12090  1.0000
  C   C1064     1.0  0.42209  0.65374  0.25283  1.0000
  S   S241      1.0  0.30075  0.65484  0.12279  1.0000
  H   H1903     1.0  0.25020  0.66378  0.41107  1.0000
  C   C1065     1.0  0.37339  0.69322  0.99980  1.0000
  C   C1066     1.0  0.24271  0.67521  0.40331  1.0000
  H   H1904     1.0  0.24294  0.76635  0.47473  1.0000
  H   H1905     1.0  0.24155  0.75179  0.27554  1.0000
  H   H1906     1.0  0.46912  0.67283  0.34938  1.0000
  C   C1067     1.0  0.25127  0.97412  0.09809  1.0000
  H   H1907     1.0  0.24965  0.65554  0.22124  1.0000
  C   C1068     1.0  0.30631  0.66606  0.99794  1.0000
  H   H1908     1.0  0.23953  0.80841  0.34338  1.0000
  H   H1909     1.0  0.24955  0.91626  0.34270  1.0000
  H   H1910     1.0  0.24436  0.66940  0.47389  1.0000
  H   H1911     1.0  0.46924  0.66601  0.19440  1.0000
  H   H1912     1.0  0.47485  0.65766  0.25471  1.0000
  H   H1913     1.0  0.23704  0.89331  0.34485  1.0000
  C   C1069     1.0  0.47834  0.65558  0.20030  1.0000
  C   C1070     1.0  0.48486  0.65671  0.23252  1.0000
  H   H1914     1.0  0.23762  0.67458  0.38025  1.0000
  C   C1071     1.0  0.23747  0.81521  0.31796  1.0000
  H   H1915     1.0  0.31529  0.65688  0.91358  1.0000
  H   H1916     1.0  0.29969  0.77571  0.81845  1.0000
  C   C1072     1.0  0.26447  0.86695  0.70324  1.0000
  C   C1073     1.0  0.30748  0.66173  0.93638  1.0000
  C   C1074     1.0  0.24268  0.73011  0.61870  1.0000
  Fe  Fe120     1.0  0.36220  0.70319  0.83374  1.0000
  C   C1075     1.0  0.24815  0.69098  0.51862  1.0000
  S   S242      1.0  0.35044  0.72273  0.79525  1.0000
  C   C1076     1.0  0.28074  0.75750  0.55528  1.0000
  H   H1917     1.0  0.31096  0.71700  0.75559  1.0000
  Fe  Fe121     1.0  0.37209  0.69188  0.90722  1.0000
  S   S243      1.0  0.36463  0.69956  0.96133  1.0000
  H   H1918     1.0  0.26302  0.84017  0.82676  1.0000
  S   S244      1.0  0.38218  0.70624  0.85639  1.0000
  Fe  Fe122     1.0  0.26080  0.79433  0.71919  1.0000
  S   S245      1.0  0.28171  0.77521  0.70994  1.0000
  S   S246      1.0  0.26249  0.81874  0.72261  1.0000
  H   H1919     1.0  0.27406  0.87068  0.71116  1.0000
  S   S247      1.0  0.25674  0.75230  0.72017  1.0000
  S   S248      1.0  0.35116  0.69061  0.88527  1.0000
  Fe  Fe123     1.0  0.26865  0.76067  0.75535  1.0000
  S   S249      1.0  0.27747  0.74418  0.80258  1.0000
  Fe  Fe124     1.0  0.26815  0.76837  0.67508  1.0000
  S   S250      1.0  0.27898  0.75698  0.62656  1.0000
  S   S251      1.0  0.24876  0.78018  0.76669  1.0000
  S   S252      1.0  0.24851  0.78891  0.68024  1.0000
  C   C1077     1.0  0.33010  0.72882  0.79926  1.0000
  C   C1078     1.0  0.32418  0.74152  0.77480  1.0000
  C   C1079     1.0  0.30807  0.74645  0.77605  1.0000
  C   C1080     1.0  0.29772  0.73870  0.80171  1.0000
  C   C1081     1.0  0.30358  0.72621  0.82674  1.0000
  C   C1082     1.0  0.31974  0.72119  0.82541  1.0000
  H   H1920     1.0  0.33214  0.74750  0.75459  1.0000
  H   H1921     1.0  0.30369  0.75611  0.75683  1.0000
  H   H1922     1.0  0.29562  0.72022  0.84682  1.0000
  H   H1923     1.0  0.32419  0.71137  0.84433  1.0000
  H   H1924     1.0  0.28197  0.77561  0.80304  1.0000
  C   C1083     1.0  0.26452  0.77997  0.57794  1.0000
  C   C1084     1.0  0.27429  0.76544  0.58394  1.0000
  C   C1085     1.0  0.24695  0.65237  0.69472  1.0000
  H   H1925     1.0  0.25951  0.78623  0.59968  1.0000
  H   H1926     1.0  0.29361  0.68499  0.94323  1.0000
  C   C1086     1.0  0.24400  0.88002  0.82911  1.0000
  H   H1927     1.0  0.25043  0.66186  0.63878  1.0000
  H   H1928     1.0  0.31361  0.75433  0.87859  1.0000
  S   S253      1.0  0.37525  0.68134  0.81392  1.0000
  H   H1929     1.0  0.32232  0.76251  0.66928  1.0000
  C   C1087     1.0  0.31088  0.68481  0.65079  1.0000
  C   C1088     1.0  0.26250  0.83100  0.78061  1.0000
  C   C1089     1.0  0.25377  0.82477  0.76342  1.0000
  H   H1930     1.0  0.27447  0.83173  0.76908  1.0000
  C   C1090     1.0  0.32119  0.74105  0.65270  1.0000
  H   H1931     1.0  0.47481  0.68397  0.67728  1.0000
  H   H1932     1.0  0.41641  0.64912  0.64962  1.0000
  C   C1091     1.0  0.32554  0.67135  0.80817  1.0000
  C   C1092     1.0  0.31819  0.75880  0.64814  1.0000
  H   H1933     1.0  0.28430  0.79991  0.92110  1.0000
  C   C1093     1.0  0.33111  0.66251  0.95726  1.0000
  H   H1934     1.0  0.31897  0.68750  0.62554  1.0000
  H   H1935     1.0  0.29875  0.69010  0.64690  1.0000
  C   C1094     1.0  0.24182  0.65538  0.86491  1.0000
  H   H1936     1.0  0.26917  0.71259  0.77867  1.0000
  H   H1937     1.0  0.31180  0.67197  0.65790  1.0000
  H   H1938     1.0  0.25090  0.88908  0.81528  1.0000
  C   C1095     1.0  0.24875  0.87679  0.71596  1.0000
  H   H1939     1.0  0.28642  0.81252  0.87879  1.0000
  H   H1940     1.0  0.24045  0.68555  0.73955  1.0000
  H   H1941     1.0  0.24445  0.70235  0.56457  1.0000
  H   H1942     1.0  0.30560  0.76366  0.64912  1.0000
  H   H1943     1.0  0.32973  0.67534  0.94861  1.0000
  H   H1944     1.0  0.30238  0.67662  0.86846  1.0000
  H   H1945     1.0  0.24014  0.79921  0.87015  1.0000
  H   H1946     1.0  0.28904  0.75745  0.85608  1.0000
  C   C1096     1.0  0.26108  0.69342  0.70919  1.0000
  H   H1947     1.0  0.32448  0.76367  0.62197  1.0000
  C   C1097     1.0  0.24557  0.78989  0.85429  1.0000
  C   C1098     1.0  0.25266  0.73668  0.50410  1.0000
  S   S254      1.0  0.30441  0.66428  0.77614  1.0000
  H   H1948     1.0  0.36167  0.68511  0.74472  1.0000
  H   H1949     1.0  0.44946  0.65667  0.84811  1.0000
  H   H1950     1.0  0.24312  0.72652  0.59304  1.0000
  H   H1951     1.0  0.26225  0.74336  0.49555  1.0000
  H   H1952     1.0  0.24737  0.90269  0.75573  1.0000
  C   C1099     1.0  0.29422  0.68171  0.89041  1.0000
  C   C1100     1.0  0.35791  0.69505  0.72404  1.0000
  C   C1101     1.0  0.34150  0.65837  0.98621  1.0000
  H   H1953     1.0  0.24079  0.65044  0.92060  1.0000
  C   C1102     1.0  0.26018  0.77939  0.86805  1.0000
  H   H1954     1.0  0.30595  0.67884  0.99016  1.0000
  C   C1103     1.0  0.23992  0.88126  0.86844  1.0000
  C   C1104     1.0  0.26803  0.77873  0.51480  1.0000
  H   H1955     1.0  0.25611  0.87595  0.76523  1.0000
  H   H1956     1.0  0.33765  0.65766  0.93345  1.0000
  S   S255      1.0  0.38614  0.66907  0.89277  1.0000
  H   H1957     1.0  0.33394  0.73693  0.65008  1.0000
  H   H1958     1.0  0.27768  0.82729  0.92809  1.0000
  H   H1959     1.0  0.25575  0.72713  0.52610  1.0000
  H   H1960     1.0  0.31065  0.69893  0.74518  1.0000
  H   H1961     1.0  0.24864  0.79537  0.82623  1.0000
  C   C1105     1.0  0.35846  0.65888  0.96985  1.0000
  H   H1962     1.0  0.25749  0.68233  0.50612  1.0000
  H   H1963     1.0  0.28354  0.69507  0.77436  1.0000
  H   H1964     1.0  0.27870  0.75316  0.90002  1.0000
  H   H1965     1.0  0.36293  0.69180  0.69758  1.0000
  H   H1966     1.0  0.24804  0.67506  0.87985  1.0000
  C   C1106     1.0  0.44448  0.64960  0.74432  1.0000
  H   H1967     1.0  0.30493  0.73730  0.89388  1.0000
  C   C1107     1.0  0.27762  0.76410  0.52086  1.0000
  H   H1968     1.0  0.29052  0.69435  0.88089  1.0000
  H   H1969     1.0  0.28379  0.67618  0.89741  1.0000
  H   H1970     1.0  0.26849  0.67411  0.68007  1.0000
  H   H1971     1.0  0.26573  0.66851  0.72799  1.0000
  H   H1972     1.0  0.24893  0.88910  0.70331  1.0000
  H   H1973     1.0  0.46984  0.67202  0.73969  1.0000
  C   C1108     1.0  0.30213  0.67932  0.92264  1.0000
  N   N61       1.0  0.31698  0.71636  0.69959  1.0000
  H   H1974     1.0  0.27123  0.80257  0.81867  1.0000
  H   H1975     1.0  0.30335  0.75055  0.92384  1.0000
  C   C1109     1.0  0.30348  0.74977  0.89585  1.0000
  Fe  Fe125     1.0  0.36589  0.66899  0.86750  1.0000
  C   C1110     1.0  0.26925  0.82223  0.91912  1.0000
  H   H1976     1.0  0.24793  0.71701  0.74637  1.0000
  H   H1977     1.0  0.43654  0.67451  0.73872  1.0000
  H   H1978     1.0  0.31217  0.68540  0.91439  1.0000
  C   C1111     1.0  0.43611  0.66341  0.75613  1.0000
  H   H1979     1.0  0.28833  0.74628  0.55965  1.0000
  H   H1980     1.0  0.23778  0.77028  0.84280  1.0000
  C   C1112     1.0  0.34043  0.65268  0.84894  1.0000
  C   C1113     1.0  0.42728  0.66296  0.79049  1.0000
  H   H1981     1.0  0.26435  0.69627  0.73244  1.0000
  H   H1982     1.0  0.24741  0.70212  0.49975  1.0000
  S   S256      1.0  0.41866  0.68054  0.80623  1.0000
  H   H1983     1.0  0.29718  0.65607  0.94159  1.0000
  C   C1114     1.0  0.47634  0.65217  0.79811  1.0000
  H   H1984     1.0  0.26322  0.83139  0.90000  1.0000
  H   H1985     1.0  0.32711  0.68515  0.68336  1.0000
  H   H1986     1.0  0.31383  0.73974  0.70968  1.0000
  H   H1987     1.0  0.33791  0.72282  0.70749  1.0000
  H   H1988     1.0  0.24055  0.73444  0.79211  1.0000
  H   H1989     1.0  0.24358  0.86277  0.76765  1.0000
  H   H1990     1.0  0.30699  0.68725  0.70516  1.0000
  C   C1115     1.0  0.31502  0.69088  0.68056  1.0000
  H   H1991     1.0  0.31720  0.73799  0.63051  1.0000
  H   H1992     1.0  0.28855  0.80176  0.83385  1.0000
  N   N62       1.0  0.31549  0.65769  0.96832  1.0000
  Fe  Fe126     1.0  0.39451  0.68325  0.84000  1.0000
  H   H1993     1.0  0.26437  0.77024  0.85123  1.0000
  H   H1994     1.0  0.25459  0.68235  0.57105  1.0000
  H   H1995     1.0  0.26054  0.81866  0.94252  1.0000
  C   C1116     1.0  0.30770  0.71165  0.73577  1.0000
  H   H1996     1.0  0.26454  0.69740  0.54411  1.0000
  H   H1997     1.0  0.29977  0.73721  0.68661  1.0000
  C   C1117     1.0  0.26998  0.67711  0.70509  1.0000
  H   H1998     1.0  0.26656  0.86828  0.67385  1.0000
  H   H1999     1.0  0.25414  0.79795  0.53904  1.0000
  C   C1118     1.0  0.28976  0.71600  0.73923  1.0000
  C   C1119     1.0  0.31741  0.66004  0.80619  1.0000
  C   C1120     1.0  0.31232  0.73379  0.68882  1.0000
  H   H2000     1.0  0.34339  0.67648  0.83028  1.0000
  H   H2001     1.0  0.32158  0.71137  0.64630  1.0000
  H   H2002     1.0  0.30175  0.71396  0.66568  1.0000
  H   H2003     1.0  0.39458  0.68009  0.97506  1.0000
  H   H2004     1.0  0.36248  0.70523  0.72675  1.0000
  H   H2005     1.0  0.34127  0.71090  0.67479  1.0000
  C   C1121     1.0  0.28182  0.70773  0.77446  1.0000
  H   H2006     1.0  0.36323  0.64978  0.95301  1.0000
  C   C1122     1.0  0.26148  0.78659  0.54351  1.0000
  H   H2007     1.0  0.35940  0.67043  0.95335  1.0000
  H   H2008     1.0  0.28285  0.75799  0.49896  1.0000
  C   C1123     1.0  0.24526  0.87498  0.75704  1.0000
  H   H2009     1.0  0.33610  0.68806  0.72848  1.0000
  C   C1124     1.0  0.34016  0.69876  0.72925  1.0000
  C   C1125     1.0  0.28835  0.75883  0.88373  1.0000
  H   H2010     1.0  0.25076  0.87888  0.87974  1.0000
  H   H2011     1.0  0.47089  0.66480  0.68062  1.0000
  C   C1126     1.0  0.31360  0.70878  0.67187  1.0000
  H   H2012     1.0  0.36557  0.65694  0.99093  1.0000
  H   H2013     1.0  0.25900  0.81026  0.87382  1.0000
  H   H2014     1.0  0.25609  0.77326  0.89522  1.0000
  H   H2015     1.0  0.28255  0.67646  0.70445  1.0000
  H   H2016     1.0  0.25161  0.86850  0.82676  1.0000
  C   C1127     1.0  0.33425  0.71272  0.70118  1.0000
  H   H2017     1.0  0.28564  0.71279  0.71753  1.0000
  H   H2018     1.0  0.28590  0.72872  0.73863  1.0000
  H   H2019     1.0  0.28186  0.77571  0.91753  1.0000
  N   N63       1.0  0.27315  0.78745  0.86918  1.0000
  H   H2020     1.0  0.28622  0.79889  0.75792  1.0000
  C   C1128     1.0  0.28530  0.77618  0.88830  1.0000
  C   C1129     1.0  0.26620  0.80063  0.88978  1.0000
  C   C1130     1.0  0.28027  0.79447  0.83243  1.0000
  C   C1131     1.0  0.28947  0.78305  0.80746  1.0000
  C   C1132     1.0  0.25599  0.83583  0.81321  1.0000
  C   C1133     1.0  0.27783  0.80826  0.90153  1.0000
  H   H2021     1.0  0.30299  0.78352  0.75428  1.0000
  H   H2022     1.0  0.28660  0.70940  0.79701  1.0000
  C   C1134     1.0  0.29587  0.79188  0.77135  1.0000
  C   C1135     1.0  0.25105  0.66853  0.85742  1.0000
  H   H2023     1.0  0.33598  0.70176  0.75621  1.0000
  H   H2024     1.0  0.29656  0.78040  0.88081  1.0000
  H   H2025     1.0  0.26511  0.70155  0.68514  1.0000
  H   H2026     1.0  0.30337  0.79970  0.77428  1.0000
  C   C1136     1.0  0.25322  0.69341  0.55164  1.0000
  H   H2027     1.0  0.25433  0.73228  0.61955  1.0000
  H   H2028     1.0  0.32298  0.68293  0.79322  1.0000
  C   C1137     1.0  0.33705  0.66769  0.82944  1.0000
  H   H2029     1.0  0.25817  0.79659  0.91427  1.0000
  H   H2030     1.0  0.23986  0.87265  0.70635  1.0000
  C   C1138     1.0  0.23823  0.82395  0.77844  1.0000
  H   H2031     1.0  0.46414  0.66393  0.86180  1.0000
  H   H2032     1.0  0.46542  0.65304  0.78782  1.0000
  C   C1139     1.0  0.24328  0.69407  0.71504  1.0000
  H   H2033     1.0  0.24092  0.93214  0.75849  1.0000
  H   H2034     1.0  0.26376  0.66383  0.85314  1.0000
  C   C1140     1.0  0.24043  0.83527  0.82805  1.0000
  H   H2035     1.0  0.26459  0.85443  0.71444  1.0000
  H   H2036     1.0  0.24827  0.67674  0.83302  1.0000
  C   C1141     1.0  0.48126  0.66775  0.72387  1.0000
  H   H2037     1.0  0.23935  0.75186  0.53960  1.0000
  H   H2038     1.0  0.47698  0.66437  0.79896  1.0000
  H   H2039     1.0  0.24890  0.72486  0.68565  1.0000
  H   H2040     1.0  0.24652  0.70653  0.64538  1.0000
  H   H2041     1.0  0.45113  0.65005  0.71778  1.0000
  C   C1142     1.0  0.47930  0.67133  0.68496  1.0000
  C   C1143     1.0  0.46030  0.65325  0.85966  1.0000
  C   C1144     1.0  0.48687  0.65000  0.73602  1.0000
  C   C1145     1.0  0.24221  0.66138  0.66341  1.0000
  H   H2042     1.0  0.28285  0.66490  0.98990  1.0000
  H   H2043     1.0  0.24064  0.68922  0.69358  1.0000
  C   C1146     1.0  0.42681  0.64858  0.81289  1.0000
  C   C1147     1.0  0.23796  0.71735  0.64929  1.0000
  Fe  Fe127     1.0  0.23800  0.77316  0.72758  1.0000
  H   H2044     1.0  0.24466  0.64981  0.84110  1.0000
  C   C1148     1.0  0.23751  0.74729  0.51692  1.0000
  C   C1149     1.0  0.23749  0.72183  0.68576  1.0000
  S   S257      1.0  0.57307  0.27000  0.33994  1.0000
  H   H2045     1.0  0.69917  0.25694  0.24667  1.0000
  H   H2046     1.0  0.49493  0.25445  0.47944  1.0000
  C   C1150     1.0  0.59417  0.27254  0.45911  1.0000
  H   H2047     1.0  0.68370  0.27034  0.22688  1.0000
  H   H2048     1.0  0.71812  0.21296  0.30514  1.0000
  H   H2049     1.0  0.62600  0.31129  0.16976  1.0000
  S   S258      1.0  0.60235  0.27516  0.24928  1.0000
  H   H2050     1.0  0.64408  0.29575  0.13910  1.0000
  C   C1151     1.0  0.53042  0.30137  0.23249  1.0000
  C   C1152     1.0  0.70993  0.16194  0.22465  1.0000
  N   N64       1.0  0.48783  0.29712  0.23224  1.0000
  S   S259      1.0  0.71108  0.16686  0.15240  1.0000
  C   C1153     1.0  0.71618  0.30783  0.20236  1.0000
  Fe  Fe128     1.0  0.69790  0.19154  0.15006  1.0000
  S   S260      1.0  0.70202  0.20687  0.09705  1.0000
  C   C1154     1.0  0.73189  0.24069  0.20022  1.0000
  Fe  Fe129     1.0  0.67630  0.21806  0.18390  1.0000
  S   S261      1.0  0.67827  0.23538  0.13328  1.0000
  S   S262      1.0  0.66436  0.22460  0.23711  1.0000
  Fe  Fe130     1.0  0.67644  0.21600  0.10703  1.0000
  S   S263      1.0  0.66179  0.21990  0.06432  1.0000
  Fe  Fe131     1.0  0.70358  0.22473  0.12749  1.0000
  C   C1155     1.0  0.50173  0.29975  0.24482  1.0000
  S   S264      1.0  0.67193  0.19941  0.15864  1.0000
  S   S265      1.0  0.70196  0.20853  0.17975  1.0000
  C   C1156     1.0  0.67107  0.21516  0.02233  1.0000
  S   S266      1.0  0.60161  0.28775  0.34269  1.0000
  H   H2051     1.0  0.67906  0.25818  0.00528  1.0000
  C   C1157     1.0  0.68726  0.21269  0.01263  1.0000
  H   H2052     1.0  0.71552  0.11499  0.09938  1.0000
  H   H2053     1.0  0.72452  0.26633  0.27157  1.0000
  H   H2054     1.0  0.69426  0.21472  0.02974  1.0000
  H   H2055     1.0  0.71457  0.23286  0.18197  1.0000
  C   C1158     1.0  0.65895  0.17683  0.10674  1.0000
  H   H2056     1.0  0.73470  0.14799  0.35652  1.0000
  C   C1159     1.0  0.52772  0.28632  0.43641  1.0000
  C   C1160     1.0  0.71431  0.20529  0.29123  1.0000
  H   H2057     1.0  0.51012  0.23846  0.47056  1.0000
  C   C1161     1.0  0.72601  0.15882  0.35945  1.0000
  H   H2058     1.0  0.71116  0.17102  0.07839  1.0000
  Fe  Fe132     1.0  0.55717  0.29332  0.33841  1.0000
  H   H2059     1.0  0.48706  0.24264  0.39978  1.0000
  N   N65       1.0  0.71224  0.29958  0.24018  1.0000
  C   C1162     1.0  0.51535  0.27613  0.43976  1.0000
  Fe  Fe133     1.0  0.58290  0.27703  0.38127  1.0000
  H   H2060     1.0  0.54273  0.25766  0.46013  1.0000
  C   C1163     1.0  0.62004  0.26172  0.24627  1.0000
  C   C1164     1.0  0.62686  0.25472  0.27615  1.0000
  C   C1165     1.0  0.64072  0.24362  0.27287  1.0000
  C   C1166     1.0  0.64789  0.23960  0.23970  1.0000
  C   C1167     1.0  0.64136  0.24701  0.20965  1.0000
  C   C1168     1.0  0.62738  0.25792  0.21302  1.0000
  H   H2061     1.0  0.62129  0.25762  0.30188  1.0000
  H   H2062     1.0  0.64575  0.23792  0.29621  1.0000
  H   H2063     1.0  0.64684  0.24401  0.18398  1.0000
  H   H2064     1.0  0.62218  0.26336  0.18978  1.0000
  H   H2065     1.0  0.53331  0.28412  0.45997  1.0000
  H   H2066     1.0  0.70461  0.28450  0.18655  1.0000
  C   C1169     1.0  0.64803  0.28248  0.30664  1.0000
  C   C1170     1.0  0.51948  0.28504  0.33705  1.0000
  C   C1171     1.0  0.50318  0.28911  0.34543  1.0000
  H   H2067     1.0  0.70817  0.10491  0.07320  1.0000
  C   C1172     1.0  0.50024  0.26504  0.33038  1.0000
  C   C1173     1.0  0.51654  0.26089  0.32251  1.0000
  C   C1174     1.0  0.52612  0.27079  0.32598  1.0000
  H   H2068     1.0  0.49795  0.30009  0.35416  1.0000
  H   H2069     1.0  0.52145  0.28224  0.22559  1.0000
  H   H2070     1.0  0.52177  0.24999  0.31337  1.0000
  H   H2071     1.0  0.53864  0.26754  0.31943  1.0000
  C   C1175     1.0  0.70789  0.17250  0.05180  1.0000
  S   S267      1.0  0.73535  0.13345  0.29546  1.0000
  H   H2072     1.0  0.69147  0.22021  0.29277  1.0000
  H   H2073     1.0  0.70944  0.19591  0.31066  1.0000
  C   C1176     1.0  0.72464  0.23821  0.17416  1.0000
  H   H2074     1.0  0.69868  0.25876  0.20017  1.0000
  C   C1177     1.0  0.49066  0.24107  0.42592  1.0000
  H   H2075     1.0  0.69916  0.17036  0.22562  1.0000
  H   H2076     1.0  0.70844  0.15650  0.28151  1.0000
  H   H2077     1.0  0.65200  0.18878  0.10711  1.0000
  H   H2078     1.0  0.66643  0.30786  0.45069  1.0000
  H   H2079     1.0  0.68036  0.18530  0.09213  1.0000
  H   H2080     1.0  0.69608  0.20766  0.26029  1.0000
  C   C1178     1.0  0.69629  0.26526  0.22249  1.0000
  C   C1179     1.0  0.65478  0.29467  0.15015  1.0000
  H   H2081     1.0  0.70488  0.22468  0.25241  1.0000
  N   N66       1.0  0.61874  0.20796  0.23041  1.0000
  C   C1180     1.0  0.61308  0.21728  0.26015  1.0000
  C   C1181     1.0  0.63556  0.19997  0.23057  1.0000
  C   C1182     1.0  0.61799  0.21927  0.19584  1.0000
  C   C1183     1.0  0.60864  0.19633  0.23199  1.0000
  C   C1184     1.0  0.60638  0.18450  0.26691  1.0000
  C   C1185     1.0  0.59638  0.22713  0.26186  1.0000
  C   C1186     1.0  0.62467  0.21232  0.16137  1.0000
  C   C1187     1.0  0.64096  0.19428  0.26714  1.0000
  C   C1188     1.0  0.65711  0.18390  0.26356  1.0000
  C   C1189     1.0  0.59435  0.17486  0.26650  1.0000
  C   C1190     1.0  0.59111  0.23389  0.29612  1.0000
  C   C1191     1.0  0.62504  0.22518  0.12867  1.0000
  H   H2082     1.0  0.62104  0.22546  0.25815  1.0000
  H   H2083     1.0  0.61364  0.20974  0.28643  1.0000
  H   H2084     1.0  0.63845  0.18989  0.21633  1.0000
  H   H2085     1.0  0.64350  0.20803  0.21552  1.0000
  H   H2086     1.0  0.62420  0.22882  0.19501  1.0000
  H   H2087     1.0  0.60577  0.22500  0.19364  1.0000
  H   H2088     1.0  0.59697  0.20242  0.22602  1.0000
  H   H2089     1.0  0.61359  0.18920  0.21077  1.0000
  H   H2090     1.0  0.60225  0.19031  0.29040  1.0000
  H   H2091     1.0  0.61745  0.17620  0.26990  1.0000
  H   H2092     1.0  0.59598  0.23713  0.23948  1.0000
  H   H2093     1.0  0.58784  0.22006  0.26093  1.0000
  H   H2094     1.0  0.61732  0.20443  0.15812  1.0000
  H   H2095     1.0  0.63672  0.20569  0.16135  1.0000
  H   H2096     1.0  0.64167  0.20445  0.27839  1.0000
  H   H2097     1.0  0.63292  0.18765  0.28667  1.0000
  H   H2098     1.0  0.66094  0.18055  0.28977  1.0000
  H   H2099     1.0  0.65689  0.17312  0.25407  1.0000
  H   H2100     1.0  0.66574  0.19017  0.24472  1.0000
  H   H2101     1.0  0.58279  0.18248  0.26458  1.0000
  H   H2102     1.0  0.59799  0.16847  0.24379  1.0000
  H   H2103     1.0  0.59319  0.16622  0.29145  1.0000
  H   H2104     1.0  0.59919  0.24126  0.29833  1.0000
  H   H2105     1.0  0.57935  0.24128  0.29605  1.0000
  H   H2106     1.0  0.59055  0.22444  0.31965  1.0000
  H   H2107     1.0  0.63321  0.23278  0.12923  1.0000
  H   H2108     1.0  0.62914  0.21989  0.10431  1.0000
  H   H2109     1.0  0.61327  0.23236  0.12723  1.0000
  N   N67       1.0  0.69863  0.16036  0.05144  1.0000
  H   H2110     1.0  0.68959  0.29642  0.23575  1.0000
  H   H2111     1.0  0.66305  0.28777  0.19972  1.0000
  H   H2112     1.0  0.68945  0.15791  0.10772  1.0000
  H   H2113     1.0  0.59315  0.30622  0.20347  1.0000
  C   C1192     1.0  0.55693  0.24143  0.40943  1.0000
  H   H2114     1.0  0.71584  0.15859  0.34764  1.0000
  S   S268      1.0  0.53093  0.29837  0.33973  1.0000
  C   C1193     1.0  0.70209  0.13012  0.06049  1.0000
  C   C1194     1.0  0.70612  0.27797  0.21350  1.0000
  C   C1195     1.0  0.66697  0.28189  0.13424  1.0000
  H   H2115     1.0  0.64059  0.30269  0.45778  1.0000
  C   C1196     1.0  0.65152  0.28523  0.26611  1.0000
  H   H2116     1.0  0.67758  0.15304  0.08269  1.0000
  H   H2117     1.0  0.62827  0.28933  0.25735  1.0000
  C   C1197     1.0  0.66213  0.21309  0.99888  1.0000
  H   H2118     1.0  0.53124  0.29681  0.26086  1.0000
  H   H2119     1.0  0.55451  0.29660  0.48158  1.0000
  H   H2120     1.0  0.69843  0.28201  0.26728  1.0000
  S   S269      1.0  0.72129  0.23989  0.10552  1.0000
  H   H2121     1.0  0.72034  0.17475  0.99644  1.0000
  S   S270      1.0  0.56563  0.29922  0.38302  1.0000
  C   C1198     1.0  0.68889  0.25380  0.02016  1.0000
  C   C1199     1.0  0.71331  0.11521  0.07238  1.0000
  H   H2122     1.0  0.49257  0.25345  0.20083  1.0000
  H   H2123     1.0  0.72207  0.15907  0.38822  1.0000
  H   H2124     1.0  0.49370  0.30137  0.17490  1.0000
  H   H2125     1.0  0.71560  0.23255  0.02975  1.0000
  H   H2126     1.0  0.66073  0.17140  0.13421  1.0000
  Fe  Fe134     1.0  0.59022  0.28297  0.30121  1.0000
  H   H2127     1.0  0.69108  0.13011  0.07975  1.0000
  H   H2128     1.0  0.65232  0.16998  0.09700  1.0000
  H   H2129     1.0  0.65359  0.27372  0.25771  1.0000
  H   H2130     1.0  0.51242  0.30712  0.45296  1.0000
  C   C1200     1.0  0.53422  0.25149  0.45469  1.0000
  C   C1201     1.0  0.73010  0.24321  0.13827  1.0000
  H   H2131     1.0  0.63013  0.30553  0.36806  1.0000
  H   H2132     1.0  0.72396  0.15672  0.47925  1.0000
  S   S271      1.0  0.58745  0.26227  0.43355  1.0000
  C   C1202     1.0  0.70425  0.31194  0.26241  1.0000
  H   H2133     1.0  0.67820  0.28052  0.14340  1.0000
  H   H2134     1.0  0.66244  0.28980  0.25755  1.0000
  H   H2135     1.0  0.70007  0.12943  0.03392  1.0000
  H   H2136     1.0  0.65922  0.30572  0.14122  1.0000
  C   C1203     1.0  0.70101  0.28920  0.24076  1.0000
  C   C1204     1.0  0.72782  0.19822  0.26412  1.0000
  C   C1205     1.0  0.72598  0.27629  0.28254  1.0000
  H   H2137     1.0  0.71734  0.25119  0.03461  1.0000
  H   H2138     1.0  0.70069  0.18434  0.04730  1.0000
  H   H2139     1.0  0.71605  0.27847  0.30413  1.0000
  C   C1206     1.0  0.69356  0.16333  0.01573  1.0000
  H   H2140     1.0  0.66289  0.27059  0.14191  1.0000
  C   C1207     1.0  0.72913  0.14309  0.25531  1.0000
  C   C1208     1.0  0.59448  0.28841  0.44801  1.0000
  S   S272      1.0  0.48873  0.25244  0.32420  1.0000
  C   C1209     1.0  0.62756  0.30637  0.39664  1.0000
  H   H2141     1.0  0.63348  0.30604  0.26516  1.0000
  C   C1210     1.0  0.53949  0.24798  0.41652  1.0000
  H   H2142     1.0  0.73287  0.29863  0.26107  1.0000
  H   H2143     1.0  0.56364  0.25005  0.41190  1.0000
  C   C1211     1.0  0.62499  0.30530  0.19789  1.0000
  H   H2144     1.0  0.73569  0.28617  0.23007  1.0000
  S   S273      1.0  0.57371  0.30614  0.29715  1.0000
  H   H2145     1.0  0.50048  0.31223  0.24662  1.0000
  C   C1212     1.0  0.50090  0.25279  0.42465  1.0000
  H   H2146     1.0  0.71385  0.14345  0.08294  1.0000
  C   C1213     1.0  0.50598  0.25108  0.46111  1.0000
  H   H2147     1.0  0.72434  0.18347  0.34758  1.0000
  H   H2148     1.0  0.53723  0.28364  0.41399  1.0000
  H   H2149     1.0  0.51530  0.27514  0.41208  1.0000
  H   H2150     1.0  0.59919  0.30897  0.46072  1.0000
  H   H2151     1.0  0.62165  0.29398  0.19836  1.0000
  H   H2152     1.0  0.49400  0.26460  0.41744  1.0000
  C   C1214     1.0  0.72294  0.17307  0.02366  1.0000
  C   C1215     1.0  0.72715  0.29064  0.25247  1.0000
  C   C1216     1.0  0.65158  0.29050  0.19120  1.0000
  H   H2153     1.0  0.55993  0.23053  0.42843  1.0000
  H   H2154     1.0  0.53355  0.23892  0.41306  1.0000
  H   H2155     1.0  0.72749  0.23704  0.22794  1.0000
  H   H2156     1.0  0.72454  0.11431  0.05357  1.0000
  Fe  Fe135     1.0  0.58377  0.30980  0.34211  1.0000
  H   H2157     1.0  0.63737  0.27737  0.31663  1.0000
  H   H2158     1.0  0.53578  0.23997  0.47238  1.0000
  H   H2159     1.0  0.51084  0.25116  0.40279  1.0000
  H   H2160     1.0  0.69157  0.17601  0.00475  1.0000
  H   H2161     1.0  0.67236  0.18347  0.05535  1.0000
  H   H2162     1.0  0.65090  0.30898  0.39498  1.0000
  H   H2163     1.0  0.53710  0.25854  0.39628  1.0000
  C   C1217     1.0  0.70094  0.21506  0.27293  1.0000
  H   H2164     1.0  0.72272  0.19100  0.25143  1.0000
  H   H2165     1.0  0.71853  0.27235  0.21256  1.0000
  H   H2166     1.0  0.64638  0.29360  0.31647  1.0000
  N   N68       1.0  0.51785  0.26037  0.46328  1.0000
  C   C1218     1.0  0.71519  0.15407  0.25625  1.0000
  C   C1219     1.0  0.67458  0.17772  0.08227  1.0000
  H   H2167     1.0  0.59099  0.29441  0.42313  1.0000
  C   C1220     1.0  0.71826  0.15835  0.19203  1.0000
  C   C1221     1.0  0.68512  0.16140  0.08191  1.0000
  C   C1222     1.0  0.70914  0.14467  0.05805  1.0000
  C   C1223     1.0  0.63771  0.29628  0.25013  1.0000
  C   C1224     1.0  0.67840  0.15795  0.01440  1.0000
  H   H2168     1.0  0.66810  0.16523  0.02800  1.0000
  H   H2169     1.0  0.64726  0.27930  0.19832  1.0000
  H   H2170     1.0  0.51440  0.30647  0.40647  1.0000
  H   H2171     1.0  0.51762  0.29970  0.19321  1.0000
  C   C1225     1.0  0.69806  0.30635  0.30207  1.0000
  C   C1226     1.0  0.49360  0.27912  0.34235  1.0000
  H   H2172     1.0  0.73470  0.21781  0.05386  1.0000
  H   H2173     1.0  0.56040  0.23881  0.38206  1.0000
  H   H2174     1.0  0.60827  0.30958  0.24702  1.0000
  H   H2175     1.0  0.50128  0.27700  0.20994  1.0000
  H   H2176     1.0  0.70534  0.31361  0.19160  1.0000
  H   H2177     1.0  0.72212  0.27424  0.00210  1.0000
  H   H2178     1.0  0.65788  0.27423  0.31737  1.0000
  C   C1227     1.0  0.52069  0.30368  0.42926  1.0000
  C   C1228     1.0  0.59908  0.26487  0.49110  1.0000
  H   H2179     1.0  0.62847  0.29441  0.41244  1.0000
  H   H2180     1.0  0.68679  0.24282  0.03833  1.0000
  H   H2181     1.0  0.67832  0.14573  0.02736  1.0000
  H   H2182     1.0  0.68913  0.26256  0.03621  1.0000
  H   H2183     1.0  0.73012  0.16917  0.29057  1.0000
  H   H2184     1.0  0.70796  0.30260  0.31687  1.0000
  H   H2185     1.0  0.50350  0.28273  0.44870  1.0000
  C   C1229     1.0  0.59928  0.29664  0.46917  1.0000
  C   C1230     1.0  0.71799  0.24396  0.01433  1.0000
  C   C1231     1.0  0.63897  0.31497  0.40476  1.0000
  C   C1232     1.0  0.70418  0.25097  0.99415  1.0000
  C   C1233     1.0  0.51785  0.29512  0.22178  1.0000
  H   H2186     1.0  0.64958  0.21509  0.00598  1.0000
  H   H2187     1.0  0.50237  0.29320  0.27218  1.0000
  H   H2188     1.0  0.69165  0.29671  0.30644  1.0000
  N   N69       1.0  0.64036  0.30249  0.21062  1.0000
  H   H2189     1.0  0.66899  0.28497  0.10482  1.0000
  H   H2190     1.0  0.71935  0.14365  0.03636  1.0000
  H   H2191     1.0  0.53009  0.31060  0.42278  1.0000
  H   H2192     1.0  0.73422  0.18467  0.05186  1.0000
  H   H2193     1.0  0.54188  0.29756  0.21624  1.0000
  H   H2194     1.0  0.73096  0.20784  0.24241  1.0000
  H   H2195     1.0  0.67114  0.30956  0.19592  1.0000
  H   H2196     1.0  0.61547  0.31288  0.40248  1.0000
  H   H2197     1.0  0.72258  0.29928  0.18489  1.0000
  H   H2198     1.0  0.66212  0.31437  0.23932  1.0000
  C   C1234     1.0  0.73214  0.14730  0.19106  1.0000
  H   H2199     1.0  0.73174  0.16229  0.02819  1.0000
  C   C1235     1.0  0.49064  0.28010  0.22948  1.0000
  C   C1236     1.0  0.73312  0.17314  0.34153  1.0000
  H   H2200     1.0  0.49280  0.27277  0.25544  1.0000
  H   H2201     1.0  0.49712  0.22895  0.43202  1.0000
  C   C1237     1.0  0.73052  0.18647  0.02569  1.0000
  H   H2202     1.0  0.72229  0.19774  0.02204  1.0000
  H   H2203     1.0  0.70310  0.15805  0.99606  1.0000
  N   N70       1.0  0.73397  0.24202  0.99184  1.0000
  H   H2204     1.0  0.69369  0.31033  0.45258  1.0000
  C   C1238     1.0  0.63685  0.31497  0.44519  1.0000
  H   H2205     1.0  0.52783  0.31430  0.22820  1.0000
  C   C1239     1.0  0.72870  0.14458  0.49094  1.0000
  H   H2206     1.0  0.57748  0.21936  0.80208  1.0000
  C   C1240     1.0  0.68285  0.30639  0.64424  1.0000
  S   S274      1.0  0.50345  0.25177  0.66171  1.0000
  H   H2207     1.0  0.65278  0.24736  0.60585  1.0000
  H   H2208     1.0  0.70514  0.23701  0.71987  1.0000
  C   C1241     1.0  0.71395  0.29962  0.74122  1.0000
  H   H2209     1.0  0.64756  0.27757  0.80462  1.0000
  C   C1242     1.0  0.66936  0.20783  0.96685  1.0000
  H   H2210     1.0  0.50128  0.24913  0.77876  1.0000
  Fe  Fe136     1.0  0.61262  0.26270  0.64496  1.0000
  S   S275      1.0  0.59839  0.27597  0.68689  1.0000
  S   S276      1.0  0.62673  0.23849  0.65508  1.0000
  Fe  Fe137     1.0  0.60669  0.28993  0.58606  1.0000
  C   C1243     1.0  0.60397  0.28906  0.50135  1.0000
  Fe  Fe138     1.0  0.58114  0.28490  0.64942  1.0000
  S   S277      1.0  0.55465  0.29030  0.66468  1.0000
  S   S278      1.0  0.62614  0.28145  0.61758  1.0000
  S   S279      1.0  0.59445  0.26988  0.60979  1.0000
  Fe  Fe139     1.0  0.66573  0.21053  0.81624  1.0000
  S   S280      1.0  0.68187  0.18831  0.83505  1.0000
  S   S281      1.0  0.64061  0.21313  0.81112  1.0000
  Fe  Fe140     1.0  0.68924  0.23086  0.80850  1.0000
  S   S282      1.0  0.70692  0.21056  0.82735  1.0000
  S   S283      1.0  0.69579  0.25456  0.79213  1.0000
  Fe  Fe141     1.0  0.69990  0.19798  0.79149  1.0000
  S   S284      1.0  0.72085  0.18848  0.75297  1.0000
  Fe  Fe142     1.0  0.68768  0.20292  0.86913  1.0000
  S   S285      1.0  0.69512  0.19462  0.92295  1.0000
  S   S286      1.0  0.68321  0.21893  0.77014  1.0000
  S   S287      1.0  0.67039  0.22439  0.85329  1.0000
  H   H2211     1.0  0.59609  0.23352  0.68626  1.0000
  H   H2212     1.0  0.54245  0.23078  0.74781  1.0000
  H   H2213     1.0  0.71118  0.12074  0.62847  1.0000
  H   H2214     1.0  0.54048  0.25033  0.72431  1.0000
  H   H2215     1.0  0.51537  0.28755  0.56625  1.0000
  H   H2216     1.0  0.69201  0.30384  0.72289  1.0000
  C   C1244     1.0  0.66180  0.25725  0.66193  1.0000
  C   C1245     1.0  0.63039  0.23149  0.69859  1.0000
  C   C1246     1.0  0.61947  0.23571  0.72785  1.0000
  C   C1247     1.0  0.62250  0.22966  0.76239  1.0000
  C   C1248     1.0  0.63677  0.21998  0.76772  1.0000
  C   C1249     1.0  0.64774  0.21586  0.73844  1.0000
  C   C1250     1.0  0.64442  0.22135  0.70398  1.0000
  H   H2217     1.0  0.60864  0.24350  0.72396  1.0000
  H   H2218     1.0  0.61398  0.23282  0.78500  1.0000
  H   H2219     1.0  0.65864  0.20815  0.74242  1.0000
  H   H2220     1.0  0.65281  0.21788  0.68148  1.0000
  C   C1251     1.0  0.51737  0.26367  0.65732  1.0000
  C   C1252     1.0  0.53325  0.25739  0.64805  1.0000
  C   C1253     1.0  0.54479  0.26579  0.64823  1.0000
  C   C1254     1.0  0.54059  0.28028  0.65903  1.0000
  C   C1255     1.0  0.52472  0.28676  0.66725  1.0000
  C   C1256     1.0  0.51315  0.27860  0.66599  1.0000
  H   H2221     1.0  0.53664  0.24585  0.64128  1.0000
  H   H2222     1.0  0.55694  0.26087  0.64097  1.0000
  H   H2223     1.0  0.52133  0.29802  0.67552  1.0000
  H   H2224     1.0  0.50098  0.28352  0.67347  1.0000
  C   C1257     1.0  0.60407  0.27309  0.51208  1.0000
  H   H2225     1.0  0.56087  0.23976  0.68964  1.0000
  H   H2226     1.0  0.60803  0.26704  0.53645  1.0000
  H   H2227     1.0  0.71307  0.16170  0.54115  1.0000
  H   H2228     1.0  0.58611  0.23667  0.64935  1.0000
  N   N71       1.0  0.72087  0.15001  0.59033  1.0000
  H   H2229     1.0  0.55567  0.26757  0.72943  1.0000
  C   C1258     1.0  0.70534  0.15348  0.61406  1.0000
  C   C1259     1.0  0.73049  0.16224  0.58741  1.0000
  C   C1260     1.0  0.72963  0.13447  0.60611  1.0000
  H   H2230     1.0  0.68011  0.27926  0.63439  1.0000
  H   H2231     1.0  0.50080  0.26151  0.57173  1.0000
  C   C1261     1.0  0.73127  0.16696  0.62283  1.0000
  C   C1262     1.0  0.69507  0.16955  0.60303  1.0000
  C   C1263     1.0  0.68095  0.17290  0.63193  1.0000
  H   H2232     1.0  0.62927  0.27744  0.76490  1.0000
  H   H2233     1.0  0.67221  0.28342  0.81151  1.0000
  C   C1264     1.0  0.73334  0.14075  0.71849  1.0000
  C   C1265     1.0  0.51492  0.24861  0.53077  1.0000
  H   H2234     1.0  0.66525  0.15554  0.97585  1.0000
  H   H2235     1.0  0.69820  0.14470  0.61484  1.0000
  H   H2236     1.0  0.70692  0.15226  0.64209  1.0000
  H   H2237     1.0  0.72629  0.17306  0.56931  1.0000
  H   H2238     1.0  0.71402  0.31032  0.79931  1.0000
  C   C1266     1.0  0.51196  0.25313  0.56745  1.0000
  H   H2239     1.0  0.73096  0.13463  0.63358  1.0000
  H   H2240     1.0  0.52420  0.26903  0.50515  1.0000
  H   H2241     1.0  0.56666  0.30277  0.50320  1.0000
  C   C1267     1.0  0.66537  0.24474  0.60724  1.0000
  H   H2242     1.0  0.69924  0.26414  0.65857  1.0000
  C   C1268     1.0  0.66975  0.30697  0.77853  1.0000
  H   H2243     1.0  0.71968  0.17246  0.63572  1.0000
  H   H2244     1.0  0.70152  0.17923  0.59806  1.0000
  H   H2245     1.0  0.69072  0.16970  0.57841  1.0000
  H   H2246     1.0  0.68472  0.17346  0.65685  1.0000
  H   H2247     1.0  0.67361  0.18429  0.62319  1.0000
  H   H2248     1.0  0.67381  0.16372  0.63736  1.0000
  C   C1269     1.0  0.57200  0.23019  0.81297  1.0000
  C   C1270     1.0  0.55603  0.23703  0.80064  1.0000
  C   C1271     1.0  0.57007  0.22598  0.85337  1.0000
  H   H2249     1.0  0.71098  0.13679  0.74824  1.0000
  H   H2250     1.0  0.58125  0.23766  0.74527  1.0000
  C   C1272     1.0  0.72225  0.25969  0.80862  1.0000
  H   H2251     1.0  0.73036  0.26112  0.94786  1.0000
  C   C1273     1.0  0.55439  0.30476  0.49959  1.0000
  C   C1274     1.0  0.54460  0.31037  0.56182  1.0000
  H   H2252     1.0  0.56877  0.28862  0.73121  1.0000
  C   C1275     1.0  0.54171  0.24306  0.75083  1.0000
  C   C1276     1.0  0.67606  0.29408  0.67301  1.0000
  H   H2253     1.0  0.69464  0.24499  0.66374  1.0000
  N   N72       1.0  0.54374  0.30103  0.53452  1.0000
  H   H2254     1.0  0.70377  0.16254  0.76832  1.0000
  H   H2255     1.0  0.58454  0.21981  0.68369  1.0000
  C   C1277     1.0  0.49824  0.30691  0.54949  1.0000
  H   H2256     1.0  0.56956  0.30451  0.56652  1.0000
  H   H2257     1.0  0.56222  0.21741  0.86370  1.0000
  C   C1278     1.0  0.57010  0.23648  0.73909  1.0000
  C   C1279     1.0  0.68560  0.20456  0.95822  1.0000
  H   H2258     1.0  0.71933  0.11948  0.58273  1.0000
  C   C1280     1.0  0.66953  0.25734  0.62240  1.0000
  C   C1281     1.0  0.51443  0.30037  0.55893  1.0000
  C   C1282     1.0  0.55635  0.26189  0.75735  1.0000
  C   C1283     1.0  0.71812  0.14979  0.55374  1.0000
  H   H2259     1.0  0.54575  0.26781  0.77317  1.0000
  H   H2260     1.0  0.50556  0.24244  0.53022  1.0000
  C   C1284     1.0  0.51231  0.24607  0.76030  1.0000
  H   H2261     1.0  0.51122  0.24258  0.58822  1.0000
  H   H2262     1.0  0.67634  0.24823  0.71808  1.0000
  H   H2263     1.0  0.71925  0.29314  0.76456  1.0000
  C   C1285     1.0  0.69632  0.29959  0.74856  1.0000
  H   H2264     1.0  0.64903  0.26008  0.66179  1.0000
  H   H2265     1.0  0.64642  0.24995  0.72712  1.0000
  H   H2266     1.0  0.69548  0.28708  0.75636  1.0000
  S   S288      1.0  0.59249  0.30553  0.62383  1.0000
  C   C1286     1.0  0.67950  0.25915  0.70129  1.0000
  H   H2267     1.0  0.52415  0.26012  0.77894  1.0000
  H   H2268     1.0  0.58159  0.22069  0.86120  1.0000
  H   H2269     1.0  0.48930  0.30381  0.57275  1.0000
  H   H2270     1.0  0.51161  0.25403  0.73448  1.0000
  N   N73       1.0  0.55632  0.24471  0.76216  1.0000
  H   H2271     1.0  0.70921  0.14268  0.55522  1.0000
  C   C1287     1.0  0.54743  0.28377  0.54823  1.0000
  H   H2272     1.0  0.66388  0.24497  0.67611  1.0000
  C   C1288     1.0  0.51517  0.26322  0.50108  1.0000
  H   H2273     1.0  0.52618  0.24034  0.52814  1.0000
  S   S289      1.0  0.60956  0.29985  0.52757  1.0000
  C   C1289     1.0  0.56383  0.27709  0.55746  1.0000
  C   C1290     1.0  0.56747  0.25933  0.56106  1.0000
  H   H2274     1.0  0.70967  0.25614  0.71488  1.0000
  H   H2275     1.0  0.56964  0.26301  0.79735  1.0000
  C   C1291     1.0  0.67608  0.15956  0.97614  1.0000
  H   H2276     1.0  0.53944  0.28048  0.57329  1.0000
  H   H2277     1.0  0.54559  0.27723  0.52867  1.0000
  H   H2278     1.0  0.66538  0.26872  0.60608  1.0000
  C   C1292     1.0  0.57007  0.26647  0.76828  1.0000
  H   H2279     1.0  0.68235  0.25546  0.61891  1.0000
  C   C1293     1.0  0.57111  0.24174  0.69848  1.0000
  H   H2280     1.0  0.55843  0.29006  0.77563  1.0000
  C   C1294     1.0  0.72206  0.12018  0.60856  1.0000
  H   H2281     1.0  0.67195  0.24443  0.57990  1.0000
  H   H2282     1.0  0.73430  0.19310  0.86384  1.0000
  H   H2283     1.0  0.56437  0.28012  0.58316  1.0000
  H   H2284     1.0  0.71772  0.29761  0.68535  1.0000
  H   H2285     1.0  0.57892  0.25466  0.56961  1.0000
  H   H2286     1.0  0.55846  0.25401  0.58096  1.0000
  H   H2287     1.0  0.68111  0.26584  0.72072  1.0000
  Fe  Fe143     1.0  0.61096  0.29539  0.65752  1.0000
  C   C1295     1.0  0.66671  0.29003  0.78857  1.0000
  H   H2288     1.0  0.64411  0.29528  0.82219  1.0000
  H   H2289     1.0  0.69391  0.30106  0.62872  1.0000
  C   C1296     1.0  0.64932  0.28982  0.79838  1.0000
  H   H2290     1.0  0.54104  0.30408  0.58918  1.0000
  H   H2291     1.0  0.68601  0.15246  0.96090  1.0000
  H   H2292     1.0  0.51345  0.23391  0.75633  1.0000
  C   C1297     1.0  0.67068  0.28231  0.65652  1.0000
  H   H2293     1.0  0.49668  0.30190  0.52712  1.0000
  H   H2294     1.0  0.71932  0.24365  0.68317  1.0000
  C   C1298     1.0  0.71580  0.25065  0.79272  1.0000
  H   H2295     1.0  0.67135  0.28381  0.76577  1.0000
  C   C1299     1.0  0.69540  0.25419  0.67796  1.0000
  C   C1300     1.0  0.64660  0.26036  0.73783  1.0000
  H   H2296     1.0  0.62695  0.25750  0.78037  1.0000
  H   H2297     1.0  0.67496  0.17194  0.96282  1.0000
  C   C1301     1.0  0.72496  0.17005  0.74022  1.0000
  H   H2298     1.0  0.66827  0.23310  0.62376  1.0000
  H   H2299     1.0  0.66051  0.28876  0.64373  1.0000
  H   H2300     1.0  0.68524  0.28821  0.68891  1.0000
  C   C1302     1.0  0.65253  0.27328  0.70830  1.0000
  H   H2301     1.0  0.71520  0.26992  0.81792  1.0000
  H   H2302     1.0  0.71559  0.28899  0.85132  1.0000
  H   H2303     1.0  0.52159  0.25837  0.57068  1.0000
  C   C1303     1.0  0.69449  0.20728  0.98090  1.0000
  H   H2304     1.0  0.55006  0.22686  0.80668  1.0000
  H   H2305     1.0  0.65493  0.28172  0.72252  1.0000
  C   C1304     1.0  0.56906  0.28413  0.75983  1.0000
  H   H2306     1.0  0.62171  0.26774  0.73837  1.0000
  H   H2307     1.0  0.64274  0.27967  0.69429  1.0000
  H   H2308     1.0  0.69509  0.28995  0.81553  1.0000
  N   N74       1.0  0.66650  0.26791  0.68159  1.0000
  H   H2309     1.0  0.73070  0.22017  0.98194  1.0000
  H   H2310     1.0  0.57939  0.28711  0.76640  1.0000
  H   H2311     1.0  0.66616  0.30029  0.69015  1.0000
  H   H2312     1.0  0.52559  0.24038  0.80228  1.0000
  C   C1305     1.0  0.70965  0.30101  0.85471  1.0000
  H   H2313     1.0  0.72030  0.23044  0.76784  1.0000
  C   C1306     1.0  0.70812  0.24735  0.70044  1.0000
  C   C1307     1.0  0.72504  0.23730  0.78100  1.0000
  H   H2314     1.0  0.70568  0.26226  0.97683  1.0000
  H   H2315     1.0  0.72007  0.13709  0.49317  1.0000
  H   H2316     1.0  0.57201  0.25422  0.69063  1.0000
  N   N75       1.0  0.68634  0.30883  0.77606  1.0000
  S   S290      1.0  0.61954  0.30717  0.69382  1.0000
  H   H2317     1.0  0.64330  0.29616  0.77598  1.0000
  H   H2318     1.0  0.56528  0.23656  0.86560  1.0000
  H   H2319     1.0  0.72069  0.27916  0.71561  1.0000
  C   C1308     1.0  0.63015  0.26616  0.75650  1.0000
  C   C1309     1.0  0.71479  0.15947  0.75134  1.0000
  H   H2320     1.0  0.65436  0.25672  0.75804  1.0000
  H   H2321     1.0  0.58033  0.23824  0.80396  1.0000
  H   H2322     1.0  0.64390  0.29912  0.51384  1.0000
  H   H2323     1.0  0.57006  0.22373  0.74483  1.0000
  H   H2324     1.0  0.54904  0.24526  0.81837  1.0000
  C   C1310     1.0  0.52605  0.24781  0.77563  1.0000
  H   H2325     1.0  0.72686  0.23617  0.94771  1.0000
  C   C1311     1.0  0.71892  0.14488  0.74007  1.0000
  H   H2326     1.0  0.58141  0.26100  0.75428  1.0000
  C   C1312     1.0  0.58533  0.23233  0.67833  1.0000
  H   H2327     1.0  0.56809  0.25589  0.53509  1.0000
  C   C1313     1.0  0.72225  0.29147  0.70996  1.0000
  H   H2328     1.0  0.66169  0.30591  0.50990  1.0000
  H   H2329     1.0  0.51518  0.30497  0.58257  1.0000
  H   H2330     1.0  0.69986  0.30054  0.87746  1.0000
  H   H2331     1.0  0.50388  0.27135  0.50691  1.0000
  H   H2332     1.0  0.65064  0.29868  0.57218  1.0000
  H   H2333     1.0  0.72695  0.09500  0.62299  1.0000
  H   H2334     1.0  0.63259  0.31201  0.56644  1.0000
  H   H2335     1.0  0.70704  0.20488  0.97411  1.0000
  H   H2336     1.0  0.68095  0.30457  0.83369  1.0000
  H   H2337     1.0  0.59906  0.25255  0.49964  1.0000
  H   H2338     1.0  0.66241  0.20565  0.94962  1.0000
  H   H2339     1.0  0.57307  0.28158  0.53717  1.0000
  C   C1314     1.0  0.73275  0.14396  0.52727  1.0000
  C   C1315     1.0  0.70383  0.31002  0.82077  1.0000
  C   C1316     1.0  0.69113  0.30278  0.81203  1.0000
  C   C1317     1.0  0.56048  0.31491  0.56075  1.0000
  H   H2340     1.0  0.73216  0.28937  0.94368  1.0000
  H   H2341     1.0  0.71822  0.30689  0.86081  1.0000
  C   C1318     1.0  0.52728  0.30472  0.52711  1.0000
  H   H2342     1.0  0.70296  0.24283  0.97755  1.0000
  H   H2343     1.0  0.71627  0.31160  0.73456  1.0000
  H   H2344     1.0  0.52654  0.29881  0.50545  1.0000
  H   H2345     1.0  0.66560  0.31224  0.75290  1.0000
  C   C1319     1.0  0.73286  0.10497  0.62023  1.0000
  H   H2346     1.0  0.67452  0.31218  0.62593  1.0000
  H   H2347     1.0  0.66183  0.31342  0.79878  1.0000
  H   H2348     1.0  0.73488  0.29162  0.70554  1.0000
  H   H2349     1.0  0.73563  0.15666  0.64176  1.0000
  H   H2350     1.0  0.73593  0.10489  0.64631  1.0000
  C   C1320     1.0  0.73454  0.27108  0.99018  1.0000
  C   C1321     1.0  0.73488  0.23092  0.96708  1.0000
  C   C1322     1.0  0.64888  0.30886  0.51737  1.0000
  C   C1323     1.0  0.64536  0.30983  0.55687  1.0000
  Fe  Fe144     1.0  0.68411  0.39124  0.31320  1.0000
  S   S291      1.0  0.69461  0.37845  0.36079  1.0000
  S   S292      1.0  0.68936  0.41514  0.28634  1.0000
  Fe  Fe145     1.0  0.66610  0.36541  0.31511  1.0000
  S   S293      1.0  0.67480  0.35142  0.36376  1.0000
  S   S294      1.0  0.65366  0.35307  0.28781  1.0000
  Fe  Fe146     1.0  0.67053  0.37396  0.38318  1.0000
  S   S295      1.0  0.65943  0.37648  0.43936  1.0000
  Fe  Fe147     1.0  0.69807  0.35699  0.33672  1.0000
  S   S296      1.0  0.71736  0.33585  0.34177  1.0000
  S   S297      1.0  0.65960  0.38788  0.33682  1.0000
  S   S298      1.0  0.68970  0.37004  0.28669  1.0000
  Fe  Fe148     1.0  0.71915  0.51336  0.33312  1.0000
  S   S299      1.0  0.70245  0.50331  0.31261  1.0000
  N   N76       1.0  0.64549  0.32554  0.45539  1.0000
  Fe  Fe149     1.0  0.70011  0.51156  0.40794  1.0000
  S   S300      1.0  0.68219  0.50173  0.39249  1.0000
  S   S301      1.0  0.69283  0.51583  0.46463  1.0000
  Fe  Fe150     1.0  0.70195  0.48620  0.36413  1.0000
  S   S302      1.0  0.70083  0.46032  0.37985  1.0000
  Fe  Fe151     1.0  0.68414  0.51961  0.34320  1.0000
  S   S303      1.0  0.66126  0.53328  0.32866  1.0000
  H   H2351     1.0  0.60146  0.47850  0.33851  1.0000
  S   S304      1.0  0.70076  0.53067  0.36018  1.0000
  H   H2352     1.0  0.70411  0.54905  0.47187  1.0000
  C   C1324     1.0  0.65006  0.41660  0.41119  1.0000
  S   S305      1.0  0.51408  0.58765  0.39138  1.0000
  S   S306      1.0  0.60270  0.60879  0.39483  1.0000
  H   H2353     1.0  0.68518  0.47202  0.44987  1.0000
  Fe  Fe152     1.0  0.62337  0.61790  0.35941  1.0000
  S   S307      1.0  0.64714  0.60544  0.33583  1.0000
  H   H2354     1.0  0.73020  0.54312  0.43372  1.0000
  H   H2355     1.0  0.51080  0.62154  0.37638  1.0000
  S   S308      1.0  0.58889  0.33187  0.35317  1.0000
  H   H2356     1.0  0.73366  0.55571  0.14838  1.0000
  H   H2357     1.0  0.73583  0.61743  0.27340  1.0000
  H   H2358     1.0  0.66578  0.49715  0.30933  1.0000
  S   S309      1.0  0.62577  0.63284  0.39673  1.0000
  H   H2359     1.0  0.57253  0.59891  0.45067  1.0000
  C   C1325     1.0  0.73238  0.57741  0.16436  1.0000
  H   H2360     1.0  0.69926  0.39993  0.45532  1.0000
  H   H2361     1.0  0.68320  0.64589  0.33953  1.0000
  C   C1326     1.0  0.71603  0.56094  0.39884  1.0000
  C   C1327     1.0  0.55009  0.61984  0.36578  1.0000
  C   C1328     1.0  0.55471  0.60366  0.37347  1.0000
  C   C1329     1.0  0.54357  0.59397  0.38084  1.0000
  C   C1330     1.0  0.52768  0.60033  0.38141  1.0000
  C   C1331     1.0  0.52301  0.61651  0.37488  1.0000
  C   C1332     1.0  0.53418  0.62619  0.36657  1.0000
  H   H2362     1.0  0.56693  0.59860  0.37259  1.0000
  H   H2363     1.0  0.54732  0.58146  0.38580  1.0000
  H   H2364     1.0  0.62719  0.47883  0.35307  1.0000
  H   H2365     1.0  0.53047  0.63870  0.36082  1.0000
  H   H2366     1.0  0.64115  0.42701  0.34647  1.0000
  H   H2367     1.0  0.58644  0.32463  0.21847  1.0000
  C   C1333     1.0  0.73451  0.56645  0.26779  1.0000
  C   C1334     1.0  0.65739  0.55324  0.33167  1.0000
  C   C1335     1.0  0.66943  0.56170  0.32366  1.0000
  C   C1336     1.0  0.66608  0.57772  0.32476  1.0000
  C   C1337     1.0  0.65074  0.58532  0.33483  1.0000
  C   C1338     1.0  0.63871  0.57684  0.34331  1.0000
  C   C1339     1.0  0.64202  0.56088  0.34126  1.0000
  H   H2368     1.0  0.68126  0.55601  0.31547  1.0000
  H   H2369     1.0  0.67539  0.58425  0.31753  1.0000
  H   H2370     1.0  0.62684  0.58263  0.35079  1.0000
  H   H2371     1.0  0.63265  0.55442  0.34724  1.0000
  H   H2372     1.0  0.67789  0.33348  0.20515  1.0000
  C   C1340     1.0  0.73196  0.55128  0.28290  1.0000
  Fe  Fe153     1.0  0.60404  0.62543  0.42928  1.0000
  H   H2373     1.0  0.69135  0.36067  0.42847  1.0000
  C   C1341     1.0  0.73283  0.62440  0.29509  1.0000
  C   C1342     1.0  0.63618  0.34653  0.30872  1.0000
  C   C1343     1.0  0.62589  0.35353  0.33553  1.0000
  C   C1344     1.0  0.61147  0.34884  0.34934  1.0000
  C   C1345     1.0  0.60736  0.33700  0.33677  1.0000
  C   C1346     1.0  0.61785  0.32972  0.31072  1.0000
  C   C1347     1.0  0.63216  0.33453  0.29666  1.0000
  H   H2374     1.0  0.62882  0.36292  0.34461  1.0000
  H   H2375     1.0  0.60337  0.35457  0.36940  1.0000
  C   C1348     1.0  0.60494  0.47213  0.36410  1.0000
  C   C1349     1.0  0.51767  0.54896  0.45598  1.0000
  C   C1350     1.0  0.69342  0.42737  0.31199  1.0000
  C   C1351     1.0  0.69780  0.44169  0.29538  1.0000
  C   C1352     1.0  0.70019  0.45198  0.31560  1.0000
  C   C1353     1.0  0.69816  0.44801  0.35263  1.0000
  C   C1354     1.0  0.69369  0.43376  0.36907  1.0000
  C   C1355     1.0  0.69143  0.42346  0.34894  1.0000
  H   H2376     1.0  0.69928  0.44485  0.26679  1.0000
  H   H2377     1.0  0.70359  0.46295  0.30259  1.0000
  H   H2378     1.0  0.69162  0.43081  0.39758  1.0000
  H   H2379     1.0  0.68783  0.41262  0.36207  1.0000
  H   H2380     1.0  0.53122  0.59788  0.30784  1.0000
  H   H2381     1.0  0.72598  0.38395  0.40690  1.0000
  H   H2382     1.0  0.73152  0.57206  0.19285  1.0000
  H   H2383     1.0  0.50018  0.61110  0.28113  1.0000
  H   H2384     1.0  0.70195  0.47937  0.48297  1.0000
  H   H2385     1.0  0.54432  0.60396  0.46091  1.0000
  H   H2386     1.0  0.64599  0.59102  0.45010  1.0000
  H   H2387     1.0  0.65964  0.63224  0.20161  1.0000
  C   C1356     1.0  0.72654  0.32026  0.19639  1.0000
  C   C1357     1.0  0.54968  0.64528  0.47889  1.0000
  C   C1358     1.0  0.51340  0.56156  0.47914  1.0000
  H   H2388     1.0  0.57349  0.32726  0.46583  1.0000
  H   H2389     1.0  0.71362  0.56169  0.37171  1.0000
  H   H2390     1.0  0.68777  0.55946  0.39102  1.0000
  S   S310      1.0  0.56371  0.63255  0.35256  1.0000
  H   H2391     1.0  0.64540  0.34438  0.40991  1.0000
  H   H2392     1.0  0.52641  0.59543  0.26700  1.0000
  H   H2393     1.0  0.65158  0.46284  0.36530  1.0000
  H   H2394     1.0  0.56178  0.63110  0.43858  1.0000
  H   H2395     1.0  0.66601  0.44435  0.28675  1.0000
  H   H2396     1.0  0.69794  0.58441  0.25847  1.0000
  C   C1359     1.0  0.50750  0.62494  0.47158  1.0000
  H   H2397     1.0  0.62500  0.36932  0.40274  1.0000
  H   H2398     1.0  0.69336  0.54462  0.42538  1.0000
  H   H2399     1.0  0.65768  0.34238  0.21349  1.0000
  H   H2400     1.0  0.68367  0.64270  0.16246  1.0000
  H   H2401     1.0  0.68090  0.58497  0.37567  1.0000
  S   S311      1.0  0.71998  0.49501  0.38278  1.0000
  H   H2402     1.0  0.59968  0.46152  0.37284  1.0000
  C   C1360     1.0  0.66202  0.31764  0.21044  1.0000
  H   H2403     1.0  0.52523  0.62736  0.29385  1.0000
  H   H2404     1.0  0.66812  0.45331  0.34008  1.0000
  C   C1361     1.0  0.63779  0.59080  0.47568  1.0000
  C   C1362     1.0  0.55107  0.63998  0.44353  1.0000
  H   H2405     1.0  0.66520  0.32265  0.41302  1.0000
  H   H2406     1.0  0.72102  0.38065  0.46617  1.0000
  H   H2407     1.0  0.52382  0.62419  0.25134  1.0000
  H   H2408     1.0  0.68878  0.59403  0.22092  1.0000
  H   H2409     1.0  0.70889  0.59487  0.22041  1.0000
  H   H2410     1.0  0.52645  0.53913  0.46647  1.0000
  H   H2411     1.0  0.68347  0.61072  0.34269  1.0000
  H   H2412     1.0  0.71229  0.31971  0.26284  1.0000
  C   C1363     1.0  0.50933  0.61228  0.29488  1.0000
  H   H2413     1.0  0.72656  0.35530  0.27413  1.0000
  H   H2414     1.0  0.60031  0.47980  0.38433  1.0000
  H   H2415     1.0  0.67376  0.55486  0.47050  1.0000
  H   H2416     1.0  0.72342  0.43758  0.42987  1.0000
  H   H2417     1.0  0.68599  0.58791  0.43279  1.0000
  S   S312      1.0  0.60873  0.63734  0.32678  1.0000
  H   H2418     1.0  0.72039  0.33038  0.20928  1.0000
  H   H2419     1.0  0.54081  0.32221  0.46390  1.0000
  C   C1364     1.0  0.59629  0.31761  0.20283  1.0000
  C   C1365     1.0  0.68852  0.36376  0.45454  1.0000
  H   H2420     1.0  0.64541  0.32345  0.17455  1.0000
  C   C1366     1.0  0.61907  0.36605  0.43042  1.0000
  C   C1367     1.0  0.62264  0.46780  0.36025  1.0000
  H   H2421     1.0  0.51701  0.62625  0.44845  1.0000
  H   H2422     1.0  0.69930  0.42006  0.44997  1.0000
  H   H2423     1.0  0.72043  0.58223  0.15879  1.0000
  H   H2424     1.0  0.72077  0.41957  0.40305  1.0000
  C   C1368     1.0  0.68684  0.31958  0.31835  1.0000
  H   H2425     1.0  0.62552  0.46199  0.38652  1.0000
  C   C1369     1.0  0.66627  0.33382  0.19898  1.0000
  H   H2426     1.0  0.64996  0.55529  0.44866  1.0000
  H   H2427     1.0  0.64796  0.42754  0.22838  1.0000
  H   H2428     1.0  0.70060  0.60962  0.27023  1.0000
  C   C1370     1.0  0.56421  0.32638  0.45195  1.0000
  C   C1371     1.0  0.64046  0.34228  0.43870  1.0000
  H   H2429     1.0  0.66093  0.42778  0.34400  1.0000
  H   H2430     1.0  0.50420  0.57070  0.46826  1.0000
  H   H2431     1.0  0.53682  0.64336  0.23149  1.0000
  C   C1372     1.0  0.72837  0.39898  0.35643  1.0000
  H   H2432     1.0  0.55162  0.58517  0.44798  1.0000
  C   C1373     1.0  0.67305  0.56044  0.44254  1.0000
  H   H2433     1.0  0.66532  0.43381  0.23133  1.0000
  C   C1374     1.0  0.56643  0.59234  0.47499  1.0000
  C   C1375     1.0  0.66133  0.55348  0.43060  1.0000
  H   H2434     1.0  0.53263  0.57250  0.45132  1.0000
  C   C1376     1.0  0.49451  0.64395  0.30610  1.0000
  C   C1377     1.0  0.68924  0.55730  0.41928  1.0000
  H   H2435     1.0  0.73137  0.62936  0.11080  1.0000
  H   H2436     1.0  0.72686  0.50901  0.45722  1.0000
  C   C1378     1.0  0.69189  0.60954  0.25387  1.0000
  H   H2437     1.0  0.65285  0.44029  0.40033  1.0000
  H   H2438     1.0  0.72405  0.63496  0.28813  1.0000
  N   N77       1.0  0.72169  0.40527  0.45493  1.0000
  H   H2439     1.0  0.70881  0.39807  0.39886  1.0000
  H   H2440     1.0  0.65097  0.42400  0.29032  1.0000
  H   H2441     1.0  0.60634  0.37006  0.43156  1.0000
  H   H2442     1.0  0.62624  0.63204  0.46839  1.0000
  C   C1379     1.0  0.73323  0.64395  0.19406  1.0000
  C   C1380     1.0  0.68750  0.60700  0.36866  1.0000
  C   C1381     1.0  0.65239  0.43646  0.23721  1.0000
  H   H2443     1.0  0.69807  0.32933  0.44912  1.0000
  C   C1382     1.0  0.72210  0.43375  0.45903  1.0000
  C   C1383     1.0  0.66411  0.48642  0.32893  1.0000
  H   H2444     1.0  0.66262  0.41187  0.40342  1.0000
  H   H2445     1.0  0.69787  0.61210  0.36733  1.0000
  H   H2446     1.0  0.72039  0.33277  0.14552  1.0000
  H   H2447     1.0  0.66666  0.33781  0.16999  1.0000
  H   H2448     1.0  0.64678  0.48167  0.30413  1.0000
  H   H2449     1.0  0.72595  0.45607  0.46501  1.0000
  H   H2450     1.0  0.62248  0.44839  0.33520  1.0000
  H   H2451     1.0  0.72447  0.39118  0.34298  1.0000
  H   H2452     1.0  0.71780  0.53530  0.41471  1.0000
  C   C1384     1.0  0.69061  0.62453  0.22517  1.0000
  C   C1385     1.0  0.72164  0.39629  0.39607  1.0000
  C   C1386     1.0  0.51676  0.62681  0.27714  1.0000
  H   H2453     1.0  0.72505  0.57626  0.27049  1.0000
  C   C1387     1.0  0.67347  0.37109  0.46714  1.0000
  H   H2454     1.0  0.63329  0.43738  0.40177  1.0000
  H   H2455     1.0  0.72768  0.61723  0.31967  1.0000
  C   C1388     1.0  0.69721  0.59485  0.23721  1.0000
  H   H2456     1.0  0.63383  0.43839  0.28205  1.0000
  H   H2457     1.0  0.65087  0.45926  0.27206  1.0000
  Fe  Fe154     1.0  0.48844  0.59507  0.38595  1.0000
  H   H2458     1.0  0.51622  0.58723  0.30924  1.0000
  H   H2459     1.0  0.72439  0.41121  0.34392  1.0000
  C   C1389     1.0  0.70419  0.40849  0.46434  1.0000
  H   H2460     1.0  0.50502  0.63542  0.48420  1.0000
  H   H2461     1.0  0.64813  0.44807  0.22202  1.0000
  C   C1390     1.0  0.55028  0.32156  0.47876  1.0000
  H   H2462     1.0  0.69307  0.32422  0.41155  1.0000
  H   H2463     1.0  0.67793  0.61152  0.38919  1.0000
  H   H2464     1.0  0.67549  0.48069  0.33699  1.0000
  C   C1391     1.0  0.66403  0.63832  0.25033  1.0000
  C   C1392     1.0  0.65694  0.62895  0.23076  1.0000
  C   C1393     1.0  0.69148  0.58923  0.37669  1.0000
  C   C1394     1.0  0.52159  0.59733  0.29463  1.0000
  H   H2465     1.0  0.52236  0.55383  0.42821  1.0000
  H   H2466     1.0  0.70563  0.58924  0.41555  1.0000
  C   C1395     1.0  0.63927  0.63134  0.24166  1.0000
  H   H2467     1.0  0.65955  0.55922  0.40331  1.0000
  H   H2468     1.0  0.63754  0.32626  0.21838  1.0000
  H   H2469     1.0  0.66652  0.47304  0.28814  1.0000
  C   C1396     1.0  0.69059  0.32283  0.44097  1.0000
  H   H2470     1.0  0.71282  0.62745  0.10245  1.0000
  H   H2471     1.0  0.70959  0.43657  0.47052  1.0000
  Fe  Fe155     1.0  0.58812  0.62947  0.36544  1.0000
  H   H2472     1.0  0.65574  0.48987  0.35250  1.0000
  H   H2473     1.0  0.66172  0.63296  0.27896  1.0000
  C   C1397     1.0  0.69441  0.57137  0.48923  1.0000
  H   H2474     1.0  0.66150  0.61629  0.23763  1.0000
  H   H2475     1.0  0.68606  0.62210  0.20313  1.0000
  N   N78       1.0  0.70116  0.56588  0.42386  1.0000
  H   H2476     1.0  0.66545  0.54076  0.43106  1.0000
  H   H2477     1.0  0.50422  0.59343  0.47965  1.0000
  H   H2478     1.0  0.61320  0.32698  0.21852  1.0000
  C   C1398     1.0  0.72624  0.40772  0.41504  1.0000
  N   N79       1.0  0.50565  0.64224  0.27161  1.0000
  H   H2479     1.0  0.56058  0.33792  0.43571  1.0000
  H   H2480     1.0  0.70091  0.58535  0.35528  1.0000
  H   H2481     1.0  0.70273  0.62626  0.21347  1.0000
  H   H2482     1.0  0.63450  0.62441  0.22766  1.0000
  H   H2483     1.0  0.63608  0.62737  0.27066  1.0000
  H   H2484     1.0  0.63389  0.64381  0.23479  1.0000
  C   C1399     1.0  0.69997  0.36011  0.47587  1.0000
  H   H2485     1.0  0.68600  0.63121  0.29161  1.0000
  H   H2486     1.0  0.62727  0.46519  0.30579  1.0000
  C   C1400     1.0  0.64581  0.43337  0.39218  1.0000
  C   C1401     1.0  0.55016  0.59182  0.46963  1.0000
  H   H2487     1.0  0.50541  0.63958  0.21798  1.0000
  N   N80       1.0  0.64669  0.45015  0.32857  1.0000
  C   C1402     1.0  0.65620  0.46003  0.33837  1.0000
  C   C1403     1.0  0.64887  0.43417  0.35147  1.0000
  C   C1404     1.0  0.65312  0.44801  0.29058  1.0000
  C   C1405     1.0  0.62963  0.45751  0.33126  1.0000
  S   S313      1.0  0.59748  0.62004  0.48901  1.0000
  C   C1406     1.0  0.65800  0.47550  0.31236  1.0000
  C   C1407     1.0  0.64674  0.43603  0.27701  1.0000
  C   C1408     1.0  0.72763  0.38876  0.47158  1.0000
  H   H2488     1.0  0.64759  0.41617  0.44036  1.0000
  H   H2489     1.0  0.64530  0.35007  0.45030  1.0000
  H   H2490     1.0  0.66852  0.57305  0.44098  1.0000
  H   H2491     1.0  0.56902  0.31783  0.43380  1.0000
  H   H2492     1.0  0.50049  0.63833  0.32905  1.0000
  C   C1409     1.0  0.69619  0.58331  0.41386  1.0000
  H   H2493     1.0  0.71164  0.35455  0.46572  1.0000
  H   H2494     1.0  0.73364  0.51747  0.18597  1.0000
  H   H2495     1.0  0.49063  0.63230  0.24983  1.0000
  H   H2496     1.0  0.61679  0.34585  0.47050  1.0000
  H   H2497     1.0  0.49696  0.62413  0.46194  1.0000
  H   H2498     1.0  0.63003  0.60236  0.47475  1.0000
  C   C1410     1.0  0.70458  0.56158  0.46138  1.0000
  H   H2499     1.0  0.72057  0.54946  0.29695  1.0000
  H   H2500     1.0  0.71668  0.56278  0.46157  1.0000
  C   C1411     1.0  0.62267  0.34842  0.44259  1.0000
  H   H2501     1.0  0.73440  0.53970  0.35579  1.0000
  H   H2502     1.0  0.61750  0.34297  0.42608  1.0000
  H   H2503     1.0  0.64315  0.40901  0.40477  1.0000
  H   H2504     1.0  0.68187  0.57320  0.48860  1.0000
  H   H2505     1.0  0.68062  0.60875  0.27192  1.0000
  C   C1412     1.0  0.66266  0.32063  0.44254  1.0000
  C   C1413     1.0  0.68011  0.47535  0.47625  1.0000
  H   H2506     1.0  0.62303  0.37208  0.44794  1.0000
  H   H2507     1.0  0.72599  0.63389  0.03890  1.0000
  C   C1414     1.0  0.72523  0.54416  0.40947  1.0000
  H   H2508     1.0  0.67586  0.32255  0.30740  1.0000
  H   H2509     1.0  0.63066  0.58182  0.47809  1.0000
  H   H2510     1.0  0.69771  0.58302  0.48397  1.0000
  H   H2511     1.0  0.67184  0.32814  0.48329  1.0000
  H   H2512     1.0  0.72425  0.56901  0.39591  1.0000
  C   C1415     1.0  0.72873  0.41609  0.46882  1.0000
  H   H2513     1.0  0.73043  0.63562  0.21769  1.0000
  H   H2514     1.0  0.50403  0.61290  0.32294  1.0000
  H   H2515     1.0  0.53695  0.55852  0.48877  1.0000
  H   H2516     1.0  0.54088  0.63490  0.44336  1.0000
  H   H2517     1.0  0.71360  0.63975  0.13281  1.0000
  H   H2518     1.0  0.52154  0.59830  0.45358  1.0000
  C   C1416     1.0  0.73065  0.44350  0.47311  1.0000
  N   N81       1.0  0.68109  0.63908  0.23818  1.0000
  C   C1417     1.0  0.73094  0.32667  0.15694  1.0000
  C   C1418     1.0  0.52784  0.56836  0.47955  1.0000
  H   H2519     1.0  0.61465  0.32067  0.30100  1.0000
  H   H2520     1.0  0.59804  0.32387  0.17500  1.0000
  C   C1419     1.0  0.51573  0.59558  0.48159  1.0000
  H   H2521     1.0  0.64013  0.32910  0.27614  1.0000
  C   C1420     1.0  0.67349  0.32925  0.45407  1.0000
  H   H2522     1.0  0.49096  0.31817  0.19398  1.0000
  C   C1421     1.0  0.49709  0.64205  0.24244  1.0000
  C   C1422     1.0  0.68767  0.64098  0.26917  1.0000
  C   C1423     1.0  0.71941  0.63563  0.10759  1.0000
  H   H2523     1.0  0.50711  0.54445  0.45577  1.0000
  C   C1424     1.0  0.72966  0.64444  0.04257  1.0000
  H   H2524     1.0  0.70046  0.64045  0.26164  1.0000
  H   H2525     1.0  0.62421  0.31775  0.45603  1.0000
  H   H2526     1.0  0.69439  0.31960  0.25024  1.0000
  H   H2527     1.0  0.67452  0.48786  0.47226  1.0000
  H   H2528     1.0  0.57335  0.58037  0.48002  1.0000
  H   H2529     1.0  0.70243  0.64284  0.02420  1.0000
  S   S314      1.0  0.58861  0.64545  0.40198  1.0000
  C   C1425     1.0  0.73138  0.33213  0.30407  1.0000
  H   H2530     1.0  0.69213  0.33013  0.31262  1.0000
  H   H2531     1.0  0.67116  0.34181  0.44272  1.0000
  C   C1426     1.0  0.72183  0.51199  0.48312  1.0000
  H   H2532     1.0  0.63711  0.32691  0.38922  1.0000
  C   C1427     1.0  0.64574  0.31789  0.20273  1.0000
  C   C1428     1.0  0.73364  0.34377  0.27441  1.0000
  C   C1429     1.0  0.61095  0.31527  0.21891  1.0000
  H   H2533     1.0  0.68402  0.31601  0.34757  1.0000
  H   H2534     1.0  0.67118  0.46819  0.48953  1.0000
  C   C1430     1.0  0.72402  0.39295  0.73582  1.0000
  C   C1431     1.0  0.64140  0.33579  0.72376  1.0000
  H   H2535     1.0  0.59124  0.58206  0.64215  1.0000
  H   H2536     1.0  0.50968  0.56721  0.61060  1.0000
  S   S315      1.0  0.69874  0.50848  0.72270  1.0000
  H   H2537     1.0  0.60169  0.59533  0.65132  1.0000
  C   C1432     1.0  0.66309  0.63312  0.75357  1.0000
  S   S316      1.0  0.70125  0.50369  0.64194  1.0000
  H   H2538     1.0  0.51752  0.59494  0.75180  1.0000
  Fe  Fe156     1.0  0.69300  0.52353  0.67189  1.0000
  S   S317      1.0  0.66909  0.53745  0.66450  1.0000
  Fe  Fe157     1.0  0.70882  0.48911  0.69126  1.0000
  S   S318      1.0  0.70091  0.46576  0.71249  1.0000
  C   C1433     1.0  0.73427  0.33230  0.74476  1.0000
  H   H2539     1.0  0.72221  0.47768  0.59197  1.0000
  Fe  Fe158     1.0  0.70545  0.36300  0.59164  1.0000
  S   S319      1.0  0.68753  0.38104  0.61742  1.0000
  S   S320      1.0  0.71150  0.35985  0.53471  1.0000
  Fe  Fe159     1.0  0.71932  0.34882  0.65857  1.0000
  S   S321      1.0  0.70275  0.36563  0.69018  1.0000
  H   H2540     1.0  0.57140  0.60885  0.54698  1.0000
  Fe  Fe160     1.0  0.68475  0.36088  0.66291  1.0000
  S   S322      1.0  0.66238  0.35484  0.69724  1.0000
  Fe  Fe161     1.0  0.70690  0.38432  0.64230  1.0000
  S   S323      1.0  0.71655  0.40660  0.63558  1.0000
  S   S324      1.0  0.70124  0.34283  0.63495  1.0000
  S   S325      1.0  0.72492  0.36753  0.61285  1.0000
  Fe  Fe162     1.0  0.60051  0.63950  0.69462  1.0000
  S   S326      1.0  0.61658  0.62047  0.66808  1.0000
  C   C1434     1.0  0.56376  0.60861  0.57315  1.0000
  Fe  Fe163     1.0  0.63179  0.61950  0.70759  1.0000
  S   S327      1.0  0.64699  0.59813  0.73276  1.0000
  C   C1435     1.0  0.63141  0.63597  0.51652  1.0000
  S   S328      1.0  0.61488  0.63693  0.73775  1.0000
  H   H2541     1.0  0.65466  0.59564  0.50118  1.0000
  S   S329      1.0  0.53035  0.60259  0.66662  1.0000
  C   C1436     1.0  0.56198  0.63217  0.69038  1.0000
  C   C1437     1.0  0.54594  0.63808  0.69143  1.0000
  C   C1438     1.0  0.53610  0.62933  0.68384  1.0000
  C   C1439     1.0  0.54214  0.61442  0.67571  1.0000
  C   C1440     1.0  0.55819  0.60860  0.67432  1.0000
  C   C1441     1.0  0.56806  0.61743  0.68140  1.0000
  H   H2542     1.0  0.56963  0.61280  0.59060  1.0000
  C   C1442     1.0  0.52365  0.56196  0.56022  1.0000
  H   H2543     1.0  0.56303  0.59708  0.66820  1.0000
  H   H2544     1.0  0.58030  0.61270  0.68076  1.0000
  H   H2545     1.0  0.65273  0.55923  0.85141  1.0000
  H   H2546     1.0  0.70010  0.39569  0.51907  1.0000
  C   C1443     1.0  0.51279  0.55763  0.59493  1.0000
  H   H2547     1.0  0.50199  0.55513  0.58951  1.0000
  C   C1444     1.0  0.69342  0.64324  0.86738  1.0000
  C   C1445     1.0  0.66313  0.55540  0.67937  1.0000
  C   C1446     1.0  0.67397  0.56368  0.68329  1.0000
  C   C1447     1.0  0.66889  0.57737  0.69792  1.0000
  C   C1448     1.0  0.65298  0.58296  0.70802  1.0000
  C   C1449     1.0  0.64212  0.57508  0.70247  1.0000
  C   C1450     1.0  0.64720  0.56131  0.68820  1.0000
  H   H2548     1.0  0.68627  0.55931  0.67592  1.0000
  H   H2549     1.0  0.67727  0.58347  0.70225  1.0000
  H   H2550     1.0  0.62982  0.57923  0.71068  1.0000
  H   H2551     1.0  0.63878  0.55493  0.68515  1.0000
  C   C1451     1.0  0.70501  0.44964  0.69012  1.0000
  C   C1452     1.0  0.71781  0.44757  0.66297  1.0000
  C   C1453     1.0  0.72115  0.43423  0.64695  1.0000
  C   C1454     1.0  0.71160  0.42299  0.65732  1.0000
  C   C1455     1.0  0.69875  0.42505  0.68442  1.0000
  C   C1456     1.0  0.69557  0.43826  0.70093  1.0000
  H   H2552     1.0  0.52381  0.31741  0.51738  1.0000
  C   C1457     1.0  0.69296  0.47256  0.49824  1.0000
  H   H2553     1.0  0.69131  0.41648  0.69277  1.0000
  H   H2554     1.0  0.68570  0.43971  0.72212  1.0000
  H   H2555     1.0  0.51362  0.63278  0.81701  1.0000
  C   C1458     1.0  0.64226  0.32547  0.66063  1.0000
  C   C1459     1.0  0.65199  0.33587  0.66165  1.0000
  C   C1460     1.0  0.65148  0.34113  0.69337  1.0000
  H   H2556     1.0  0.72183  0.40263  0.75092  1.0000
  H   H2557     1.0  0.73451  0.53315  0.81329  1.0000
  H   H2558     1.0  0.55567  0.59044  0.61522  1.0000
  H   H2559     1.0  0.65957  0.34011  0.63783  1.0000
  H   H2560     1.0  0.73565  0.38063  0.67865  1.0000
  C   C1461     1.0  0.67023  0.63278  0.78593  1.0000
  H   H2561     1.0  0.55011  0.33614  0.58269  1.0000
  C   C1462     1.0  0.67144  0.60464  0.60199  1.0000
  H   H2562     1.0  0.65182  0.51817  0.74749  1.0000
  C   C1463     1.0  0.69928  0.51982  0.52629  1.0000
  H   H2563     1.0  0.66044  0.53551  0.59651  1.0000
  C   C1464     1.0  0.64225  0.55465  0.57895  1.0000
  H   H2564     1.0  0.50243  0.60971  0.52134  1.0000
  H   H2565     1.0  0.72001  0.62317  0.83664  1.0000
  C   C1465     1.0  0.70889  0.51936  0.55058  1.0000
  H   H2566     1.0  0.73609  0.59766  0.82666  1.0000
  H   H2567     1.0  0.57029  0.32906  0.58553  1.0000
  C   C1466     1.0  0.66976  0.37428  0.50180  1.0000
  H   H2568     1.0  0.60887  0.62995  0.59787  1.0000
  C   C1467     1.0  0.69643  0.36363  0.51012  1.0000
  H   H2569     1.0  0.67845  0.37323  0.54990  1.0000
  H   H2570     1.0  0.72772  0.41306  0.49821  1.0000
  H   H2571     1.0  0.65544  0.56407  0.60551  1.0000
  H   H2572     1.0  0.72420  0.45748  0.58870  1.0000
  H   H2573     1.0  0.70380  0.52267  0.57605  1.0000
  H   H2574     1.0  0.73168  0.42260  0.72020  1.0000
  C   C1468     1.0  0.61342  0.58341  0.60717  1.0000
  H   H2575     1.0  0.68681  0.52304  0.53373  1.0000
  H   H2576     1.0  0.60763  0.59259  0.58767  1.0000
  H   H2577     1.0  0.57467  0.58471  0.59016  1.0000
  S   S330      1.0  0.63796  0.64121  0.57731  1.0000
  H   H2578     1.0  0.73126  0.43259  0.62641  1.0000
  S   S331      1.0  0.48794  0.59201  0.70209  1.0000
  C   C1469     1.0  0.50815  0.60102  0.77043  1.0000
  H   H2579     1.0  0.59354  0.62117  0.56303  1.0000
  H   H2580     1.0  0.54811  0.57293  0.51377  1.0000
  H   H2581     1.0  0.69568  0.39813  0.77887  1.0000
  C   C1470     1.0  0.69687  0.56361  0.52690  1.0000
  H   H2582     1.0  0.64524  0.54929  0.82523  1.0000
  C   C1471     1.0  0.63219  0.32021  0.69148  1.0000
  H   H2583     1.0  0.51139  0.59782  0.79725  1.0000
  C   C1472     1.0  0.54736  0.61894  0.57166  1.0000
  H   H2584     1.0  0.72288  0.59497  0.80067  1.0000
  H   H2585     1.0  0.67442  0.40569  0.49731  1.0000
  N   N82       1.0  0.49030  0.64506  0.77339  1.0000
  C   C1473     1.0  0.65117  0.56746  0.57974  1.0000
  C   C1474     1.0  0.68664  0.47773  0.53486  1.0000
  H   H2586     1.0  0.69214  0.37857  0.78929  1.0000
  C   C1475     1.0  0.60390  0.62560  0.54978  1.0000
  H   H2587     1.0  0.66794  0.58115  0.61296  1.0000
  C   C1476     1.0  0.51606  0.57705  0.53747  1.0000
  H   H2588     1.0  0.64673  0.53002  0.57612  1.0000
  H   H2589     1.0  0.66191  0.56644  0.55934  1.0000
  C   C1477     1.0  0.69788  0.53072  0.83800  1.0000
  H   H2590     1.0  0.64068  0.33989  0.74821  1.0000
  C   C1478     1.0  0.72820  0.64090  0.89736  1.0000
  H   H2591     1.0  0.73244  0.63887  0.97682  1.0000
  N   N83       1.0  0.52504  0.58129  0.50078  1.0000
  C   C1479     1.0  0.72378  0.60052  0.82277  1.0000
  H   H2592     1.0  0.65899  0.64527  0.74095  1.0000
  H   H2593     1.0  0.71713  0.36989  0.74956  1.0000
  C   C1480     1.0  0.51219  0.61043  0.49850  1.0000
  H   H2594     1.0  0.52387  0.63410  0.68444  1.0000
  H   H2595     1.0  0.65808  0.37982  0.51180  1.0000
  C   C1481     1.0  0.61272  0.63036  0.56968  1.0000
  C   C1482     1.0  0.50626  0.61860  0.75766  1.0000
  C   C1483     1.0  0.62973  0.58652  0.60766  1.0000
  H   H2596     1.0  0.66356  0.59266  0.55119  1.0000
  H   H2597     1.0  0.51746  0.62197  0.75746  1.0000
  C   C1484     1.0  0.68433  0.64364  0.83764  1.0000
  H   H2598     1.0  0.52654  0.55191  0.54616  1.0000
  H   H2599     1.0  0.70349  0.57006  0.70854  1.0000
  C   C1485     1.0  0.73147  0.51148  0.50764  1.0000
  C   C1486     1.0  0.63752  0.57394  0.81734  1.0000
  C   C1487     1.0  0.71862  0.61820  0.81426  1.0000
  H   H2600     1.0  0.49468  0.62303  0.80951  1.0000
  C   C1488     1.0  0.62649  0.63554  0.55305  1.0000
  H   H2601     1.0  0.66137  0.54037  0.54888  1.0000
  S   S332      1.0  0.73270  0.49522  0.67842  1.0000
  H   H2602     1.0  0.51859  0.54704  0.61113  1.0000
  H   H2603     1.0  0.49719  0.59701  0.77124  1.0000
  H   H2604     1.0  0.55515  0.63724  0.61052  1.0000
  H   H2605     1.0  0.67466  0.47543  0.54392  1.0000
  C   C1489     1.0  0.60297  0.58386  0.64340  1.0000
  C   C1490     1.0  0.52052  0.64302  0.58869  1.0000
  H   H2606     1.0  0.69873  0.32815  0.76131  1.0000
  H   H2607     1.0  0.64179  0.58482  0.81611  1.0000
  H   H2608     1.0  0.53959  0.61223  0.56509  1.0000
  H   H2609     1.0  0.70770  0.64643  0.97646  1.0000
  H   H2610     1.0  0.64246  0.32165  0.63613  1.0000
  C   C1491     1.0  0.69797  0.38700  0.76873  1.0000
  H   H2611     1.0  0.52709  0.64271  0.60982  1.0000
  C   C1492     1.0  0.65018  0.55964  0.82468  1.0000
  C   C1493     1.0  0.67517  0.33712  0.78590  1.0000
  H   H2612     1.0  0.60792  0.57454  0.66388  1.0000
  C   C1494     1.0  0.56280  0.59157  0.58828  1.0000
  C   C1495     1.0  0.67988  0.35294  0.77990  1.0000
  H   H2613     1.0  0.65170  0.59498  0.63039  1.0000
  H   H2614     1.0  0.69282  0.38903  0.74431  1.0000
  H   H2615     1.0  0.63411  0.55263  0.60442  1.0000
  H   H2616     1.0  0.70196  0.41551  0.51646  1.0000
  H   H2617     1.0  0.58072  0.64481  0.59292  1.0000
  H   H2618     1.0  0.70942  0.56108  0.52887  1.0000
  H   H2619     1.0  0.69450  0.61563  0.82873  1.0000
  C   C1496     1.0  0.65343  0.53922  0.57487  1.0000
  H   H2620     1.0  0.51405  0.64794  0.75185  1.0000
  C   C1497     1.0  0.70162  0.62267  0.80719  1.0000
  C   C1498     1.0  0.63203  0.32533  0.72292  1.0000
  H   H2621     1.0  0.66347  0.33910  0.77854  1.0000
  H   H2622     1.0  0.67408  0.33227  0.81465  1.0000
  C   C1499     1.0  0.66080  0.59292  0.60693  1.0000
  C   C1500     1.0  0.65360  0.59461  0.57317  1.0000
  H   H2623     1.0  0.61403  0.57200  0.59987  1.0000
  H   H2624     1.0  0.69173  0.35161  0.78591  1.0000
  H   H2625     1.0  0.67957  0.35884  0.75206  1.0000
  H   H2626     1.0  0.67153  0.36040  0.79750  1.0000
  H   H2627     1.0  0.53586  0.64499  0.78316  1.0000
  H   H2628     1.0  0.66478  0.61674  0.59722  1.0000
  H   H2629     1.0  0.71442  0.52126  0.87387  1.0000
  S   S333      1.0  0.49694  0.60223  0.61732  1.0000
  H   H2630     1.0  0.71805  0.46794  0.52461  1.0000
  H   H2631     1.0  0.57054  0.63675  0.54524  1.0000
  H   H2632     1.0  0.67438  0.63923  0.91138  1.0000
  H   H2633     1.0  0.71960  0.37752  0.78682  1.0000
  H   H2634     1.0  0.53933  0.59133  0.52487  1.0000
  H   H2635     1.0  0.62429  0.32145  0.74682  1.0000
  H   H2636     1.0  0.72669  0.62257  0.79035  1.0000
  H   H2637     1.0  0.63381  0.57433  0.79177  1.0000
  C   C1501     1.0  0.55107  0.63104  0.50946  1.0000
  H   H2638     1.0  0.63570  0.55765  0.55667  1.0000
  N   N84       1.0  0.64228  0.58402  0.57563  1.0000
  H   H2639     1.0  0.71769  0.55313  0.72114  1.0000
  H   H2640     1.0  0.49633  0.31980  0.54225  1.0000
  H   H2641     1.0  0.64865  0.51569  0.79528  1.0000
  H   H2642     1.0  0.53449  0.56366  0.56708  1.0000
  C   C1502     1.0  0.68126  0.37055  0.52336  1.0000
  H   H2643     1.0  0.69577  0.53082  0.89451  1.0000
  S   S334      1.0  0.64531  0.63699  0.67324  1.0000
  H   H2644     1.0  0.51450  0.58654  0.55294  1.0000
  C   C1503     1.0  0.49270  0.62750  0.78188  1.0000
  H   H2645     1.0  0.68529  0.31538  0.65682  1.0000
  C   C1504     1.0  0.54063  0.58413  0.50414  1.0000
  H   H2646     1.0  0.71279  0.64685  0.76267  1.0000
  C   C1505     1.0  0.63527  0.58876  0.54220  1.0000
  H   H2647     1.0  0.62753  0.59888  0.61159  1.0000
  H   H2648     1.0  0.71792  0.39753  0.71268  1.0000
  H   H2649     1.0  0.69842  0.46007  0.50116  1.0000
  H   H2650     1.0  0.62722  0.57341  0.83879  1.0000
  H   H2651     1.0  0.63371  0.57943  0.63217  1.0000
  H   H2652     1.0  0.67643  0.60307  0.62647  1.0000
  H   H2653     1.0  0.62916  0.60108  0.54022  1.0000
  N   N85       1.0  0.69666  0.47062  0.56288  1.0000
  H   H2654     1.0  0.71977  0.63616  0.91860  1.0000
  C   C1506     1.0  0.69051  0.47875  0.59451  1.0000
  C   C1507     1.0  0.71280  0.47398  0.54756  1.0000
  C   C1508     1.0  0.69767  0.45319  0.57392  1.0000
  C   C1509     1.0  0.68333  0.44648  0.57212  1.0000
  C   C1510     1.0  0.55901  0.32545  0.58775  1.0000
  C   C1511     1.0  0.70474  0.53135  0.87009  1.0000
  C   C1512     1.0  0.67399  0.47689  0.61464  1.0000
  C   C1513     1.0  0.66866  0.48676  0.64397  1.0000
  C   C1514     1.0  0.68454  0.42957  0.59109  1.0000
  H   H2655     1.0  0.66715  0.50732  0.77109  1.0000
  H   H2656     1.0  0.67456  0.62040  0.79645  1.0000
  H   H2657     1.0  0.67173  0.62707  0.73369  1.0000
  H   H2658     1.0  0.72909  0.44071  0.50253  1.0000
  H   H2659     1.0  0.69810  0.47432  0.61498  1.0000
  H   H2660     1.0  0.69071  0.49144  0.58624  1.0000
  H   H2661     1.0  0.71221  0.48661  0.53689  1.0000
  H   H2662     1.0  0.68449  0.32951  0.73552  1.0000
  H   H2663     1.0  0.70776  0.44675  0.55744  1.0000
  H   H2664     1.0  0.70014  0.44947  0.60148  1.0000
  H   H2665     1.0  0.68252  0.44669  0.54415  1.0000
  H   H2666     1.0  0.67226  0.45315  0.58430  1.0000
  Fe  Fe164     1.0  0.72416  0.51131  0.63057  1.0000
  H   H2667     1.0  0.70736  0.53088  0.81475  1.0000
  C   C1515     1.0  0.64189  0.32445  0.49521  1.0000
  H   H2668     1.0  0.50403  0.62087  0.73010  1.0000
  H   H2669     1.0  0.66527  0.48057  0.59680  1.0000
  H   H2670     1.0  0.67403  0.46460  0.62777  1.0000
  H   H2671     1.0  0.65678  0.48527  0.65785  1.0000
  H   H2672     1.0  0.67656  0.48302  0.66384  1.0000
  H   H2673     1.0  0.66837  0.49931  0.63274  1.0000
  H   H2674     1.0  0.69539  0.42222  0.57955  1.0000
  H   H2675     1.0  0.68444  0.42879  0.61982  1.0000
  H   H2676     1.0  0.67445  0.42489  0.58841  1.0000
  H   H2677     1.0  0.69397  0.51941  0.84284  1.0000
  H   H2678     1.0  0.51567  0.63215  0.59499  1.0000
  C   C1516     1.0  0.68319  0.64275  0.77639  1.0000
  C   C1517     1.0  0.68689  0.32587  0.76321  1.0000
  H   H2679     1.0  0.54256  0.62034  0.59947  1.0000
  H   H2680     1.0  0.71872  0.57170  0.73032  1.0000
  H   H2681     1.0  0.68114  0.60290  0.57939  1.0000
  H   H2682     1.0  0.52228  0.61209  0.50829  1.0000
  H   H2683     1.0  0.65032  0.31932  0.56186  1.0000
  C   C1518     1.0  0.60857  0.62643  0.51307  1.0000
  H   H2684     1.0  0.64785  0.60703  0.56670  1.0000
  N   N86       1.0  0.67789  0.54631  0.79835  1.0000
  C   C1519     1.0  0.69047  0.54854  0.76630  1.0000
  C   C1520     1.0  0.67198  0.53180  0.79834  1.0000
  C   C1521     1.0  0.66508  0.56053  0.79617  1.0000
  C   C1522     1.0  0.68406  0.54444  0.83223  1.0000
  H   H2685     1.0  0.70946  0.54220  0.86580  1.0000
  C   C1523     1.0  0.70034  0.56089  0.76538  1.0000
  H   H2686     1.0  0.54378  0.62309  0.50610  1.0000
  C   C1524     1.0  0.66326  0.53256  0.76755  1.0000
  C   C1525     1.0  0.65739  0.51748  0.77073  1.0000
  H   H2687     1.0  0.67117  0.53427  0.74173  1.0000
  C   C1526     1.0  0.71066  0.56411  0.72914  1.0000
  H   H2688     1.0  0.68532  0.55187  0.74186  1.0000
  H   H2689     1.0  0.69862  0.53738  0.76294  1.0000
  H   H2690     1.0  0.68185  0.52173  0.79648  1.0000
  H   H2691     1.0  0.66433  0.52843  0.82396  1.0000
  H   H2692     1.0  0.66159  0.56340  0.76961  1.0000
  H   H2693     1.0  0.66930  0.57098  0.79843  1.0000
  H   H2694     1.0  0.68748  0.55542  0.83414  1.0000
  H   H2695     1.0  0.67479  0.54241  0.85561  1.0000
  S   S335      1.0  0.71550  0.53229  0.65758  1.0000
  Fe  Fe165     1.0  0.50430  0.60659  0.66521  1.0000
  H   H2696     1.0  0.69293  0.57212  0.77070  1.0000
  H   H2697     1.0  0.70807  0.55671  0.78552  1.0000
  H   H2698     1.0  0.71660  0.59563  0.84766  1.0000
  H   H2699     1.0  0.62612  0.58211  0.54301  1.0000
  H   H2700     1.0  0.65303  0.54219  0.76710  1.0000
  H   H2701     1.0  0.72533  0.45607  0.65492  1.0000
  H   H2702     1.0  0.53603  0.32154  0.55947  1.0000
  H   H2703     1.0  0.69053  0.57143  0.54595  1.0000
  C   C1527     1.0  0.72467  0.46928  0.57335  1.0000
  N   N87       1.0  0.69399  0.63978  0.80300  1.0000
  H   H2704     1.0  0.72466  0.34169  0.73948  1.0000
  H   H2705     1.0  0.73105  0.33343  0.80053  1.0000
  H   H2706     1.0  0.67610  0.63548  0.84869  1.0000
  H   H2707     1.0  0.50401  0.57615  0.53622  1.0000
  H   H2708     1.0  0.69237  0.55255  0.53462  1.0000
  H   H2709     1.0  0.64228  0.63959  0.50377  1.0000
  H   H2710     1.0  0.70003  0.63136  0.87499  1.0000
  H   H2711     1.0  0.67630  0.42524  0.49883  1.0000
  Fe  Fe166     1.0  0.72217  0.51577  0.70670  1.0000
  H   H2712     1.0  0.68918  0.64754  0.92141  1.0000
  C   C1528     1.0  0.69735  0.40775  0.50441  1.0000
  H   H2713     1.0  0.56469  0.32160  0.53459  1.0000
  C   C1529     1.0  0.72499  0.51472  0.54185  1.0000
  H   H2714     1.0  0.68514  0.49068  0.53002  1.0000
  C   C1530     1.0  0.67966  0.41272  0.51009  1.0000
  S   S336      1.0  0.57380  0.64346  0.70134  1.0000
  H   H2715     1.0  0.52347  0.64109  0.53439  1.0000
  H   H2716     1.0  0.70211  0.61795  0.78272  1.0000
  H   H2717     1.0  0.55763  0.58665  0.57081  1.0000
  C   C1531     1.0  0.71545  0.38057  0.76100  1.0000
  H   H2718     1.0  0.65355  0.57528  0.50739  1.0000
  H   H2719     1.0  0.56328  0.62487  0.50387  1.0000
  H   H2720     1.0  0.67489  0.41087  0.53893  1.0000
  H   H2721     1.0  0.72546  0.38758  0.50101  1.0000
  N   N88       1.0  0.54687  0.63446  0.54689  1.0000
  C   C1532     1.0  0.62236  0.63163  0.49649  1.0000
  C   C1533     1.0  0.64666  0.58725  0.50675  1.0000
  S   S337      1.0  0.48754  0.62926  0.66743  1.0000
  H   H2722     1.0  0.69910  0.32219  0.82486  1.0000
  H   H2723     1.0  0.62910  0.32621  0.50467  1.0000
  S   S338      1.0  0.73009  0.52141  0.75402  1.0000
  H   H2724     1.0  0.49735  0.64641  0.71645  1.0000
  C   C1534     1.0  0.51161  0.64561  0.80888  1.0000
  H   H2725     1.0  0.65298  0.62710  0.76174  1.0000
  C   C1535     1.0  0.55632  0.64749  0.58926  1.0000
  H   H2726     1.0  0.69006  0.64098  0.74977  1.0000
  H   H2727     1.0  0.53197  0.64684  0.82926  1.0000
  C   C1536     1.0  0.53062  0.64420  0.55103  1.0000
  H   H2728     1.0  0.55577  0.31924  0.61517  1.0000
  Fe  Fe167     1.0  0.62871  0.63963  0.63609  1.0000
  H   H2729     1.0  0.66080  0.63748  0.80648  1.0000
  H   H2730     1.0  0.64569  0.33405  0.50317  1.0000
  C   C1537     1.0  0.55850  0.64327  0.55196  1.0000
  C   C1538     1.0  0.70567  0.51594  0.49275  1.0000
  H   H2731     1.0  0.54619  0.33021  0.49685  1.0000
  H   H2732     1.0  0.50848  0.55613  0.50618  1.0000
  H   H2733     1.0  0.56583  0.59819  0.49762  1.0000
  C   C1539     1.0  0.68237  0.64764  0.90074  1.0000
  H   H2734     1.0  0.71473  0.64783  0.80618  1.0000
  H   H2735     1.0  0.73048  0.82944  0.22225  1.0000
  H   H2736     1.0  0.70874  0.80296  0.25144  1.0000
  C   C1540     1.0  0.68314  0.66716  0.14602  1.0000
  C   C1541     1.0  0.53654  0.66782  0.22109  1.0000
  C   C1542     1.0  0.70301  0.65201  0.00020  1.0000
  H   H2737     1.0  0.67933  0.65155  0.99603  1.0000
  Fe  Fe168     1.0  0.71395  0.72408  0.22789  1.0000
  S   S339      1.0  0.70110  0.70613  0.26418  1.0000
  C   C1543     1.0  0.71452  0.84037  0.16884  1.0000
  Fe  Fe169     1.0  0.70203  0.71975  0.16160  1.0000
  S   S340      1.0  0.68810  0.70186  0.19331  1.0000
  S   S341      1.0  0.70566  0.72765  0.10115  1.0000
  Fe  Fe170     1.0  0.68125  0.71709  0.23491  1.0000
  S   S342      1.0  0.65665  0.72206  0.26520  1.0000
  Fe  Fe171     1.0  0.70878  0.69224  0.22019  1.0000
  C   C1544     1.0  0.71933  0.80275  0.26198  1.0000
  S   S343      1.0  0.69344  0.73627  0.20105  1.0000
  S   S344      1.0  0.72338  0.70892  0.18608  1.0000
  H   H2738     1.0  0.70236  0.80062  0.33065  1.0000
  H   H2739     1.0  0.72458  0.68244  0.15996  1.0000
  C   C1545     1.0  0.68633  0.66019  0.99696  1.0000
  S   S345      1.0  0.61108  0.67732  0.35743  1.0000
  H   H2740     1.0  0.70776  0.65498  0.07441  1.0000
  C   C1546     1.0  0.68549  0.70255  0.05364  1.0000
  H   H2741     1.0  0.68084  0.66611  0.02001  1.0000
  H   H2742     1.0  0.67662  0.66397  0.21832  1.0000
  C   C1547     1.0  0.64480  0.70853  0.28947  1.0000
  C   C1548     1.0  0.62986  0.71462  0.30579  1.0000
  C   C1549     1.0  0.61981  0.70479  0.32568  1.0000
  C   C1550     1.0  0.62443  0.68861  0.32980  1.0000
  C   C1551     1.0  0.63940  0.68227  0.31350  1.0000
  C   C1552     1.0  0.64961  0.69225  0.29328  1.0000
  H   H2743     1.0  0.62599  0.72711  0.30295  1.0000
  H   H2744     1.0  0.60828  0.70982  0.33789  1.0000
  H   H2745     1.0  0.64304  0.66978  0.31678  1.0000
  H   H2746     1.0  0.66113  0.68750  0.28070  1.0000
  C   C1553     1.0  0.69948  0.71974  0.06961  1.0000
  C   C1554     1.0  0.70382  0.72537  0.03321  1.0000
  C   C1555     1.0  0.69040  0.70816  0.07968  1.0000
  H   H2747     1.0  0.72497  0.84190  0.14826  1.0000
  H   H2748     1.0  0.68698  0.70371  0.10753  1.0000
  H   H2749     1.0  0.72540  0.65789  0.08524  1.0000
  H   H2750     1.0  0.72146  0.79114  0.27901  1.0000
  C   C1556     1.0  0.58153  0.67249  0.46775  1.0000
  H   H2751     1.0  0.62701  0.70628  0.46238  1.0000
  H   H2752     1.0  0.67740  0.67837  0.15502  1.0000
  Fe  Fe172     1.0  0.61023  0.65164  0.36609  1.0000
  H   H2753     1.0  0.69595  0.66637  0.14133  1.0000
  H   H2754     1.0  0.64568  0.68411  0.45163  1.0000
  N   N89       1.0  0.72944  0.65660  0.00928  1.0000
  C   C1557     1.0  0.73642  0.76558  0.31744  1.0000
  H   H2755     1.0  0.52101  0.65485  0.28438  1.0000
  H   H2756     1.0  0.72426  0.81414  0.30207  1.0000
  H   H2757     1.0  0.71779  0.81586  0.17051  1.0000
  H   H2758     1.0  0.69745  0.82117  0.33186  1.0000
  C   C1558     1.0  0.61299  0.72352  0.40687  1.0000
  H   H2759     1.0  0.61015  0.70041  0.40704  1.0000
  C   C1559     1.0  0.72090  0.75175  0.29457  1.0000
  H   H2760     1.0  0.73111  0.77914  0.15493  1.0000
  H   H2761     1.0  0.65785  0.66012  0.38026  1.0000
  H   H2762     1.0  0.52837  0.67911  0.21647  1.0000
  H   H2763     1.0  0.65692  0.65031  0.24882  1.0000
  H   H2764     1.0  0.70979  0.74888  0.29466  1.0000
  H   H2765     1.0  0.63010  0.70295  0.40131  1.0000
  C   C1560     1.0  0.71310  0.66367  0.00259  1.0000
  H   H2766     1.0  0.68373  0.66647  0.26591  1.0000
  C   C1561     1.0  0.63968  0.66966  0.42011  1.0000
  C   C1562     1.0  0.71489  0.81502  0.28681  1.0000
  H   H2767     1.0  0.61226  0.66275  0.47255  1.0000
  H   H2768     1.0  0.70553  0.82288  0.20917  1.0000
  C   C1563     1.0  0.73004  0.67036  0.16169  1.0000
  H   H2769     1.0  0.63437  0.65914  0.42509  1.0000
  H   H2770     1.0  0.53844  0.65347  0.48296  1.0000
  H   H2771     1.0  0.67831  0.69375  0.06175  1.0000
  H   H2772     1.0  0.69025  0.81356  0.30073  1.0000
  H   H2773     1.0  0.60689  0.70642  0.47089  1.0000
  C   C1564     1.0  0.68055  0.65607  0.28480  1.0000
  H   H2774     1.0  0.72109  0.68060  0.05208  1.0000
  H   H2775     1.0  0.73166  0.76720  0.02233  1.0000
  C   C1565     1.0  0.61813  0.70073  0.45659  1.0000
  H   H2776     1.0  0.55153  0.65008  0.42145  1.0000
  C   C1566     1.0  0.68655  0.65570  0.31875  1.0000
  C   C1567     1.0  0.65685  0.66500  0.40464  1.0000
  H   H2777     1.0  0.50770  0.66664  0.25747  1.0000
  C   C1568     1.0  0.52797  0.65420  0.22822  1.0000
  C   C1569     1.0  0.70032  0.81240  0.31409  1.0000
  H   H2778     1.0  0.70643  0.67046  0.02338  1.0000
  H   H2779     1.0  0.61360  0.72698  0.37770  1.0000
  H   H2780     1.0  0.62073  0.72969  0.41513  1.0000
  C   C1570     1.0  0.48740  0.66073  0.31340  1.0000
  H   H2781     1.0  0.70426  0.84283  0.15541  1.0000
  C   C1571     1.0  0.72268  0.78412  0.20861  1.0000
  H   H2782     1.0  0.54567  0.66700  0.19707  1.0000
  H   H2783     1.0  0.73209  0.70387  0.04366  1.0000
  H   H2784     1.0  0.71778  0.76719  0.18222  1.0000
  N   N90       1.0  0.62120  0.68343  0.47040  1.0000
  C   C1572     1.0  0.60939  0.67549  0.46265  1.0000
  H   H2785     1.0  0.71247  0.82699  0.27154  1.0000
  C   C1573     1.0  0.73084  0.81980  0.20806  1.0000
  H   H2786     1.0  0.71807  0.77749  0.23465  1.0000
  H   H2787     1.0  0.71111  0.73404  0.02517  1.0000
  H   H2788     1.0  0.56928  0.67654  0.47976  1.0000
  H   H2789     1.0  0.71372  0.78036  0.01511  1.0000
  H   H2790     1.0  0.55921  0.65171  0.47633  1.0000
  H   H2791     1.0  0.67960  0.66720  0.12048  1.0000
  H   H2792     1.0  0.64191  0.66558  0.47433  1.0000
  H   H2793     1.0  0.71302  0.79322  0.19980  1.0000
  S   S346      1.0  0.71632  0.66630  0.23163  1.0000
  C   C1574     1.0  0.63750  0.67594  0.45527  1.0000
  H   H2794     1.0  0.63418  0.67828  0.39959  1.0000
  H   H2795     1.0  0.60988  0.67657  0.43372  1.0000
  C   C1575     1.0  0.72210  0.76156  0.31735  1.0000
  C   C1576     1.0  0.68330  0.65302  0.20934  1.0000
  H   H2796     1.0  0.71265  0.84892  0.18688  1.0000
  C   C1577     1.0  0.73402  0.74594  0.27127  1.0000
  H   H2797     1.0  0.71180  0.76626  0.33468  1.0000
  C   C1578     1.0  0.68962  0.70838  0.01729  1.0000
  N   N91       1.0  0.73316  0.80433  0.23263  1.0000
  C   C1579     1.0  0.72851  0.68367  0.02621  1.0000
  H   H2798     1.0  0.69574  0.65416  0.20340  1.0000
  S   S347      1.0  0.73324  0.73417  0.24053  1.0000
  C   C1580     1.0  0.61815  0.70587  0.41628  1.0000
  C   C1581     1.0  0.71640  0.82375  0.18975  1.0000
  H   H2799     1.0  0.60080  0.72720  0.41987  1.0000
  C   C1582     1.0  0.72686  0.65976  0.19292  1.0000
  H   H2800     1.0  0.66291  0.65600  0.42398  1.0000
  H   H2801     1.0  0.72440  0.68779  0.30787  1.0000
  C   C1583     1.0  0.59217  0.68115  0.47859  1.0000
  H   H2802     1.0  0.58241  0.67480  0.43841  1.0000
  H   H2803     1.0  0.71382  0.75986  0.03182  1.0000
  H   H2804     1.0  0.69941  0.65454  0.31325  1.0000
  S   S348      1.0  0.73686  0.77963  0.34324  1.0000
  C   C1584     1.0  0.69895  0.71972  0.00721  1.0000
  H   H2805     1.0  0.49642  0.66587  0.32000  1.0000
  H   H2806     1.0  0.58842  0.69376  0.46902  1.0000
  H   H2807     1.0  0.52285  0.65483  0.20442  1.0000
  H   H2808     1.0  0.58475  0.65973  0.47702  1.0000
  C   C1585     1.0  0.72040  0.76840  0.01344  1.0000
  H   H2809     1.0  0.66255  0.67533  0.39734  1.0000
  C   C1586     1.0  0.67830  0.65341  0.17365  1.0000
  H   H2810     1.0  0.66544  0.65506  0.17729  1.0000
  C   C1587     1.0  0.51518  0.65495  0.26178  1.0000
  H   H2811     1.0  0.54226  0.66751  0.24386  1.0000
  C   C1588     1.0  0.72764  0.77285  0.18216  1.0000
  H   H2812     1.0  0.68143  0.66678  0.32881  1.0000
  H   H2813     1.0  0.73380  0.66095  0.29983  1.0000
  H   H2814     1.0  0.66771  0.65757  0.29118  1.0000
  H   H2815     1.0  0.72084  0.69082  0.00752  1.0000
  H   H2816     1.0  0.48767  0.65500  0.17662  1.0000
  H   H2817     1.0  0.48984  0.66744  0.22604  1.0000
  C   C1589     1.0  0.73675  0.68263  0.30959  1.0000
  C   C1590     1.0  0.73665  0.79094  0.21229  1.0000
  C   C1591     1.0  0.71993  0.64956  0.07721  1.0000
  Fe  Fe173     1.0  0.67860  0.70089  0.85689  1.0000
  S   S349      1.0  0.69298  0.68605  0.89671  1.0000
  S   S350      1.0  0.66191  0.68728  0.84475  1.0000
  Fe  Fe174     1.0  0.69424  0.72852  0.85449  1.0000
  S   S351      1.0  0.70965  0.71544  0.89364  1.0000
  S   S352      1.0  0.69633  0.75356  0.83053  1.0000
  Fe  Fe175     1.0  0.71292  0.69626  0.86292  1.0000
  H   H2818     1.0  0.69285  0.67171  0.80651  1.0000
  Fe  Fe176     1.0  0.68849  0.70644  0.92486  1.0000
  H   H2819     1.0  0.72696  0.75886  0.73845  1.0000
  S   S353      1.0  0.69915  0.70984  0.82104  1.0000
  S   S354      1.0  0.67241  0.72085  0.88776  1.0000
  H   H2820     1.0  0.64378  0.67612  0.52058  1.0000
  C   C1592     1.0  0.70606  0.64996  0.78839  1.0000
  H   H2821     1.0  0.70624  0.79751  0.93231  1.0000
  C   C1593     1.0  0.62868  0.68549  0.56431  1.0000
  H   H2822     1.0  0.71232  0.80708  0.74668  1.0000
  C   C1594     1.0  0.70797  0.76619  0.96276  1.0000
  H   H2823     1.0  0.71417  0.74752  0.89232  1.0000
  C   C1595     1.0  0.61972  0.68114  0.51033  1.0000
  H   H2824     1.0  0.53116  0.65672  0.54077  1.0000
  H   H2825     1.0  0.64317  0.66618  0.83856  1.0000
  C   C1596     1.0  0.71345  0.67663  0.77052  1.0000
  H   H2826     1.0  0.69251  0.76924  0.88851  1.0000
  H   H2827     1.0  0.72759  0.79713  0.59054  1.0000
  Fe  Fe177     1.0  0.62786  0.65471  0.70102  1.0000
  C   C1597     1.0  0.69994  0.66781  0.78204  1.0000
  H   H2828     1.0  0.66887  0.75746  0.89655  1.0000
  C   C1598     1.0  0.50467  0.65100  0.77435  1.0000
  H   H2829     1.0  0.71636  0.77810  0.87170  1.0000
  C   C1599     1.0  0.73059  0.76063  0.70919  1.0000
  C   C1600     1.0  0.65599  0.68357  0.80698  1.0000
  H   H2830     1.0  0.70736  0.75210  0.68019  1.0000
  C   C1601     1.0  0.70701  0.79571  0.90479  1.0000
  C   C1602     1.0  0.64525  0.67720  0.74893  1.0000
  C   C1603     1.0  0.65479  0.68834  0.74380  1.0000
  C   C1604     1.0  0.66023  0.69143  0.77250  1.0000
  H   H2831     1.0  0.57217  0.66406  0.57228  1.0000
  N   N92       1.0  0.70898  0.76574  0.92403  1.0000
  H   H2832     1.0  0.65786  0.69476  0.71741  1.0000
  H   H2833     1.0  0.66741  0.70013  0.76804  1.0000
  C   C1605     1.0  0.71532  0.75743  0.81483  1.0000
  H   H2834     1.0  0.61875  0.69513  0.56966  1.0000
  H   H2835     1.0  0.70598  0.79570  0.64050  1.0000
  H   H2836     1.0  0.72737  0.80673  0.88553  1.0000
  C   C1606     1.0  0.71114  0.78475  0.70734  1.0000
  C   C1607     1.0  0.72340  0.76538  0.97534  1.0000
  H   H2837     1.0  0.68129  0.74064  0.76644  1.0000
  H   H2838     1.0  0.61896  0.66882  0.52251  1.0000
  H   H2839     1.0  0.72453  0.80136  0.67013  1.0000
  H   H2840     1.0  0.72794  0.77844  0.90268  1.0000
  H   H2841     1.0  0.54113  0.64950  0.69817  1.0000
  C   C1608     1.0  0.63307  0.68510  0.52453  1.0000
  C   C1609     1.0  0.71575  0.77906  0.89992  1.0000
  H   H2842     1.0  0.70300  0.75621  0.97965  1.0000
  H   H2843     1.0  0.68491  0.77774  0.92717  1.0000
  S   S355      1.0  0.68306  0.70100  0.98555  1.0000
  C   C1610     1.0  0.71904  0.78972  0.59144  1.0000
  H   H2844     1.0  0.70197  0.77871  0.62922  1.0000
  C   C1611     1.0  0.68421  0.75344  0.93535  1.0000
  H   H2845     1.0  0.63873  0.68731  0.57431  1.0000
  C   C1612     1.0  0.71136  0.78487  0.62974  1.0000
  H   H2846     1.0  0.72114  0.67300  0.74631  1.0000
  H   H2847     1.0  0.48972  0.67459  0.72646  1.0000
  H   H2848     1.0  0.71886  0.66462  0.90347  1.0000
  H   H2849     1.0  0.67674  0.65532  0.83331  1.0000
  H   H2850     1.0  0.60871  0.68830  0.52192  1.0000
  C   C1613     1.0  0.71448  0.81080  0.71742  1.0000
  H   H2851     1.0  0.72676  0.73346  0.82522  1.0000
  H   H2852     1.0  0.69073  0.74243  0.92669  1.0000
  H   H2853     1.0  0.69512  0.79794  0.89852  1.0000
  H   H2854     1.0  0.49065  0.66821  0.66765  1.0000
  H   H2855     1.0  0.70842  0.78167  0.73667  1.0000
  C   C1614     1.0  0.69259  0.76732  0.91754  1.0000
  H   H2856     1.0  0.72036  0.67449  0.79214  1.0000
  H   H2857     1.0  0.49892  0.65501  0.61603  1.0000
  C   C1615     1.0  0.72751  0.65703  0.88838  1.0000
  H   H2858     1.0  0.69282  0.67131  0.76067  1.0000
  C   C1616     1.0  0.69859  0.75396  0.73568  1.0000
  C   C1617     1.0  0.68508  0.74573  0.73826  1.0000
  S   S356      1.0  0.63819  0.67433  0.71178  1.0000
  H   H2859     1.0  0.59035  0.67890  0.50802  1.0000
  C   C1618     1.0  0.64659  0.67232  0.81206  1.0000
  H   H2860     1.0  0.50035  0.65825  0.56865  1.0000
  H   H2861     1.0  0.69979  0.79085  0.69944  1.0000
  H   H2862     1.0  0.70754  0.78223  0.80163  1.0000
  C   C1619     1.0  0.71751  0.77280  0.80148  1.0000
  H   H2863     1.0  0.67692  0.65506  0.77283  1.0000
  C   C1620     1.0  0.64133  0.66908  0.78330  1.0000
  H   H2864     1.0  0.70895  0.81980  0.88330  1.0000
  H   H2865     1.0  0.66227  0.74629  0.93897  1.0000
  H   H2866     1.0  0.68267  0.75172  0.96468  1.0000
  H   H2867     1.0  0.69387  0.76925  0.68720  1.0000
  H   H2868     1.0  0.51132  0.66776  0.58841  1.0000
  H   H2869     1.0  0.70332  0.81665  0.70840  1.0000
  H   H2870     1.0  0.72500  0.77936  0.57919  1.0000
  C   C1621     1.0  0.66803  0.75631  0.92569  1.0000
  H   H2871     1.0  0.73415  0.78786  0.77692  1.0000
  H   H2872     1.0  0.69448  0.76299  0.75277  1.0000
  H   H2873     1.0  0.67503  0.75409  0.72864  1.0000
  H   H2874     1.0  0.63592  0.69656  0.51108  1.0000
  H   H2875     1.0  0.67537  0.65952  0.89483  1.0000
  H   H2876     1.0  0.71349  0.67236  0.97744  1.0000
  C   C1622     1.0  0.70424  0.76138  0.69674  1.0000
  H   H2877     1.0  0.72236  0.81937  0.71074  1.0000
  C   C1623     1.0  0.72201  0.79683  0.69901  1.0000
  H   H2878     1.0  0.72727  0.76329  0.64035  1.0000
  C   C1624     1.0  0.71831  0.75038  0.91462  1.0000
  H   H2879     1.0  0.55810  0.65447  0.53297  1.0000
  H   H2880     1.0  0.62545  0.67431  0.57922  1.0000
  H   H2881     1.0  0.68871  0.73615  0.72255  1.0000
  H   H2882     1.0  0.50229  0.66393  0.77009  1.0000
  N   N93       1.0  0.71734  0.77020  0.69125  1.0000
  H   H2883     1.0  0.71010  0.79664  0.57561  1.0000
  H   H2884     1.0  0.70798  0.74514  0.74681  1.0000
  H   H2885     1.0  0.71639  0.74075  0.93733  1.0000
  H   H2886     1.0  0.56765  0.65782  0.61966  1.0000
  H   H2887     1.0  0.72869  0.73786  0.69794  1.0000
  C   C1625     1.0  0.57008  0.65396  0.59353  1.0000
  C   C1626     1.0  0.72828  0.74535  0.81507  1.0000
  H   H2888     1.0  0.66072  0.76702  0.93461  1.0000
  C   C1627     1.0  0.72331  0.77410  0.65204  1.0000
  S   S357      1.0  0.61211  0.65887  0.66025  1.0000
  H   H2889     1.0  0.69963  0.77668  0.97033  1.0000
  H   H2890     1.0  0.63394  0.66057  0.78786  1.0000
  H   H2891     1.0  0.73389  0.77936  0.64721  1.0000
  H   H2892     1.0  0.54581  0.65668  0.59328  1.0000
  C   C1628     1.0  0.73254  0.77602  0.78742  1.0000
  H   H2893     1.0  0.68615  0.66894  0.97218  1.0000
  H   H2894     1.0  0.70882  0.68932  0.76448  1.0000
  H   H2895     1.0  0.70240  0.72405  0.97941  1.0000
  H   H2896     1.0  0.52606  0.66341  0.79648  1.0000
  C   C1629     1.0  0.50697  0.65686  0.59046  1.0000
  H   H2897     1.0  0.73320  0.79163  0.70833  1.0000
  C   C1630     1.0  0.71548  0.80796  0.87975  1.0000
  C   C1631     1.0  0.73614  0.74921  0.90199  1.0000
  C   C1632     1.0  0.52731  0.65055  0.80402  1.0000
  H   H2898     1.0  0.73008  0.77412  0.95852  1.0000
  H   H2899     1.0  0.50377  0.65115  0.83055  1.0000
  H   H2900     1.0  0.71637  0.80680  0.85166  1.0000
  H   H2901     1.0  0.73057  0.75352  0.97527  1.0000
  H   H2902     1.0  0.70147  0.65162  0.85897  1.0000
  H   H2903     1.0  0.73682  0.65709  0.95282  1.0000
  H   H2904     1.0  0.76205  0.16340  0.17846  1.0000
  S   S358      1.0  0.96552  0.10772  0.15779  1.0000
  S   S359      1.0  0.97820  0.06303  0.15062  1.0000
  Fe  Fe178     1.0  0.97839  0.11279  0.19600  1.0000
  S   S360      1.0  0.96524  0.11874  0.24874  1.0000
  C   C1633     1.0  0.92347  0.13638  0.40126  1.0000
  Fe  Fe179     1.0  0.89947  0.03225  0.17218  1.0000
  S   S361      1.0  0.88048  0.04585  0.14241  1.0000
  S   S362      1.0  0.90989  0.04776  0.19608  1.0000
  S   S363      1.0  0.87304  0.01248  0.13525  1.0000
  Fe  Fe180     1.0  0.88919  0.02858  0.10538  1.0000
  S   S364      1.0  0.89395  0.03644  0.04593  1.0000
  Fe  Fe181     1.0  0.86614  0.02865  0.17502  1.0000
  S   S365      1.0  0.84126  0.03478  0.20320  1.0000
  S   S366      1.0  0.90937  0.01625  0.13248  1.0000
  S   S367      1.0  0.88458  0.01572  0.20702  1.0000
  Fe  Fe182     1.0  0.79457  0.11345  0.26681  1.0000
  S   S368      1.0  0.77609  0.10317  0.30777  1.0000
  S   S369      1.0  0.81208  0.10476  0.22068  1.0000
  Fe  Fe183     1.0  0.78698  0.14386  0.29569  1.0000
  S   S370      1.0  0.76822  0.13617  0.33899  1.0000
  S   S371      1.0  0.79261  0.16768  0.28970  1.0000
  Fe  Fe184     1.0  0.78451  0.11325  0.34691  1.0000
  S   S372      1.0  0.79007  0.09980  0.40030  1.0000
  Fe  Fe185     1.0  0.76116  0.12706  0.29675  1.0000
  H   H2905     1.0  0.86850  0.27434  0.26178  1.0000
  S   S373      1.0  0.80403  0.12163  0.30686  1.0000
  S   S374      1.0  0.77885  0.13652  0.25287  1.0000
  H   H2906     1.0  0.85494  0.15904  0.20303  1.0000
  H   H2907     1.0  0.96166  0.05969  0.08120  1.0000
  Fe  Fe186     1.0  0.87093  0.16715  0.32301  1.0000
  S   S375      1.0  0.87589  0.18875  0.28556  1.0000
  S   S376      1.0  0.86295  0.14892  0.30418  1.0000
  Fe  Fe187     1.0  0.88268  0.17503  0.38336  1.0000
  S   S377      1.0  0.88873  0.19742  0.35068  1.0000
  S   S378      1.0  0.88752  0.16381  0.43828  1.0000
  Fe  Fe188     1.0  0.86570  0.20045  0.33285  1.0000
  S   S379      1.0  0.84671  0.22184  0.33392  1.0000
  Fe  Fe189     1.0  0.89835  0.18343  0.30660  1.0000
  S   S380      1.0  0.92147  0.18367  0.26954  1.0000
  S   S381      1.0  0.85901  0.17896  0.36909  1.0000
  S   S382      1.0  0.89389  0.16099  0.34059  1.0000
  H   H2908     1.0  0.94099  0.03493  0.08573  1.0000
  H   H2909     1.0  0.94132  0.18276  0.32381  1.0000
  H   H2910     1.0  0.83708  0.00883  0.15906  1.0000
  C   C1634     1.0  0.88215  0.19212  0.46010  1.0000
  H   H2911     1.0  0.84421  0.14697  0.42660  1.0000
  H   H2912     1.0  0.84601  0.00220  0.11747  1.0000
  H   H2913     1.0  0.97301  0.18910  0.27444  1.0000
  H   H2914     1.0  0.87994  0.19739  0.43367  1.0000
  C   C1635     1.0  0.95667  0.05542  0.03177  1.0000
  S   S383      1.0  0.82828  0.25998  0.18817  1.0000
  C   C1636     1.0  0.78240  0.28799  0.00218  1.0000
  C   C1637     1.0  0.83273  0.24881  0.22876  1.0000
  C   C1638     1.0  0.84691  0.23829  0.22892  1.0000
  C   C1639     1.0  0.85109  0.22960  0.26097  1.0000
  C   C1640     1.0  0.84127  0.23171  0.29315  1.0000
  C   C1641     1.0  0.82709  0.24229  0.29300  1.0000
  C   C1642     1.0  0.82272  0.25068  0.26085  1.0000
  H   H2915     1.0  0.85481  0.23698  0.20425  1.0000
  H   H2916     1.0  0.86217  0.22171  0.26085  1.0000
  H   H2917     1.0  0.81948  0.24399  0.31785  1.0000
  H   H2918     1.0  0.85801  0.05794  0.03921  1.0000
  H   H2919     1.0  0.85598  0.00764  0.03051  1.0000
  H   H2920     1.0  0.83537  0.15826  0.19986  1.0000
  H   H2921     1.0  0.89038  0.07344  0.26323  1.0000
  H   H2922     1.0  0.78597  0.05274  0.14866  1.0000
  C   C1643     1.0  0.93199  0.05939  0.00881  1.0000
  H   H2923     1.0  0.92045  0.12851  0.42671  1.0000
  H   H2924     1.0  0.74935  0.16415  0.29918  1.0000
  H   H2925     1.0  0.90019  0.99068  0.09679  1.0000
  C   C1644     1.0  0.83299  0.12169  0.46891  1.0000
  C   C1645     1.0  0.78453  0.10893  0.43812  1.0000
  H   H2926     1.0  0.80946  0.29521  0.22585  1.0000
  C   C1646     1.0  0.96956  0.12427  0.04129  1.0000
  H   H2927     1.0  0.84809  0.16639  0.16135  1.0000
  C   C1647     1.0  0.81267  0.16430  0.28860  1.0000
  C   C1648     1.0  0.82202  0.15153  0.27472  1.0000
  C   C1649     1.0  0.83757  0.14698  0.27905  1.0000
  C   C1650     1.0  0.84395  0.15559  0.29610  1.0000
  C   C1651     1.0  0.83496  0.16916  0.30744  1.0000
  C   C1652     1.0  0.81922  0.17346  0.30398  1.0000
  H   H2928     1.0  0.81721  0.14502  0.26084  1.0000
  H   H2929     1.0  0.84455  0.13673  0.26936  1.0000
  H   H2930     1.0  0.83992  0.17605  0.32001  1.0000
  H   H2931     1.0  0.81205  0.18343  0.31456  1.0000
  H   H2932     1.0  0.84184  0.06819  0.34315  1.0000
  C   C1653     1.0  0.87295  0.01992  0.03732  1.0000
  H   H2933     1.0  0.76708  0.21029  0.17186  1.0000
  C   C1654     1.0  0.81902  0.11453  0.49124  1.0000
  H   H2934     1.0  0.85889  0.08351  0.05261  1.0000
  Fe  Fe190     1.0  0.89264  0.00084  0.16446  1.0000
  H   H2935     1.0  0.97320  0.16812  0.37167  1.0000
  C   C1655     1.0  0.83245  0.05430  0.20618  1.0000
  C   C1656     1.0  0.81882  0.05752  0.23098  1.0000
  C   C1657     1.0  0.81216  0.07298  0.23543  1.0000
  C   C1658     1.0  0.81894  0.08527  0.21449  1.0000
  C   C1659     1.0  0.83195  0.08205  0.18816  1.0000
  C   C1660     1.0  0.83887  0.06663  0.18447  1.0000
  H   H2936     1.0  0.81365  0.04803  0.24754  1.0000
  H   H2937     1.0  0.80190  0.07537  0.25521  1.0000
  H   H2938     1.0  0.83708  0.09154  0.17147  1.0000
  H   H2939     1.0  0.84925  0.06431  0.16510  1.0000
  C   C1661     1.0  0.88328  0.02995  0.02086  1.0000
  H   H2940     1.0  0.77368  0.22736  0.17520  1.0000
  H   H2941     1.0  0.87182  0.01568  0.06534  1.0000
  C   C1662     1.0  0.95267  0.13672  0.25220  1.0000
  C   C1663     1.0  0.94167  0.13787  0.28322  1.0000
  C   C1664     1.0  0.93178  0.15206  0.28801  1.0000
  C   C1665     1.0  0.93294  0.16540  0.26223  1.0000
  C   C1666     1.0  0.94390  0.16425  0.23093  1.0000
  C   C1667     1.0  0.95367  0.14990  0.22574  1.0000
  H   H2942     1.0  0.94094  0.12774  0.30389  1.0000
  H   H2943     1.0  0.92379  0.15273  0.31245  1.0000
  H   H2944     1.0  0.94495  0.17451  0.21081  1.0000
  H   H2945     1.0  0.96221  0.14912  0.20176  1.0000
  H   H2946     1.0  0.97046  0.10339  0.08079  1.0000
  C   C1668     1.0  0.95911  0.05901  0.16311  1.0000
  C   C1669     1.0  0.94717  0.06854  0.18223  1.0000
  C   C1670     1.0  0.93213  0.06500  0.19187  1.0000
  C   C1671     1.0  0.92884  0.05200  0.18212  1.0000
  C   C1672     1.0  0.94076  0.04246  0.16298  1.0000
  C   C1673     1.0  0.95588  0.04583  0.15405  1.0000
  H   H2947     1.0  0.94971  0.07840  0.19024  1.0000
  H   H2948     1.0  0.92303  0.07228  0.20717  1.0000
  H   H2949     1.0  0.93844  0.03224  0.15602  1.0000
  H   H2950     1.0  0.96517  0.03814  0.14028  1.0000
  N   N94       1.0  0.91545  0.12213  0.20652  1.0000
  C   C1674     1.0  0.91513  0.13748  0.21712  1.0000
  C   C1675     1.0  0.92692  0.10963  0.22499  1.0000
  C   C1676     1.0  0.92152  0.12382  0.16701  1.0000
  C   C1677     1.0  0.89960  0.11766  0.21432  1.0000
  C   C1678     1.0  0.88811  0.12314  0.24715  1.0000
  C   C1679     1.0  0.90521  0.15187  0.19695  1.0000
  C   C1680     1.0  0.92405  0.10900  0.15024  1.0000
  C   C1681     1.0  0.92269  0.10536  0.26584  1.0000
  C   C1682     1.0  0.93498  0.09221  0.28082  1.0000
  C   C1683     1.0  0.87523  0.11361  0.25992  1.0000
  C   C1684     1.0  0.89956  0.16512  0.21818  1.0000
  C   C1685     1.0  0.92772  0.11283  0.10974  1.0000
  H   H2951     1.0  0.92716  0.13987  0.21243  1.0000
  H   H2952     1.0  0.91125  0.13709  0.24606  1.0000
  H   H2953     1.0  0.92841  0.09851  0.21541  1.0000
  H   H2954     1.0  0.93862  0.11294  0.21856  1.0000
  H   H2955     1.0  0.93280  0.12799  0.16054  1.0000
  H   H2956     1.0  0.91342  0.13288  0.15214  1.0000
  H   H2957     1.0  0.89338  0.12239  0.19137  1.0000
  H   H2958     1.0  0.90094  0.10478  0.21725  1.0000
  H   H2959     1.0  0.88249  0.13551  0.24020  1.0000
  H   H2960     1.0  0.89380  0.12235  0.27007  1.0000
  H   H2961     1.0  0.91237  0.15628  0.17146  1.0000
  H   H2962     1.0  0.89489  0.14894  0.19041  1.0000
  H   H2963     1.0  0.91367  0.10342  0.15790  1.0000
  H   H2964     1.0  0.93417  0.10042  0.15859  1.0000
  H   H2965     1.0  0.92173  0.11550  0.27874  1.0000
  H   H2966     1.0  0.91163  0.10094  0.27338  1.0000
  H   H2967     1.0  0.93589  0.08153  0.26976  1.0000
  H   H2968     1.0  0.94653  0.09567  0.27438  1.0000
  H   H2969     1.0  0.93176  0.08947  0.31013  1.0000
  H   H2970     1.0  0.86842  0.11474  0.23856  1.0000
  H   H2971     1.0  0.88030  0.10123  0.26853  1.0000
  H   H2972     1.0  0.86725  0.11785  0.28315  1.0000
  H   H2973     1.0  0.89263  0.16119  0.24437  1.0000
  H   H2974     1.0  0.90960  0.16944  0.22221  1.0000
  H   H2975     1.0  0.89212  0.17494  0.20345  1.0000
  H   H2976     1.0  0.91757  0.12046  0.09894  1.0000
  H   H2977     1.0  0.93791  0.11874  0.10104  1.0000
  H   H2978     1.0  0.93065  0.10191  0.09855  1.0000
  N   N95       1.0  0.86177  0.05962  0.28056  1.0000
  C   C1686     1.0  0.86807  0.06253  0.24129  1.0000
  C   C1687     1.0  0.86177  0.04243  0.29267  1.0000
  C   C1688     1.0  0.84499  0.06799  0.28578  1.0000
  C   C1689     1.0  0.86648  0.07995  0.22354  1.0000
  C   C1690     1.0  0.83562  0.06559  0.32410  1.0000
  C   C1691     1.0  0.87778  0.03136  0.29039  1.0000
  C   C1692     1.0  0.87584  0.01433  0.30037  1.0000
  C   C1693     1.0  0.87701  0.08228  0.18744  1.0000
  C   C1694     1.0  0.81957  0.07615  0.32637  1.0000
  H   H2979     1.0  0.86213  0.05680  0.22682  1.0000
  H   H2980     1.0  0.88044  0.05695  0.23560  1.0000
  H   H2981     1.0  0.85638  0.03997  0.32103  1.0000
  H   H2982     1.0  0.85452  0.03856  0.27745  1.0000
  H   H2983     1.0  0.83853  0.06449  0.26841  1.0000
  H   H2984     1.0  0.84423  0.08079  0.27750  1.0000
  H   H2985     1.0  0.85436  0.08478  0.21948  1.0000
  H   H2986     1.0  0.86921  0.08698  0.24049  1.0000
  H   H2987     1.0  0.83352  0.05349  0.33262  1.0000
  H   H2988     1.0  0.88476  0.03301  0.26339  1.0000
  C   C1695     1.0  0.76411  0.17217  0.19234  1.0000
  H   H2989     1.0  0.80192  0.17074  0.40616  1.0000
  H   H2990     1.0  0.86884  0.01167  0.28295  1.0000
  H   H2991     1.0  0.88745  0.00659  0.29719  1.0000
  H   H2992     1.0  0.87502  0.09479  0.17520  1.0000
  H   H2993     1.0  0.88943  0.07856  0.19034  1.0000
  H   H2994     1.0  0.87438  0.07553  0.16952  1.0000
  H   H2995     1.0  0.81233  0.07268  0.31077  1.0000
  H   H2996     1.0  0.81354  0.07519  0.35442  1.0000
  H   H2997     1.0  0.82055  0.08850  0.31603  1.0000
  N   N96       1.0  0.83203  0.12818  0.43027  1.0000
  C   C1696     1.0  0.84567  0.13630  0.41494  1.0000
  H   H2998     1.0  0.76575  0.21420  0.32085  1.0000
  C   C1697     1.0  0.83207  0.11498  0.41165  1.0000
  C   C1698     1.0  0.83909  0.11673  0.37140  1.0000
  C   C1699     1.0  0.86178  0.12631  0.42112  1.0000
  C   C1700     1.0  0.81353  0.14817  0.39197  1.0000
  H   H2999     1.0  0.75824  0.20263  0.07594  1.0000
  C   C1701     1.0  0.83680  0.10338  0.35563  1.0000
  C   C1702     1.0  0.87510  0.13344  0.39731  1.0000
  H   H3000     1.0  0.87404  0.14554  0.40139  1.0000
  H   H3001     1.0  0.84623  0.14071  0.38603  1.0000
  H   H3002     1.0  0.86299  0.28981  0.20441  1.0000
  H   H3003     1.0  0.88000  0.98677  0.05361  1.0000
  H   H3004     1.0  0.83868  0.10383  0.42436  1.0000
  H   H3005     1.0  0.82000  0.11285  0.41490  1.0000
  H   H3006     1.0  0.85178  0.11649  0.36696  1.0000
  H   H3007     1.0  0.83379  0.12778  0.35600  1.0000
  H   H3008     1.0  0.86301  0.11427  0.41633  1.0000
  H   H3009     1.0  0.82341  0.15323  0.37530  1.0000
  H   H3010     1.0  0.81063  0.13975  0.37843  1.0000
  C   C1703     1.0  0.94612  0.02458  0.03814  1.0000
  H   H3011     1.0  0.77570  0.16808  0.20050  1.0000
  C   C1704     1.0  0.93760  0.03779  0.05899  1.0000
  H   H3012     1.0  0.82424  0.10289  0.35997  1.0000
  H   H3013     1.0  0.84125  0.10524  0.32662  1.0000
  H   H3014     1.0  0.84316  0.09210  0.36813  1.0000
  H   H3015     1.0  0.98447  0.06379  0.03410  1.0000
  C   C1705     1.0  0.96470  0.15768  0.42407  1.0000
  C   C1706     1.0  0.96122  0.10669  0.99920  1.0000
  N   N97       1.0  0.81807  0.20635  0.19414  1.0000
  C   C1707     1.0  0.80498  0.21389  0.17388  1.0000
  C   C1708     1.0  0.83052  0.21618  0.18278  1.0000
  C   C1709     1.0  0.82418  0.19006  0.18648  1.0000
  C   C1710     1.0  0.81261  0.20538  0.23362  1.0000
  C   C1711     1.0  0.80286  0.22054  0.24600  1.0000
  C   C1712     1.0  0.79062  0.20587  0.18326  1.0000
  C   C1713     1.0  0.83918  0.18137  0.20123  1.0000
  C   C1714     1.0  0.83915  0.21681  0.14381  1.0000
  C   C1715     1.0  0.85229  0.22600  0.13646  1.0000
  C   C1716     1.0  0.80003  0.21871  0.28641  1.0000
  C   C1717     1.0  0.77728  0.21609  0.16549  1.0000
  C   C1718     1.0  0.84468  0.16529  0.19062  1.0000
  H   H3016     1.0  0.80909  0.21422  0.14492  1.0000
  H   H3017     1.0  0.80103  0.22633  0.17691  1.0000
  H   H3018     1.0  0.82544  0.22846  0.18571  1.0000
  H   H3019     1.0  0.83933  0.21242  0.20067  1.0000
  H   H3020     1.0  0.82625  0.19004  0.15743  1.0000
  H   H3021     1.0  0.81526  0.18264  0.19808  1.0000
  H   H3022     1.0  0.80563  0.19604  0.24440  1.0000
  H   H3023     1.0  0.82278  0.20182  0.24767  1.0000
  H   H3024     1.0  0.79133  0.22347  0.23752  1.0000
  H   H3025     1.0  0.80880  0.23054  0.23496  1.0000
  H   H3026     1.0  0.79358  0.19456  0.17373  1.0000
  H   H3027     1.0  0.78634  0.20363  0.21221  1.0000
  H   H3028     1.0  0.83701  0.17973  0.23058  1.0000
  H   H3029     1.0  0.84888  0.18781  0.19110  1.0000
  H   H3030     1.0  0.84440  0.20504  0.13768  1.0000
  H   H3031     1.0  0.83107  0.22270  0.12503  1.0000
  H   H3032     1.0  0.85826  0.22629  0.10848  1.0000
  H   H3033     1.0  0.84760  0.23818  0.14066  1.0000
  H   H3034     1.0  0.86096  0.22046  0.15409  1.0000
  H   H3035     1.0  0.79375  0.20898  0.29869  1.0000
  H   H3036     1.0  0.81125  0.21634  0.29620  1.0000
  H   H3037     1.0  0.78086  0.21839  0.13618  1.0000
  H   H3038     1.0  0.79293  0.22964  0.29469  1.0000
  H   H3039     1.0  0.74174  0.28030  0.31363  1.0000
  H   H3040     1.0  0.93671  0.06117  0.09254  1.0000
  C   C1719     1.0  0.78075  0.26594  0.04999  1.0000
  H   H3041     1.0  0.74014  0.17852  0.21477  1.0000
  H   H3042     1.0  0.92484  0.19611  0.36027  1.0000
  H   H3043     1.0  0.73860  0.14446  0.16589  1.0000
  H   H3044     1.0  0.84684  0.20431  0.41886  1.0000
  H   H3045     1.0  0.87677  0.06981  0.05728  1.0000
  H   H3046     1.0  0.78740  0.29505  0.27816  1.0000
  C   C1720     1.0  0.93188  0.06488  0.06750  1.0000
  H   H3047     1.0  0.73745  0.31516  0.20702  1.0000
  C   C1721     1.0  0.79941  0.16140  0.39482  1.0000
  H   H3048     1.0  0.85746  0.26029  0.25847  1.0000
  C   C1722     1.0  0.86468  0.26886  0.24302  1.0000
  H   H3049     1.0  0.86308  0.07428  0.09632  1.0000
  H   H3050     1.0  0.96531  0.03931  0.07742  1.0000
  C   C1723     1.0  0.86420  0.07255  0.06857  1.0000
  C   C1724     1.0  0.87066  0.06552  0.30211  1.0000
  H   H3051     1.0  0.86562  0.07791  0.30441  1.0000
  Fe  Fe191     1.0  0.80337  0.27097  0.18360  1.0000
  H   H3052     1.0  0.90533  0.20763  0.40609  1.0000
  H   H3053     1.0  0.86266  0.04836  0.08195  1.0000
  H   H3054     1.0  0.83443  0.13090  0.48254  1.0000
  C   C1725     1.0  0.85642  0.05916  0.06740  1.0000
  H   H3055     1.0  0.82479  0.01914  0.08839  1.0000
  H   H3056     1.0  0.75932  0.25987  0.14671  1.0000
  H   H3057     1.0  0.81181  0.25884  0.26102  1.0000
  H   H3058     1.0  0.81509  0.02524  0.12973  1.0000
  S   S384      1.0  0.79044  0.26041  0.15454  1.0000
  H   H3059     1.0  0.89458  0.05342  0.28193  1.0000
  H   H3060     1.0  0.88434  0.03325  0.30965  1.0000
  C   C1726     1.0  0.82662  0.02184  0.11336  1.0000
  H   H3061     1.0  0.83887  0.06306  0.11262  1.0000
  H   H3062     1.0  0.83261  0.27944  0.24454  1.0000
  Fe  Fe192     1.0  0.98263  0.11936  0.11624  1.0000
  C   C1727     1.0  0.88839  0.06495  0.28808  1.0000
  C   C1728     1.0  0.91677  0.20116  0.41267  1.0000
  C   C1729     1.0  0.83902  0.06217  0.08467  1.0000
  C   C1730     1.0  0.83483  0.00679  0.13373  1.0000
  H   H3063     1.0  0.84324  0.04105  0.03689  1.0000
  C   C1731     1.0  0.90657  0.98820  0.07045  1.0000
  H   H3064     1.0  0.85345  0.27550  0.19728  1.0000
  C   C1732     1.0  0.96413  0.16089  0.38371  1.0000
  H   H3065     1.0  0.92441  0.20971  0.40982  1.0000
  H   H3066     1.0  0.94095  0.02571  0.01417  1.0000
  H   H3067     1.0  0.83342  0.07395  0.07254  1.0000
  H   H3068     1.0  0.85327  0.18389  0.46833  1.0000
  H   H3069     1.0  0.91134  0.05482  0.09517  1.0000
  H   H3070     1.0  0.86924  0.05905  0.32990  1.0000
  N   N98       1.0  0.82990  0.05006  0.08360  1.0000
  C   C1733     1.0  0.83135  0.04729  0.04624  1.0000
  C   C1734     1.0  0.83630  0.03493  0.10582  1.0000
  C   C1735     1.0  0.91401  0.06602  0.07915  1.0000
  H   H3071     1.0  0.84812  0.03006  0.09275  1.0000
  C   C1736     1.0  0.78672  0.10013  0.47160  1.0000
  H   H3072     1.0  0.90895  0.09015  0.08706  1.0000
  H   H3073     1.0  0.74321  0.17281  0.35423  1.0000
  H   H3074     1.0  0.87002  0.01176  0.32841  1.0000
  H   H3075     1.0  0.85052  0.21292  0.45306  1.0000
  C   C1737     1.0  0.78056  0.25663  0.02534  1.0000
  H   H3076     1.0  0.92875  0.16311  0.35890  1.0000
  H   H3077     1.0  0.82739  0.99783  0.14011  1.0000
  C   C1738     1.0  0.73771  0.13987  0.22259  1.0000
  S   S385      1.0  0.79783  0.29482  0.15162  1.0000
  H   H3078     1.0  0.93754  0.17434  0.42422  1.0000
  H   H3079     1.0  0.77003  0.21539  0.04554  1.0000
  H   H3080     1.0  0.74005  0.20044  0.32273  1.0000
  H   H3081     1.0  0.91494  0.19509  0.44070  1.0000
  H   H3082     1.0  0.77007  0.14432  0.46306  1.0000
  H   H3083     1.0  0.91921  0.98635  0.07071  1.0000
  C   C1739     1.0  0.82756  0.06192  0.01784  1.0000
  C   C1740     1.0  0.96386  0.10006  0.03367  1.0000
  H   H3084     1.0  0.81451  0.06773  0.14032  1.0000
  H   H3085     1.0  0.77988  0.24448  0.03439  1.0000
  H   H3086     1.0  0.93424  0.07686  0.05637  1.0000
  H   H3087     1.0  0.94919  0.00673  0.08507  1.0000
  C   C1741     1.0  0.75746  0.22171  0.30401  1.0000
  H   H3088     1.0  0.82352  0.03937  0.04546  1.0000
  H   H3089     1.0  0.83800  0.03690  0.13169  1.0000
  H   H3090     1.0  0.92509  0.03699  0.06404  1.0000
  C   C1742     1.0  0.75452  0.18507  0.24687  1.0000
  H   H3091     1.0  0.89084  0.08081  0.32100  1.0000
  C   C1743     1.0  0.81302  0.05575  0.09777  1.0000
  C   C1744     1.0  0.80931  0.05808  0.13713  1.0000
  H   H3092     1.0  0.80869  0.06722  0.08200  1.0000
  H   H3093     1.0  0.81378  0.04743  0.15516  1.0000
  H   H3094     1.0  0.76481  0.20994  0.25934  1.0000
  H   H3095     1.0  0.90348  0.99843  0.04977  1.0000
  C   C1745     1.0  0.92390  0.18944  0.38769  1.0000
  H   H3096     1.0  0.79139  0.08778  0.47403  1.0000
  H   H3097     1.0  0.78958  0.06416  0.17776  1.0000
  H   H3098     1.0  0.78672  0.07322  0.13331  1.0000
  C   C1746     1.0  0.79180  0.06230  0.14980  1.0000
  H   H3099     1.0  0.80569  0.04782  0.09439  1.0000
  C   C1747     1.0  0.83969  0.28876  0.23812  1.0000
  H   H3100     1.0  0.76405  0.18336  0.17350  1.0000
  H   H3101     1.0  0.87501  0.13342  0.36904  1.0000
  C   C1748     1.0  0.89627  0.06901  0.31498  1.0000
  C   C1749     1.0  0.77468  0.13196  0.46558  1.0000
  H   H3102     1.0  0.82902  0.29327  0.17596  1.0000
  H   H3103     1.0  0.91252  0.14368  0.39377  1.0000
  C   C1750     1.0  0.96816  0.10876  0.05451  1.0000
  C   C1751     1.0  0.79160  0.30413  0.28689  1.0000
  H   H3104     1.0  0.89541  0.06033  0.33991  1.0000
  H   H3105     1.0  0.90878  0.06886  0.30387  1.0000
  H   H3106     1.0  0.79651  0.16645  0.36804  1.0000
  C   C1752     1.0  0.78180  0.28164  0.03838  1.0000
  C   C1753     1.0  0.81711  0.14003  0.42913  1.0000
  Fe  Fe193     1.0  0.77698  0.29871  0.19417  1.0000
  H   H3107     1.0  0.84154  0.29041  0.26423  1.0000
  H   H3108     1.0  0.84558  0.30178  0.16790  1.0000
  C   C1754     1.0  0.77842  0.12488  0.43529  1.0000
  C   C1755     1.0  0.86411  0.01522  0.01743  1.0000
  H   H3109     1.0  0.87514  0.26253  0.22750  1.0000
  H   H3110     1.0  0.78016  0.26098  0.07784  1.0000
  H   H3111     1.0  0.95874  0.15968  0.30212  1.0000
  S   S386      1.0  0.75342  0.25139  0.22318  1.0000
  H   H3112     1.0  0.81556  0.10684  0.47678  1.0000
  H   H3113     1.0  0.77675  0.13179  0.40972  1.0000
  H   H3114     1.0  0.76584  0.17966  0.25577  1.0000
  H   H3115     1.0  0.75880  0.18964  0.30985  1.0000
  H   H3116     1.0  0.91567  0.18139  0.39121  1.0000
  C   C1756     1.0  0.94424  0.00867  0.06042  1.0000
  H   H3117     1.0  0.88640  0.12661  0.40401  1.0000
  H   H3118     1.0  0.75944  0.30255  0.27533  1.0000
  H   H3119     1.0  0.78912  0.15701  0.41164  1.0000
  H   H3120     1.0  0.75647  0.19596  0.22813  1.0000
  Fe  Fe194     1.0  0.77028  0.26702  0.19691  1.0000
  S   S387      1.0  0.76174  0.29047  0.16651  1.0000
  C   C1757     1.0  0.84245  0.20666  0.44632  1.0000
  H   H3121     1.0  0.74164  0.26815  0.01155  1.0000
  C   C1758     1.0  0.81376  0.30443  0.23413  1.0000
  C   C1759     1.0  0.74608  0.21911  0.03695  1.0000
  C   C1760     1.0  0.85553  0.28126  0.21790  1.0000
  Fe  Fe195     1.0  0.78308  0.28474  0.12626  1.0000
  C   C1761     1.0  0.97994  0.14704  0.43205  1.0000
  S   S388      1.0  0.78371  0.27561  0.22853  1.0000
  C   C1762     1.0  0.75824  0.21471  0.06129  1.0000
  H   H3122     1.0  0.96298  0.08805  0.04410  1.0000
  H   H3123     1.0  0.74657  0.22624  0.32127  1.0000
  H   H3124     1.0  0.91266  0.07589  0.12632  1.0000
  H   H3125     1.0  0.83077  0.21424  0.44691  1.0000
  H   H3126     1.0  0.95039  0.99935  0.04495  1.0000
  H   H3127     1.0  0.83335  0.18558  0.46434  1.0000
  H   H3128     1.0  0.86319  0.12562  0.44898  1.0000
  C   C1763     1.0  0.90717  0.07852  0.10225  1.0000
  H   H3129     1.0  0.89449  0.07882  0.11080  1.0000
  S   S389      1.0  0.78254  0.29373  0.06796  1.0000
  C   C1764     1.0  0.75231  0.31404  0.27498  1.0000
  H   H3130     1.0  0.81463  0.29105  0.28845  1.0000
  H   H3131     1.0  0.96402  0.16883  0.43309  1.0000
  H   H3132     1.0  0.90790  0.06895  0.05606  1.0000
  H   H3133     1.0  0.73937  0.14020  0.47275  1.0000
  C   C1765     1.0  0.93931  0.15716  0.37053  1.0000
  C   C1766     1.0  0.93419  0.14661  0.40593  1.0000
  H   H3134     1.0  0.95700  0.18847  0.33596  1.0000
  H   H3135     1.0  0.74843  0.13137  0.22167  1.0000
  H   H3136     1.0  0.98093  0.13547  0.42481  1.0000
  H   H3137     1.0  0.94597  0.14912  0.35219  1.0000
  C   C1767     1.0  0.74973  0.25374  0.15456  1.0000
  H   H3138     1.0  0.96843  0.14968  0.37356  1.0000
  N   N99       1.0  0.93973  0.05407  0.04139  1.0000
  H   H3139     1.0  0.92923  0.12918  0.38055  1.0000
  C   C1768     1.0  0.96600  0.05124  0.06269  1.0000
  H   H3140     1.0  0.95875  0.02457  0.03046  1.0000
  H   H3141     1.0  0.97501  0.16398  0.31542  1.0000
  H   H3142     1.0  0.88629  0.98781  0.99499  1.0000
  H   H3143     1.0  0.81512  0.06747  0.02354  1.0000
  H   H3144     1.0  0.75551  0.22266  0.08098  1.0000
  C   C1769     1.0  0.93992  0.18025  0.39625  1.0000
  C   C1770     1.0  0.96639  0.13112  0.00727  1.0000
  C   C1771     1.0  0.74858  0.19738  0.29914  1.0000
  H   H3145     1.0  0.94719  0.18886  0.39621  1.0000
  C   C1772     1.0  0.73871  0.17343  0.30098  1.0000
  N   N100      1.0  0.83091  0.30368  0.21940  1.0000
  H   H3146     1.0  0.93175  0.00785  0.06754  1.0000
  H   H3147     1.0  0.98023  0.14533  0.46086  1.0000
  H   H3148     1.0  0.73901  0.30824  0.32718  1.0000
  C   C1773     1.0  0.75398  0.21261  0.27865  1.0000
  H   H3149     1.0  0.92780  0.15353  0.42670  1.0000
  C   C1774     1.0  0.75130  0.17407  0.22466  1.0000
  S   S390      1.0  0.97553  0.13500  0.06692  1.0000
  C   C1775     1.0  0.88624  0.17595  0.46905  1.0000
  H   H3150     1.0  0.92767  0.07224  0.00484  1.0000
  N   N101      1.0  0.94876  0.16889  0.37214  1.0000
  H   H3151     1.0  0.74680  0.25509  0.10069  1.0000
  H   H3152     1.0  0.74906  0.21058  0.01870  1.0000
  C   C1776     1.0  0.83312  0.30350  0.18015  1.0000
  C   C1777     1.0  0.95219  0.17812  0.33511  1.0000
  H   H3153     1.0  0.75095  0.16235  0.24082  1.0000
  H   H3154     1.0  0.92146  0.05413  0.01259  1.0000
  H   H3155     1.0  0.84344  0.11231  0.47120  1.0000
  H   H3156     1.0  0.81688  0.14915  0.44477  1.0000
  C   C1778     1.0  0.74070  0.27128  0.29918  1.0000
  H   H3157     1.0  0.74401  0.24355  0.03630  1.0000
  H   H3158     1.0  0.82654  0.30661  0.11272  1.0000
  H   H3159     1.0  0.95502  0.15221  0.44037  1.0000
  C   C1779     1.0  0.96362  0.16918  0.30706  1.0000
  C   C1780     1.0  0.74261  0.25106  0.12845  1.0000
  C   C1781     1.0  0.84157  0.19130  0.47215  1.0000
  H   H3160     1.0  0.94450  0.13861  0.41513  1.0000
  H   H3161     1.0  0.80690  0.13450  0.44189  1.0000
  H   H3162     1.0  0.76272  0.23176  0.28860  1.0000
  Fe  Fe196     1.0  0.98369  0.08606  0.15554  1.0000
  C   C1782     1.0  0.80916  0.30262  0.27522  1.0000
  H   H3163     1.0  0.83478  0.07064  0.01662  1.0000
  H   H3164     1.0  0.95763  0.06753  0.01886  1.0000
  H   H3165     1.0  0.75775  0.23655  0.00112  1.0000
  C   C1783     1.0  0.74448  0.24837  0.19042  1.0000
  C   C1784     1.0  0.88081  0.20153  0.48551  1.0000
  H   H3166     1.0  0.95584  0.18589  0.26191  1.0000
  C   C1785     1.0  0.98316  0.05197  0.04900  1.0000
  H   H3167     1.0  0.96309  0.04818  0.01170  1.0000
  H   H3168     1.0  0.86080  0.31142  0.22369  1.0000
  H   H3169     1.0  0.96723  0.14318  0.99718  1.0000
  C   C1786     1.0  0.74584  0.23596  0.01612  1.0000
  H   H3170     1.0  0.75122  0.26943  0.27853  1.0000
  H   H3171     1.0  0.74092  0.18703  0.00452  1.0000
  H   H3172     1.0  0.97426  0.17327  0.25151  1.0000
  H   H3173     1.0  0.81265  0.31175  0.28533  1.0000
  N   N102      1.0  0.74211  0.18869  0.27833  1.0000
  H   H3174     1.0  0.87765  0.21405  0.47850  1.0000
  H   H3175     1.0  0.74019  0.26019  0.31823  1.0000
  C   C1787     1.0  0.96685  0.18008  0.27164  1.0000
  H   H3176     1.0  0.74497  0.22028  0.26418  1.0000
  H   H3177     1.0  0.78862  0.30265  0.31627  1.0000
  H   H3178     1.0  0.78317  0.30013  0.99309  1.0000
  Fe  Fe197     1.0  0.86007  0.02085  0.89729  1.0000
  S   S391      1.0  0.88327  0.01317  0.86449  1.0000
  C   C1788     1.0  0.83072  0.05754  0.98092  1.0000
  Fe  Fe198     1.0  0.84530  0.03734  0.83257  1.0000
  S   S392      1.0  0.86718  0.03053  0.79485  1.0000
  S   S393      1.0  0.82292  0.05292  0.81892  1.0000
  Fe  Fe199     1.0  0.86896  0.00691  0.83039  1.0000
  Fe  Fe200     1.0  0.87932  0.03742  0.83242  1.0000
  S   S394      1.0  0.89412  0.05611  0.81011  1.0000
  S   S395      1.0  0.84604  0.01331  0.86512  1.0000
  S   S396      1.0  0.85715  0.04542  0.86829  1.0000
  S   S397      1.0  0.94159  0.10081  0.88640  1.0000
  Fe  Fe201     1.0  0.79441  0.10082  0.64943  1.0000
  S   S398      1.0  0.80213  0.12003  0.60626  1.0000
  S   S399      1.0  0.81261  0.07907  0.66009  1.0000
  Fe  Fe202     1.0  0.76200  0.11968  0.66796  1.0000
  S   S400      1.0  0.76735  0.13991  0.62640  1.0000
  H   H3179     1.0  0.88546  0.17969  0.89301  1.0000
  Fe  Fe203     1.0  0.77885  0.12272  0.59042  1.0000
  S   S401      1.0  0.77314  0.13303  0.53543  1.0000
  Fe  Fe204     1.0  0.78983  0.13546  0.64568  1.0000
  S   S402      1.0  0.79762  0.15555  0.65769  1.0000
  S   S403      1.0  0.77180  0.10237  0.63079  1.0000
  S   S404      1.0  0.78389  0.11628  0.68989  1.0000
  S   S405      1.0  0.79394  0.24367  0.86354  1.0000
  C   C1789     1.0  0.81745  0.01720  0.79874  1.0000
  Fe  Fe205     1.0  0.77248  0.25088  0.83930  1.0000
  S   S406      1.0  0.76467  0.23328  0.81768  1.0000
  Fe  Fe206     1.0  0.89110  0.18597  0.67883  1.0000
  S   S407      1.0  0.87024  0.17594  0.70825  1.0000
  S   S408      1.0  0.91144  0.18628  0.70391  1.0000
  Fe  Fe207     1.0  0.87935  0.19474  0.60873  1.0000
  S   S409      1.0  0.85773  0.18526  0.63210  1.0000
  Fe  Fe208     1.0  0.85650  0.19679  0.67821  1.0000
  S   S410      1.0  0.83241  0.20736  0.70304  1.0000
  Fe  Fe209     1.0  0.87312  0.16522  0.66011  1.0000
  S   S411      1.0  0.86878  0.14099  0.66576  1.0000
  S   S412      1.0  0.87707  0.20805  0.65288  1.0000
  S   S413      1.0  0.89511  0.17357  0.63247  1.0000
  C   C1790     1.0  0.82696  0.24651  0.76549  1.0000
  C   C1791     1.0  0.81504  0.23815  0.76986  1.0000
  C   C1792     1.0  0.81685  0.22621  0.75044  1.0000
  C   C1793     1.0  0.83069  0.22232  0.72705  1.0000
  C   C1794     1.0  0.84262  0.23071  0.72240  1.0000
  C   C1795     1.0  0.84060  0.24302  0.74105  1.0000
  H   H3180     1.0  0.80438  0.24084  0.78824  1.0000
  H   H3181     1.0  0.80753  0.21984  0.75398  1.0000
  H   H3182     1.0  0.85325  0.22793  0.70394  1.0000
  H   H3183     1.0  0.84966  0.24975  0.73680  1.0000
  C   C1796     1.0  0.93250  0.15882  0.78327  1.0000
  H   H3184     1.0  0.90190  0.16690  0.87294  1.0000
  C   C1797     1.0  0.74355  0.15125  0.70831  1.0000
  H   H3185     1.0  0.75483  0.14814  0.69258  1.0000
  H   H3186     1.0  0.77130  0.15451  0.81487  1.0000
  C   C1798     1.0  0.96990  0.08905  0.72880  1.0000
  H   H3187     1.0  0.94141  0.08535  0.76127  1.0000
  H   H3188     1.0  0.93979  0.05813  0.91772  1.0000
  H   H3189     1.0  0.96881  0.07659  0.73604  1.0000
  C   C1799     1.0  0.81700  0.15032  0.66376  1.0000
  C   C1800     1.0  0.82620  0.13619  0.65588  1.0000
  C   C1801     1.0  0.84211  0.13288  0.65781  1.0000
  C   C1802     1.0  0.84866  0.14358  0.66838  1.0000
  C   C1803     1.0  0.83917  0.15709  0.67877  1.0000
  C   C1804     1.0  0.82346  0.16065  0.67567  1.0000
  H   H3190     1.0  0.82120  0.12802  0.64733  1.0000
  H   H3191     1.0  0.84938  0.12232  0.65012  1.0000
  H   H3192     1.0  0.84397  0.16504  0.68862  1.0000
  H   H3193     1.0  0.81642  0.17153  0.68205  1.0000
  S   S414      1.0  0.82494  0.26126  0.79040  1.0000
  S   S415      1.0  0.75953  0.26602  0.87901  1.0000
  H   H3194     1.0  0.80995  0.02740  0.78529  1.0000
  H   H3195     1.0  0.82998  0.02264  0.69189  1.0000
  H   H3196     1.0  0.85157  0.99932  0.76597  1.0000
  H   H3197     1.0  0.82769  0.06808  0.96098  1.0000
  H   H3198     1.0  0.74688  0.25893  0.72969  1.0000
  H   H3199     1.0  0.83947  0.23897  0.64872  1.0000
  H   H3200     1.0  0.94855  0.04437  0.97339  1.0000
  C   C1805     1.0  0.88315  0.20325  0.83414  1.0000
  H   H3201     1.0  0.79873  0.01958  0.74215  1.0000
  C   C1806     1.0  0.79939  0.03813  0.69764  1.0000
  H   H3202     1.0  0.89090  0.20957  0.84202  1.0000
  C   C1807     1.0  0.92064  0.15155  0.80460  1.0000
  C   C1808     1.0  0.92962  0.16933  0.75211  1.0000
  C   C1809     1.0  0.91505  0.17223  0.74166  1.0000
  C   C1810     1.0  0.90345  0.16436  0.76218  1.0000
  C   C1811     1.0  0.90617  0.15423  0.79384  1.0000
  H   H3203     1.0  0.93866  0.17535  0.73624  1.0000
  H   H3204     1.0  0.89223  0.16647  0.75441  1.0000
  H   H3205     1.0  0.89695  0.14868  0.81042  1.0000
  C   C1812     1.0  0.82043  0.06023  0.77460  1.0000
  C   C1813     1.0  0.83199  0.05630  0.74615  1.0000
  C   C1814     1.0  0.82956  0.06225  0.71107  1.0000
  C   C1815     1.0  0.81559  0.07226  0.70429  1.0000
  C   C1816     1.0  0.80405  0.07619  0.73281  1.0000
  C   C1817     1.0  0.80645  0.07015  0.76782  1.0000
  H   H3206     1.0  0.84271  0.04856  0.75120  1.0000
  H   H3207     1.0  0.83848  0.05908  0.68910  1.0000
  H   H3208     1.0  0.79315  0.08365  0.72793  1.0000
  H   H3209     1.0  0.79741  0.07317  0.78975  1.0000
  C   C1818     1.0  0.91214  0.05623  0.82171  1.0000
  C   C1819     1.0  0.92594  0.05064  0.80002  1.0000
  C   C1820     1.0  0.94064  0.06400  0.82573  1.0000
  C   C1821     1.0  0.92694  0.06924  0.84832  1.0000
  C   C1822     1.0  0.91275  0.06535  0.84630  1.0000
  H   H3210     1.0  0.80552  0.01342  0.69974  1.0000
  H   H3211     1.0  0.92718  0.07663  0.86662  1.0000
  H   H3212     1.0  0.90211  0.07000  0.86269  1.0000
  H   H3213     1.0  0.86223  0.23205  0.78127  1.0000
  N   N103      1.0  0.87853  0.21151  0.79904  1.0000
  H   H3214     1.0  0.75520  0.17008  0.76617  1.0000
  Fe  Fe210     1.0  0.78192  0.26050  0.90037  1.0000
  H   H3215     1.0  0.90379  0.23406  0.68681  1.0000
  H   H3216     1.0  0.87766  0.03402  0.93550  1.0000
  H   H3217     1.0  0.84091  0.14568  0.55754  1.0000
  C   C1823     1.0  0.77711  0.12323  0.49890  1.0000
  C   C1824     1.0  0.91729  0.10866  0.80934  1.0000
  C   C1825     1.0  0.90125  0.09793  0.67823  1.0000
  C   C1826     1.0  0.75042  0.21530  0.91987  1.0000
  C   C1827     1.0  0.93217  0.05996  0.94343  1.0000
  H   H3218     1.0  0.76335  0.24317  0.73354  1.0000
  C   C1828     1.0  0.89307  0.21405  0.77268  1.0000
  C   C1829     1.0  0.81068  0.28778  0.70171  1.0000
  H   H3219     1.0  0.79079  0.24954  0.71570  1.0000
  H   H3220     1.0  0.78744  0.03833  0.69359  1.0000
  C   C1830     1.0  0.76926  0.26578  0.70891  1.0000
  H   H3221     1.0  0.74692  0.17418  0.70892  1.0000
  C   C1831     1.0  0.89183  0.18613  0.83554  1.0000
  N   N104      1.0  0.84793  0.10331  0.76622  1.0000
  C   C1832     1.0  0.86056  0.11295  0.75554  1.0000
  C   C1833     1.0  0.85249  0.08995  0.74584  1.0000
  C   C1834     1.0  0.83333  0.11350  0.75469  1.0000
  C   C1835     1.0  0.84449  0.09754  0.80583  1.0000
  C   C1836     1.0  0.85825  0.09382  0.82660  1.0000
  C   C1837     1.0  0.85640  0.12892  0.76824  1.0000
  C   C1838     1.0  0.81943  0.10526  0.75846  1.0000
  C   C1839     1.0  0.86678  0.07745  0.75489  1.0000
  C   C1840     1.0  0.87300  0.06729  0.72627  1.0000
  C   C1841     1.0  0.85282  0.08843  0.86617  1.0000
  C   C1842     1.0  0.87088  0.13572  0.76561  1.0000
  C   C1843     1.0  0.80408  0.11690  0.75873  1.0000
  H   H3222     1.0  0.86379  0.11545  0.72606  1.0000
  H   H3223     1.0  0.87144  0.10642  0.76473  1.0000
  H   H3224     1.0  0.84294  0.08332  0.75057  1.0000
  H   H3225     1.0  0.85442  0.09457  0.71674  1.0000
  H   H3226     1.0  0.83582  0.11915  0.72643  1.0000
  H   H3227     1.0  0.82912  0.12323  0.77001  1.0000
  H   H3228     1.0  0.83540  0.10620  0.81908  1.0000
  H   H3229     1.0  0.83935  0.08683  0.81125  1.0000
  H   H3230     1.0  0.86339  0.10423  0.82434  1.0000
  H   H3231     1.0  0.86760  0.08453  0.81696  1.0000
  H   H3232     1.0  0.84872  0.13740  0.75123  1.0000
  H   H3233     1.0  0.85018  0.12790  0.79610  1.0000
  H   H3234     1.0  0.81832  0.09654  0.78322  1.0000
  H   H3235     1.0  0.82108  0.09924  0.73549  1.0000
  H   H3236     1.0  0.87651  0.08254  0.75752  1.0000
  H   H3237     1.0  0.86335  0.06971  0.78031  1.0000
  H   H3238     1.0  0.86380  0.06164  0.72246  1.0000
  H   H3239     1.0  0.87734  0.07438  0.70068  1.0000
  H   H3240     1.0  0.88278  0.05805  0.73444  1.0000
  H   H3241     1.0  0.84675  0.07849  0.87045  1.0000
  H   H3242     1.0  0.86303  0.08462  0.87995  1.0000
  H   H3243     1.0  0.84479  0.09809  0.87808  1.0000
  H   H3244     1.0  0.86739  0.14746  0.77312  1.0000
  H   H3245     1.0  0.87851  0.12822  0.78391  1.0000
  H   H3246     1.0  0.87748  0.13688  0.73805  1.0000
  H   H3247     1.0  0.79450  0.11065  0.76022  1.0000
  H   H3248     1.0  0.80153  0.12264  0.78232  1.0000
  H   H3249     1.0  0.80454  0.12585  0.73420  1.0000
  S   S416      1.0  0.73839  0.12278  0.70319  1.0000
  H   H3250     1.0  0.75387  0.18534  0.87169  1.0000
  H   H3251     1.0  0.95268  0.09540  0.69531  1.0000
  C   C1844     1.0  0.77372  0.15284  0.78685  1.0000
  H   H3252     1.0  0.81997  0.99129  0.72192  1.0000
  H   H3253     1.0  0.86880  0.26258  0.82571  1.0000
  H   H3254     1.0  0.76725  0.20851  0.64771  1.0000
  C   C1845     1.0  0.81335  0.26110  0.66641  1.0000
  H   H3255     1.0  0.95669  0.11141  0.71129  1.0000
  H   H3256     1.0  0.87282  0.20347  0.85576  1.0000
  H   H3257     1.0  0.77844  0.26904  0.62907  1.0000
  H   H3258     1.0  0.85518  0.01588  0.68727  1.0000
  C   C1846     1.0  0.78298  0.10724  0.50195  1.0000
  H   H3259     1.0  0.83178  0.23055  0.62004  1.0000
  H   H3260     1.0  0.88451  0.17872  0.83015  1.0000
  H   H3261     1.0  0.91476  0.21730  0.71097  1.0000
  H   H3262     1.0  0.88213  0.23484  0.73784  1.0000
  H   H3263     1.0  0.93036  0.15015  0.65229  1.0000
  C   C1847     1.0  0.94118  0.09793  0.75025  1.0000
  H   H3264     1.0  0.78676  0.28484  0.71780  1.0000
  C   C1848     1.0  0.78147  0.26295  0.98905  1.0000
  H   H3265     1.0  0.85740  0.17369  0.54293  1.0000
  H   H3266     1.0  0.82795  0.99344  0.79484  1.0000
  H   H3267     1.0  0.76817  0.13733  0.75716  1.0000
  H   H3268     1.0  0.80063  0.26844  0.73278  1.0000
  H   H3269     1.0  0.86981  0.14073  0.53884  1.0000
  H   H3270     1.0  0.89298  0.04274  0.97103  1.0000
  H   H3271     1.0  0.79754  0.00946  0.83529  1.0000
  S   S417      1.0  0.78071  0.27042  0.79969  1.0000
  H   H3272     1.0  0.84587  0.19185  0.76777  1.0000
  H   H3273     1.0  0.80659  0.04141  0.67137  1.0000
  H   H3274     1.0  0.90279  0.18530  0.81596  1.0000
  H   H3275     1.0  0.87996  0.23475  0.83882  1.0000
  H   H3276     1.0  0.90057  0.21943  0.78392  1.0000
  H   H3277     1.0  0.74328  0.19558  0.79909  1.0000
  H   H3278     1.0  0.75027  0.20781  0.68188  1.0000
  S   S418      1.0  0.97973  0.09021  0.87676  1.0000
  C   C1849     1.0  0.88901  0.16921  0.50342  1.0000
  H   H3279     1.0  0.84323  0.05250  0.97335  1.0000
  H   H3280     1.0  0.75989  0.22006  0.96155  1.0000
  H   H3281     1.0  0.82815  0.02084  0.80119  1.0000
  H   H3282     1.0  0.86246  0.99577  0.70374  1.0000
  N   N105      1.0  0.83087  0.00630  0.74133  1.0000
  H   H3283     1.0  0.93178  0.12750  0.74316  1.0000
  C   C1850     1.0  0.87007  0.20204  0.78477  1.0000
  H   H3284     1.0  0.81587  0.00273  0.85138  1.0000
  H   H3285     1.0  0.83221  0.09462  0.52203  1.0000
  H   H3286     1.0  0.87153  0.14961  0.57500  1.0000
  C   C1851     1.0  0.74628  0.24067  0.80610  1.0000
  H   H3287     1.0  0.74752  0.17584  0.82151  1.0000
  H   H3288     1.0  0.80898  0.12393  0.49757  1.0000
  Fe  Fe211     1.0  0.76979  0.28526  0.84106  1.0000
  C   C1852     1.0  0.78664  0.27723  0.61933  1.0000
  H   H3289     1.0  0.92034  0.12034  0.80102  1.0000
  H   H3290     1.0  0.79243  0.16620  0.52837  1.0000
  H   H3291     1.0  0.92720  0.10061  0.82020  1.0000
  C   C1853     1.0  0.87627  0.03012  0.96392  1.0000
  C   C1854     1.0  0.76559  0.13985  0.78463  1.0000
  H   H3292     1.0  0.88490  0.24237  0.79225  1.0000
  S   S419      1.0  0.75420  0.30894  0.82978  1.0000
  H   H3293     1.0  0.86623  0.20862  0.75965  1.0000
  H   H3294     1.0  0.82571  0.16569  0.51016  1.0000
  C   C1855     1.0  0.98439  0.15835  0.88519  1.0000
  H   H3295     1.0  0.77443  0.17788  0.82112  1.0000
  C   C1856     1.0  0.81454  0.24676  0.64885  1.0000
  H   H3296     1.0  0.85898  0.25934  0.79306  1.0000
  H   H3297     1.0  0.91008  0.23575  0.72640  1.0000
  H   H3298     1.0  0.73803  0.13171  0.53675  1.0000
  C   C1857     1.0  0.89052  0.22377  0.73577  1.0000
  C   C1858     1.0  0.84684  0.00824  0.74443  1.0000
  H   H3299     1.0  0.87199  0.02425  0.71922  1.0000
  C   C1859     1.0  0.78225  0.27868  0.97757  1.0000
  H   H3300     1.0  0.75278  0.14320  0.79255  1.0000
  C   C1860     1.0  0.88750  0.17860  0.52895  1.0000
  H   H3301     1.0  0.88319  0.01080  0.69089  1.0000
  H   H3302     1.0  0.90417  0.18568  0.87829  1.0000
  H   H3303     1.0  0.78636  0.14884  0.77855  1.0000
  H   H3304     1.0  0.95075  0.06430  0.96417  1.0000
  H   H3305     1.0  0.76975  0.12905  0.80272  1.0000
  H   H3306     1.0  0.78292  0.28365  0.94970  1.0000
  H   H3307     1.0  0.88611  0.21697  0.72074  1.0000
  H   H3308     1.0  0.95998  0.12759  0.95985  1.0000
  C   C1861     1.0  0.95478  0.09922  0.71867  1.0000
  C   C1862     1.0  0.73916  0.16596  0.71817  1.0000
  C   C1863     1.0  0.87423  0.01200  0.71505  1.0000
  H   H3309     1.0  0.97959  0.09031  0.70606  1.0000
  C   C1864     1.0  0.85523  0.19743  0.80955  1.0000
  H   H3310     1.0  0.82245  0.28035  0.70114  1.0000
  H   H3311     1.0  0.87806  0.19136  0.77714  1.0000
  N   N106      1.0  0.77357  0.18235  0.76458  1.0000
  C   C1865     1.0  0.76835  0.18647  0.80132  1.0000
  C   C1866     1.0  0.79106  0.18057  0.75371  1.0000
  C   C1867     1.0  0.76616  0.19577  0.73909  1.0000
  C   C1868     1.0  0.76812  0.16796  0.76183  1.0000
  C   C1869     1.0  0.85933  0.00768  0.71029  1.0000
  H   H3312     1.0  0.76865  0.29849  0.76358  1.0000
  C   C1870     1.0  0.77209  0.19545  0.69884  1.0000
  C   C1871     1.0  0.80116  0.17352  0.78308  1.0000
  C   C1872     1.0  0.81825  0.16859  0.76710  1.0000
  H   H3313     1.0  0.97284  0.09261  0.75171  1.0000
  H   H3314     1.0  0.76219  0.30639  0.70331  1.0000
  C   C1873     1.0  0.76272  0.20886  0.67627  1.0000
  H   H3315     1.0  0.77159  0.19778  0.80164  1.0000
  H   H3316     1.0  0.74881  0.20517  0.84894  1.0000
  H   H3317     1.0  0.79515  0.17362  0.73188  1.0000
  H   H3318     1.0  0.79439  0.19216  0.74246  1.0000
  H   H3319     1.0  0.76794  0.20703  0.74394  1.0000
  H   H3320     1.0  0.75334  0.19649  0.74354  1.0000
  H   H3321     1.0  0.77548  0.28731  0.57335  1.0000
  H   H3322     1.0  0.77199  0.16517  0.73463  1.0000
  C   C1874     1.0  0.74677  0.19310  0.85252  1.0000
  H   H3323     1.0  0.84551  0.19920  0.51774  1.0000
  C   C1875     1.0  0.89606  0.17926  0.87224  1.0000
  H   H3324     1.0  0.82041  0.26924  0.64793  1.0000
  H   H3325     1.0  0.77104  0.18450  0.69147  1.0000
  H   H3326     1.0  0.78447  0.19666  0.69121  1.0000
  H   H3327     1.0  0.80045  0.18244  0.79958  1.0000
  H   H3328     1.0  0.79734  0.16323  0.80096  1.0000
  H   H3329     1.0  0.81964  0.15891  0.75237  1.0000
  H   H3330     1.0  0.82273  0.17854  0.74879  1.0000
  H   H3331     1.0  0.82532  0.16448  0.78856  1.0000
  C   C1876     1.0  0.79146  0.28244  0.64998  1.0000
  C   C1877     1.0  0.88495  0.03502  0.98405  1.0000
  C   C1878     1.0  0.94210  0.05648  0.97247  1.0000
  C   C1879     1.0  0.75075  0.18747  0.81687  1.0000
  H   H3332     1.0  0.80625  0.14795  0.53239  1.0000
  H   H3333     1.0  0.84611  0.01956  0.75272  1.0000
  C   C1880     1.0  0.83183  0.99272  0.72338  1.0000
  H   H3334     1.0  0.75538  0.23644  0.92766  1.0000
  H   H3335     1.0  0.86372  0.13206  0.58431  1.0000
  H   H3336     1.0  0.92832  0.09967  0.69071  1.0000
  C   C1881     1.0  0.78620  0.25850  0.69392  1.0000
  H   H3337     1.0  0.80772  0.29019  0.75726  1.0000
  H   H3338     1.0  0.92559  0.04400  0.78023  1.0000
  C   C1882     1.0  0.94010  0.05432  0.80237  1.0000
  S   S420      1.0  0.92291  0.14042  0.84651  1.0000
  S   S421      1.0  0.95847  0.06995  0.82371  1.0000
  C   C1883     1.0  0.80870  0.01266  0.83623  1.0000
  H   H3339     1.0  0.82394  0.03136  0.72999  1.0000
  H   H3340     1.0  0.88955  0.17332  0.55550  1.0000
  C   C1884     1.0  0.92087  0.09770  0.71712  1.0000
  Fe  Fe212     1.0  0.96048  0.10266  0.91366  1.0000
  Fe  Fe213     1.0  0.94551  0.12384  0.85366  1.0000
  H   H3341     1.0  0.94367  0.15685  0.79156  1.0000
  H   H3342     1.0  0.95060  0.05018  0.78485  1.0000
  C   C1885     1.0  0.86783  0.22673  0.80472  1.0000
  H   H3343     1.0  0.94434  0.10288  0.77085  1.0000
  Fe  Fe214     1.0  0.96068  0.09044  0.84683  1.0000
  H   H3344     1.0  0.93898  0.12285  0.67756  1.0000
  C   C1886     1.0  0.90575  0.22795  0.71377  1.0000
  H   H3345     1.0  0.74272  0.15818  0.57481  1.0000
  C   C1887     1.0  0.82338  0.02098  0.71942  1.0000
  H   H3346     1.0  0.76438  0.27596  0.69025  1.0000
  H   H3347     1.0  0.75399  0.17377  0.60465  1.0000
  S   S422      1.0  0.78179  0.25079  0.95878  1.0000
  H   H3348     1.0  0.81126  0.23688  0.66960  1.0000
  H   H3349     1.0  0.98406  0.15545  0.83146  1.0000
  C   C1888     1.0  0.83639  0.19409  0.51116  1.0000
  H   H3350     1.0  0.81950  0.21025  0.56558  1.0000
  H   H3351     1.0  0.79937  0.21105  0.61872  1.0000
  H   H3352     1.0  0.79710  0.27177  0.60234  1.0000
  C   C1889     1.0  0.80624  0.02192  0.71596  1.0000
  H   H3353     1.0  0.82673  0.11206  0.54176  1.0000
  H   H3354     1.0  0.80560  0.19869  0.56471  1.0000
  H   H3355     1.0  0.91861  0.12689  0.67651  1.0000
  H   H3356     1.0  0.85334  0.25156  0.83946  1.0000
  H   H3357     1.0  0.79869  0.04694  0.71434  1.0000
  H   H3358     1.0  0.74177  0.13217  0.59144  1.0000
  H   H3359     1.0  0.81971  0.25637  0.68916  1.0000
  H   H3360     1.0  0.80675  0.24906  0.62920  1.0000
  N   N107      1.0  0.79721  0.26976  0.67909  1.0000
  H   H3361     1.0  0.93629  0.14921  0.69401  1.0000
  H   H3362     1.0  0.87890  0.00417  0.73803  1.0000
  H   H3363     1.0  0.91358  0.09024  0.78601  1.0000
  C   C1890     1.0  0.75112  0.22614  0.94459  1.0000
  C   C1891     1.0  0.92397  0.12307  0.73057  1.0000
  H   H3364     1.0  0.91208  0.12948  0.73971  1.0000
  H   H3365     1.0  0.82567  0.17545  0.59611  1.0000
  C   C1892     1.0  0.86335  0.25402  0.81827  1.0000
  H   H3366     1.0  0.83885  0.18836  0.58134  1.0000
  H   H3367     1.0  0.85725  0.17533  0.79231  1.0000
  H   H3368     1.0  0.82973  0.98614  0.94041  1.0000
  C   C1893     1.0  0.82290  0.10489  0.52654  1.0000
  H   H3369     1.0  0.81240  0.10063  0.54264  1.0000
  H   H3370     1.0  0.82366  0.04891  0.98018  1.0000
  C   C1894     1.0  0.75894  0.30768  0.75869  1.0000
  H   H3371     1.0  0.75733  0.25093  0.69096  1.0000
  H   H3372     1.0  0.81669  0.15580  0.57818  1.0000
  C   C1895     1.0  0.82151  0.00340  0.77815  1.0000
  H   H3373     1.0  0.74700  0.22152  0.78044  1.0000
  H   H3374     1.0  0.91583  0.15286  0.69101  1.0000
  H   H3375     1.0  0.84305  0.15490  0.59263  1.0000
  C   C1896     1.0  0.86426  0.14326  0.56570  1.0000
  H   H3376     1.0  0.92589  0.07225  0.94052  1.0000
  C   C1897     1.0  0.84784  0.15286  0.56524  1.0000
  H   H3377     1.0  0.83453  0.25048  0.60731  1.0000
  C   C1898     1.0  0.84811  0.16827  0.53838  1.0000
  C   C1899     1.0  0.80996  0.16500  0.56068  1.0000
  S   S423      1.0  0.87668  0.98372  0.81033  1.0000
  H   H3378     1.0  0.85222  0.16469  0.51199  1.0000
  H   H3379     1.0  0.74233  0.26154  0.82833  1.0000
  C   C1900     1.0  0.86578  0.02025  0.98070  1.0000
  C   C1901     1.0  0.79814  0.27745  0.70918  1.0000
  H   H3380     1.0  0.85795  0.22473  0.82674  1.0000
  H   H3381     1.0  0.90780  0.10439  0.65449  1.0000
  C   C1902     1.0  0.81514  0.19931  0.57806  1.0000
  C   C1903     1.0  0.84871  0.18636  0.79440  1.0000
  C   C1904     1.0  0.82867  0.18514  0.57463  1.0000
  C   C1905     1.0  0.92753  0.14632  0.68143  1.0000
  H   H3382     1.0  0.81777  0.20098  0.63127  1.0000
  C   C1906     1.0  0.87531  0.23913  0.81370  1.0000
  H   H3383     1.0  0.78148  0.29090  0.66132  1.0000
  H   H3384     1.0  0.80312  0.19012  0.63024  1.0000
  S   S424      1.0  0.96362  0.11346  0.81181  1.0000
  N   N108      1.0  0.83310  0.18006  0.53887  1.0000
  C   C1907     1.0  0.79935  0.15746  0.54655  1.0000
  C   C1908     1.0  0.80847  0.20040  0.61699  1.0000
  H   H3385     1.0  0.92362  0.05207  0.94966  1.0000
  H   H3386     1.0  0.78550  0.25176  0.67383  1.0000
  H   H3387     1.0  0.76879  0.26955  0.73438  1.0000
  H   H3388     1.0  0.80235  0.17323  0.57747  1.0000
  H   H3389     1.0  0.88870  0.10108  0.67618  1.0000
  S   S425      1.0  0.88118  0.20680  0.55162  1.0000
  H   H3390     1.0  0.76370  0.22023  0.68187  1.0000
  S   S426      1.0  0.96287  0.12662  0.88446  1.0000
  H   H3391     1.0  0.79109  0.15243  0.56903  1.0000
  H   H3392     1.0  0.80613  0.02272  0.85038  1.0000
  H   H3393     1.0  0.89646  0.09598  0.73472  1.0000
  H   H3394     1.0  0.81237  0.18325  0.51588  1.0000
  H   H3395     1.0  0.74362  0.10338  0.60011  1.0000
  C   C1909     1.0  0.83110  0.24143  0.63010  1.0000
  C   C1910     1.0  0.75858  0.25394  0.71615  1.0000
  H   H3396     1.0  0.83776  0.99495  0.69528  1.0000
  C   C1911     1.0  0.82049  0.17367  0.52963  1.0000
  H   H3397     1.0  0.89368  0.11892  0.83136  1.0000
  H   H3398     1.0  0.81054  0.99967  0.77760  1.0000
  Fe  Fe215     1.0  0.98111  0.11422  0.84532  1.0000
  H   H3399     1.0  0.78481  0.10038  0.52755  1.0000
  H   H3400     1.0  0.89917  0.09826  0.84729  1.0000
  Fe  Fe216     1.0  0.80153  0.26429  0.82626  1.0000
  H   H3401     1.0  0.90037  0.20269  0.76735  1.0000
  S   S427      1.0  0.79151  0.28084  0.86511  1.0000
  H   H3402     1.0  0.90187  0.10876  0.77416  1.0000
  C   C1912     1.0  0.90361  0.10232  0.71205  1.0000
  H   H3403     1.0  0.89911  0.11498  0.71118  1.0000
  H   H3404     1.0  0.83788  0.18360  0.81211  1.0000
  C   C1913     1.0  0.91391  0.10291  0.77762  1.0000
  H   H3405     1.0  0.90516  0.08520  0.67870  1.0000
  C   C1914     1.0  0.90330  0.10950  0.83948  1.0000
  H   H3406     1.0  0.90669  0.11212  0.86293  1.0000
  H   H3407     1.0  0.76764  0.29701  0.61092  1.0000
  H   H3408     1.0  0.92327  0.08481  0.72595  1.0000
  H   H3409     1.0  0.84601  0.20793  0.81240  1.0000
  H   H3410     1.0  0.85757  0.19151  0.83629  1.0000
  C   C1915     1.0  0.92757  0.12886  0.68986  1.0000
  N   N109      1.0  0.92508  0.10569  0.74306  1.0000
  S   S428      1.0  0.85457  0.01397  0.95676  1.0000
  C   C1916     1.0  0.88337  0.19478  0.52005  1.0000
  H   H3411     1.0  0.80051  0.28952  0.63711  1.0000
  H   H3412     1.0  0.89224  0.15670  0.51042  1.0000
  H   H3413     1.0  0.76214  0.21211  0.90397  1.0000
  C   C1917     1.0  0.74016  0.23218  0.78819  1.0000
  C   C1918     1.0  0.77853  0.29123  0.59561  1.0000
  S   S429      1.0  0.95725  0.09490  0.97290  1.0000
  C   C1919     1.0  0.73756  0.25476  0.81509  1.0000
  H   H3414     1.0  0.74953  0.25597  0.95647  1.0000
  C   C1920     1.0  0.75012  0.31511  0.78633  1.0000
  C   C1921     1.0  0.80808  0.29764  0.73064  1.0000
  C   C1922     1.0  0.96229  0.12232  0.98615  1.0000
  H   H3415     1.0  0.82584  0.20342  0.51098  1.0000
  H   H3416     1.0  0.96734  0.16821  0.85059  1.0000
  C   C1923     1.0  0.73923  0.28555  0.96519  1.0000
  H   H3417     1.0  0.79696  0.30618  0.73030  1.0000
  H   H3418     1.0  0.74657  0.20449  0.93531  1.0000
  H   H3419     1.0  0.75174  0.28310  0.95315  1.0000
  H   H3420     1.0  0.81053  0.29591  0.67612  1.0000
  H   H3421     1.0  0.78629  0.29983  0.58431  1.0000
  H   H3422     1.0  0.88535  0.98841  0.93250  1.0000
  H   H3423     1.0  0.74163  0.15131  0.52346  1.0000
  H   H3424     1.0  0.81774  0.30412  0.72611  1.0000
  H   H3425     1.0  0.73756  0.18956  0.59919  1.0000
  H   H3426     1.0  0.74250  0.18168  0.64257  1.0000
  C   C1924     1.0  0.74201  0.17871  0.61677  1.0000
  H   H3427     1.0  0.97959  0.16772  0.90128  1.0000
  C   C1925     1.0  0.75537  0.31232  0.72444  1.0000
  C   C1926     1.0  0.98017  0.16461  0.84831  1.0000
  H   H3428     1.0  0.97846  0.14844  0.89741  1.0000
  C   C1927     1.0  0.73720  0.25735  0.96985  1.0000
  H   H3429     1.0  0.86894  0.98207  0.98974  1.0000
  H   H3430     1.0  0.74230  0.22124  0.90114  1.0000
  H   H3431     1.0  0.98562  0.17483  0.83521  1.0000
  H   H3432     1.0  0.73740  0.29518  0.98029  1.0000
  Fe  Fe217     1.0  0.77716  0.62197  0.12853  1.0000
  S   S430      1.0  0.80252  0.61276  0.11156  1.0000
  Fe  Fe218     1.0  0.77210  0.59458  0.18706  1.0000
  S   S431      1.0  0.79706  0.58277  0.17465  1.0000
  S   S432      1.0  0.75160  0.58820  0.22907  1.0000
  Fe  Fe219     1.0  0.80323  0.60635  0.17027  1.0000
  S   S433      1.0  0.82372  0.60729  0.19578  1.0000
  Fe  Fe220     1.0  0.79450  0.59016  0.11681  1.0000
  S   S434      1.0  0.80465  0.57273  0.07914  1.0000
  S   S435      1.0  0.77848  0.61757  0.18657  1.0000
  S   S436      1.0  0.76910  0.59996  0.12988  1.0000
  C   C1928     1.0  0.83904  0.59041  0.06044  1.0000
  H   H3433     1.0  0.75773  0.55662  0.17508  1.0000
  C   C1929     1.0  0.77473  0.54412  0.02695  1.0000
  C   C1930     1.0  0.78673  0.54392  0.16854  1.0000
  H   H3434     1.0  0.83497  0.61544  0.03798  1.0000
  H   H3435     1.0  0.83361  0.58459  0.14849  1.0000
  H   H3436     1.0  0.74692  0.53334  0.13303  1.0000
  H   H3437     1.0  0.80635  0.54082  0.19529  1.0000
  H   H3438     1.0  0.86865  0.59967  0.03863  1.0000
  N   N110      1.0  0.85203  0.58921  0.08042  1.0000
  S   S437      1.0  0.74159  0.51921  0.29823  1.0000
  C   C1931     1.0  0.88737  0.57601  0.00805  1.0000
  C   C1932     1.0  0.75490  0.32581  0.24576  1.0000
  H   H3439     1.0  0.74840  0.38255  0.43159  1.0000
  C   C1933     1.0  0.77878  0.63666  0.29114  1.0000
  C   C1934     1.0  0.80398  0.53824  0.17064  1.0000
  C   C1935     1.0  0.80352  0.63136  0.31729  1.0000
  H   H3440     1.0  0.84635  0.60773  0.23774  1.0000
  H   H3441     1.0  0.74888  0.62678  0.16630  1.0000
  C   C1936     1.0  0.74917  0.56898  0.24882  1.0000
  S   S438      1.0  0.77014  0.32248  0.20990  1.0000
  C   C1937     1.0  0.74417  0.53852  0.27971  1.0000
  H   H3442     1.0  0.84857  0.60365  0.00888  1.0000
  C   C1938     1.0  0.76140  0.55627  0.24598  1.0000
  H   H3443     1.0  0.80998  0.62444  0.29649  1.0000
  C   C1939     1.0  0.87145  0.57572  0.03167  1.0000
  H   H3444     1.0  0.77283  0.55817  0.23246  1.0000
  C   C1940     1.0  0.80391  0.57211  0.03428  1.0000
  H   H3445     1.0  0.79861  0.62344  0.34082  1.0000
  C   C1941     1.0  0.85448  0.33623  0.21446  1.0000
  C   C1942     1.0  0.81782  0.63733  0.21149  1.0000
  C   C1943     1.0  0.83768  0.60410  0.02867  1.0000
  H   H3446     1.0  0.74751  0.34983  0.22305  1.0000
  H   H3447     1.0  0.85426  0.56420  0.09581  1.0000
  H   H3448     1.0  0.78745  0.59344  0.02314  1.0000
  H   H3449     1.0  0.82795  0.57232  0.12469  1.0000
  C   C1944     1.0  0.85938  0.60301  0.12486  1.0000
  H   H3450     1.0  0.76582  0.52136  0.19400  1.0000
  H   H3451     1.0  0.85109  0.62793  0.26696  1.0000
  C   C1945     1.0  0.82691  0.62235  0.21532  1.0000
  H   H3452     1.0  0.84649  0.34575  0.20040  1.0000
  C   C1946     1.0  0.75517  0.63879  0.26703  1.0000
  H   H3453     1.0  0.85572  0.59509  0.14976  1.0000
  H   H3454     1.0  0.86298  0.62704  0.11092  1.0000
  H   H3455     1.0  0.76396  0.56885  0.13547  1.0000
  H   H3456     1.0  0.81329  0.60464  0.02806  1.0000
  C   C1947     1.0  0.74071  0.31726  0.30423  1.0000
  H   H3457     1.0  0.84369  0.54900  0.15657  1.0000
  C   C1948     1.0  0.74387  0.63899  0.16513  1.0000
  C   C1949     1.0  0.84016  0.56015  0.16688  1.0000
  H   H3458     1.0  0.82718  0.32850  0.21861  1.0000
  H   H3459     1.0  0.74326  0.44132  0.46188  1.0000
  H   H3460     1.0  0.74811  0.53585  0.19747  1.0000
  C   C1950     1.0  0.79475  0.58350  0.01258  1.0000
  H   H3461     1.0  0.82921  0.55977  0.18641  1.0000
  H   H3462     1.0  0.87176  0.56385  0.04760  1.0000
  H   H3463     1.0  0.86280  0.57774  0.01388  1.0000
  C   C1951     1.0  0.84193  0.63069  0.25127  1.0000
  H   H3464     1.0  0.74536  0.52798  0.38870  1.0000
  H   H3465     1.0  0.86257  0.57286  0.12197  1.0000
  C   C1952     1.0  0.84916  0.60360  0.09698  1.0000
  H   H3466     1.0  0.74325  0.50965  0.22366  1.0000
  H   H3467     1.0  0.87185  0.59881  0.11517  1.0000
  C   C1953     1.0  0.74522  0.38241  0.46059  1.0000
  H   H3468     1.0  0.74686  0.54821  0.37391  1.0000
  C   C1954     1.0  0.75479  0.52615  0.18379  1.0000
  C   C1955     1.0  0.74553  0.34067  0.24556  1.0000
  N   N111      1.0  0.76605  0.54511  0.12911  1.0000
  H   H3469     1.0  0.74295  0.35799  0.47172  1.0000
  C   C1956     1.0  0.78291  0.54089  0.13413  1.0000
  C   C1957     1.0  0.76585  0.54979  0.08971  1.0000
  C   C1958     1.0  0.75810  0.53126  0.14294  1.0000
  H   H3470     1.0  0.77337  0.62996  0.31613  1.0000
  H   H3471     1.0  0.81191  0.63687  0.32519  1.0000
  C   C1959     1.0  0.77551  0.53780  0.06616  1.0000
  C   C1960     1.0  0.75763  0.55901  0.14616  1.0000
  H   H3472     1.0  0.74412  0.63541  0.32365  1.0000
  H   H3473     1.0  0.76259  0.54620  0.02217  1.0000
  H   H3474     1.0  0.84542  0.62431  0.14222  1.0000
  C   C1961     1.0  0.81324  0.55935  0.02007  1.0000
  H   H3475     1.0  0.75136  0.50291  0.18221  1.0000
  H   H3476     1.0  0.76099  0.63058  0.24841  1.0000
  H   H3477     1.0  0.78777  0.52846  0.13198  1.0000
  H   H3478     1.0  0.79018  0.54768  0.11242  1.0000
  H   H3479     1.0  0.77023  0.56095  0.07940  1.0000
  H   H3480     1.0  0.75236  0.38941  0.46818  1.0000
  C   C1962     1.0  0.86757  0.58821  0.05594  1.0000
  H   H3481     1.0  0.76520  0.52086  0.13218  1.0000
  C   C1963     1.0  0.83913  0.61921  0.23482  1.0000
  H   H3482     1.0  0.87715  0.58564  0.07152  1.0000
  H   H3483     1.0  0.75378  0.55208  0.08428  1.0000
  C   C1964     1.0  0.75890  0.54110  0.26134  1.0000
  H   H3484     1.0  0.77098  0.52678  0.07336  1.0000
  H   H3485     1.0  0.78796  0.53512  0.06881  1.0000
  H   H3486     1.0  0.85096  0.61393  0.07606  1.0000
  H   H3487     1.0  0.77995  0.53808  0.19253  1.0000
  C   C1965     1.0  0.85245  0.57466  0.10829  1.0000
  C   C1966     1.0  0.83256  0.64555  0.24825  1.0000
  H   H3488     1.0  0.82766  0.59196  0.07848  1.0000
  H   H3489     1.0  0.80868  0.64007  0.19580  1.0000
  C   C1967     1.0  0.82461  0.60371  0.00959  1.0000
  H   H3490     1.0  0.73898  0.40739  0.40700  1.0000
  H   H3491     1.0  0.89665  0.57352  0.02444  1.0000
  H   H3492     1.0  0.74146  0.41453  0.45863  1.0000
  C   C1968     1.0  0.74046  0.56519  0.14114  1.0000
  H   H3493     1.0  0.83680  0.60649  0.10994  1.0000
  H   H3494     1.0  0.86399  0.61814  0.15648  1.0000
  C   C1969     1.0  0.85782  0.61912  0.13407  1.0000
  H   H3495     1.0  0.81126  0.54433  0.14758  1.0000
  C   C1970     1.0  0.83753  0.57390  0.13669  1.0000
  H   H3496     1.0  0.76845  0.53131  0.25925  1.0000
  H   H3497     1.0  0.82692  0.59274  0.99878  1.0000
  H   H3498     1.0  0.80727  0.52547  0.17121  1.0000
  H   H3499     1.0  0.84926  0.56146  0.18082  1.0000
  H   H3500     1.0  0.73989  0.57083  0.11319  1.0000
  C   C1971     1.0  0.74739  0.62899  0.30106  1.0000
  H   H3501     1.0  0.82032  0.55046  0.03635  1.0000
  H   H3502     1.0  0.74128  0.39640  0.35220  1.0000
  H   H3503     1.0  0.73885  0.58713  0.15900  1.0000
  H   H3504     1.0  0.78413  0.55660  0.16898  1.0000
  H   H3505     1.0  0.85229  0.33717  0.24300  1.0000
  C   C1972     1.0  0.74962  0.36557  0.47902  1.0000
  H   H3506     1.0  0.78106  0.64467  0.22180  1.0000
  H   H3507     1.0  0.78534  0.62782  0.27442  1.0000
  H   H3508     1.0  0.83976  0.57931  0.05111  1.0000
  C   C1973     1.0  0.79063  0.64397  0.30302  1.0000
  H   H3509     1.0  0.75556  0.61800  0.30862  1.0000
  C   C1974     1.0  0.74518  0.51325  0.19432  1.0000
  H   H3510     1.0  0.78205  0.53557  0.01054  1.0000
  H   H3511     1.0  0.86663  0.33769  0.20298  1.0000
  S   S439      1.0  0.76366  0.64401  0.10223  1.0000
  H   H3512     1.0  0.82830  0.32894  0.16097  1.0000
  H   H3513     1.0  0.74175  0.64026  0.04800  1.0000
  H   H3514     1.0  0.76222  0.36118  0.47079  1.0000
  H   H3515     1.0  0.77919  0.55519  0.01828  1.0000
  C   C1975     1.0  0.73879  0.53983  0.38012  1.0000
  H   H3516     1.0  0.74577  0.64657  0.25395  1.0000
  H   H3517     1.0  0.73875  0.33512  0.15361  1.0000
  H   H3518     1.0  0.82261  0.32756  0.10252  1.0000
  N   N112      1.0  0.76655  0.64792  0.27224  1.0000
  H   H3519     1.0  0.84190  0.31731  0.10858  1.0000
  C   C1976     1.0  0.85224  0.32035  0.21001  1.0000
  H   H3520     1.0  0.85490  0.31999  0.18123  1.0000
  H   H3521     1.0  0.78553  0.31582  0.27560  1.0000
  H   H3522     1.0  0.83476  0.31701  0.25575  1.0000
  H   H3523     1.0  0.75708  0.63221  0.00071  1.0000
  H   H3524     1.0  0.73721  0.31720  0.14204  1.0000
  H   H3525     1.0  0.81208  0.31959  0.16475  1.0000
  C   C1977     1.0  0.82930  0.31732  0.11797  1.0000
  C   C1978     1.0  0.82491  0.31825  0.15749  1.0000
  C   C1979     1.0  0.83556  0.31772  0.22676  1.0000
  H   H3526     1.0  0.80678  0.31569  0.22304  1.0000
  Fe  Fe221     1.0  0.79352  0.58001  0.87390  1.0000
  S   S440      1.0  0.78550  0.60589  0.86677  1.0000
  S   S441      1.0  0.80667  0.56632  0.91824  1.0000
  Fe  Fe222     1.0  0.77916  0.57682  0.81074  1.0000
  S   S442      1.0  0.76979  0.60249  0.80085  1.0000
  S   S443      1.0  0.77697  0.56315  0.76925  1.0000
  Fe  Fe223     1.0  0.79304  0.60590  0.80798  1.0000
  S   S444      1.0  0.80162  0.62577  0.76642  1.0000
  Fe  Fe224     1.0  0.76339  0.60003  0.85992  1.0000
  H   H3527     1.0  0.74673  0.41344  0.74622  1.0000
  S   S445      1.0  0.80293  0.58020  0.81521  1.0000
  S   S446      1.0  0.77086  0.57413  0.86979  1.0000
  H   H3528     1.0  0.87648  0.61034  0.69277  1.0000
  H   H3529     1.0  0.88279  0.63896  0.61971  1.0000
  H   H3530     1.0  0.85819  0.61875  0.76508  1.0000
  H   H3531     1.0  0.73967  0.36529  0.71357  1.0000
  H   H3532     1.0  0.78140  0.49726  0.79313  1.0000
  H   H3533     1.0  0.79945  0.54398  0.80641  1.0000
  H   H3534     1.0  0.75283  0.53740  0.70187  1.0000
  H   H3535     1.0  0.84974  0.60368  0.53057  1.0000
  C   C1980     1.0  0.76020  0.37223  0.67813  1.0000
  C   C1981     1.0  0.75833  0.35992  0.80322  1.0000
  H   H3536     1.0  0.85712  0.62930  0.52648  1.0000
  C   C1982     1.0  0.81955  0.51228  0.85585  1.0000
  C   C1983     1.0  0.76262  0.63490  0.94408  1.0000
  H   H3537     1.0  0.74939  0.46625  0.57303  1.0000
  H   H3538     1.0  0.76014  0.35736  0.74938  1.0000
  H   H3539     1.0  0.88427  0.61148  0.62785  1.0000
  H   H3540     1.0  0.78304  0.54370  0.94049  1.0000
  H   H3541     1.0  0.75676  0.62543  0.94243  1.0000
  C   C1984     1.0  0.75387  0.42866  0.69790  1.0000
  H   H3542     1.0  0.82602  0.52045  0.86176  1.0000
  H   H3543     1.0  0.84219  0.48871  0.88337  1.0000
  H   H3544     1.0  0.74712  0.36479  0.50832  1.0000
  S   S447      1.0  0.73698  0.51226  0.57383  1.0000
  H   H3545     1.0  0.82354  0.63764  0.60531  1.0000
  C   C1985     1.0  0.76264  0.55297  0.76510  1.0000
  C   C1986     1.0  0.76272  0.54933  0.73179  1.0000
  C   C1987     1.0  0.74233  0.53415  0.75699  1.0000
  C   C1988     1.0  0.75211  0.54737  0.79429  1.0000
  C   C1989     1.0  0.87285  0.60833  0.64072  1.0000
  H   H3546     1.0  0.77088  0.55350  0.70905  1.0000
  H   H3547     1.0  0.76644  0.42388  0.69778  1.0000
  C   C1990     1.0  0.79510  0.53466  0.89281  1.0000
  H   H3548     1.0  0.75066  0.43927  0.71032  1.0000
  C   C1991     1.0  0.84832  0.62529  0.75312  1.0000
  C   C1992     1.0  0.83353  0.62122  0.76598  1.0000
  C   C1993     1.0  0.82071  0.62961  0.75061  1.0000
  H   H3549     1.0  0.77467  0.51373  0.76116  1.0000
  H   H3550     1.0  0.76163  0.64405  0.92008  1.0000
  C   C1994     1.0  0.74341  0.37625  0.69889  1.0000
  H   H3551     1.0  0.83204  0.61169  0.78787  1.0000
  H   H3552     1.0  0.83016  0.61130  0.55117  1.0000
  H   H3553     1.0  0.75984  0.34711  0.81258  1.0000
  C   C1995     1.0  0.78122  0.53619  0.92310  1.0000
  H   H3554     1.0  0.90433  0.63408  0.56946  1.0000
  H   H3555     1.0  0.75172  0.43210  0.67013  1.0000
  C   C1996     1.0  0.74715  0.40218  0.70079  1.0000
  H   H3556     1.0  0.82005  0.52752  0.76447  1.0000
  C   C1997     1.0  0.74991  0.38188  0.75382  1.0000
  H   H3557     1.0  0.81298  0.55651  0.74991  1.0000
  H   H3558     1.0  0.81128  0.50702  0.79638  1.0000
  H   H3559     1.0  0.82766  0.55807  0.77376  1.0000
  C   C1998     1.0  0.82419  0.55060  0.75868  1.0000
  C   C1999     1.0  0.79233  0.52552  0.86587  1.0000
  H   H3560     1.0  0.77481  0.35491  0.64816  1.0000
  H   H3561     1.0  0.78000  0.52459  0.93931  1.0000
  C   C2000     1.0  0.75250  0.54017  0.72762  1.0000
  H   H3562     1.0  0.74252  0.48084  0.53771  1.0000
  C   C2001     1.0  0.74219  0.53785  0.79030  1.0000
  H   H3563     1.0  0.77030  0.54161  0.91262  1.0000
  H   H3564     1.0  0.81417  0.54302  0.83060  1.0000
  H   H3565     1.0  0.78240  0.53302  0.85380  1.0000
  C   C2002     1.0  0.84575  0.49390  0.85517  1.0000
  H   H3566     1.0  0.83772  0.63684  0.54694  1.0000
  C   C2003     1.0  0.80483  0.56924  0.96277  1.0000
  H   H3567     1.0  0.86127  0.63117  0.65234  1.0000
  C   C2004     1.0  0.75097  0.63701  0.85197  1.0000
  H   H3568     1.0  0.82118  0.54803  0.97452  1.0000
  H   H3569     1.0  0.79823  0.50058  0.83455  1.0000
  H   H3570     1.0  0.75435  0.35727  0.64774  1.0000
  H   H3571     1.0  0.78810  0.51481  0.88115  1.0000
  H   H3572     1.0  0.77688  0.52237  0.81464  1.0000
  H   H3573     1.0  0.83320  0.54915  0.73471  1.0000
  H   H3574     1.0  0.76212  0.38156  0.65474  1.0000
  H   H3575     1.0  0.87024  0.64080  0.55101  1.0000
  C   C2005     1.0  0.88072  0.64408  0.59235  1.0000
  H   H3576     1.0  0.76905  0.37136  0.69477  1.0000
  H   H3577     1.0  0.78825  0.59089  0.96013  1.0000
  H   H3578     1.0  0.82839  0.63728  0.64773  1.0000
  C   C2006     1.0  0.84694  0.62626  0.54634  1.0000
  H   H3579     1.0  0.75199  0.54992  0.82013  1.0000
  C   C2007     1.0  0.78779  0.51903  0.79622  1.0000
  H   H3580     1.0  0.82619  0.48979  0.83750  1.0000
  H   H3581     1.0  0.76982  0.36337  0.79919  1.0000
  C   C2008     1.0  0.83157  0.49993  0.83679  1.0000
  C   C2009     1.0  0.84076  0.61440  0.53293  1.0000
  H   H3582     1.0  0.80553  0.52898  0.90491  1.0000
  H   H3583     1.0  0.76009  0.62938  0.83772  1.0000
  H   H3584     1.0  0.76231  0.64498  0.76787  1.0000
  C   C2010     1.0  0.79521  0.58206  0.97683  1.0000
  C   C2011     1.0  0.85031  0.63798  0.72545  1.0000
  C   C2012     1.0  0.80143  0.51127  0.81656  1.0000
  H   H3585     1.0  0.87100  0.59897  0.62845  1.0000
  H   H3586     1.0  0.88324  0.59119  0.68155  1.0000
  C   C2013     1.0  0.76303  0.35693  0.66447  1.0000
  N   N113      1.0  0.80611  0.52130  0.83751  1.0000
  H   H3587     1.0  0.74206  0.40593  0.67599  1.0000
  H   H3588     1.0  0.76192  0.38442  0.74654  1.0000
  C   C2014     1.0  0.75189  0.36409  0.76858  1.0000
  H   H3589     1.0  0.79664  0.54657  0.87934  1.0000
  S   S448      1.0  0.74071  0.61085  0.88944  1.0000
  C   C2015     1.0  0.81007  0.53625  0.81484  1.0000
  H   H3590     1.0  0.76233  0.34707  0.68704  1.0000
  H   H3591     1.0  0.85194  0.50351  0.85394  1.0000
  H   H3592     1.0  0.81515  0.50563  0.88221  1.0000
  N   N114      1.0  0.85723  0.63041  0.60011  1.0000
  C   C2016     1.0  0.85945  0.62266  0.63737  1.0000
  H   H3593     1.0  0.74081  0.35986  0.77376  1.0000
  C   C2017     1.0  0.85154  0.61951  0.58347  1.0000
  C   C2018     1.0  0.87228  0.63414  0.57757  1.0000
  C   C2019     1.0  0.82291  0.64188  0.72203  1.0000
  H   H3594     1.0  0.79488  0.50460  0.75496  1.0000
  H   H3595     1.0  0.83574  0.50457  0.80870  1.0000
  S   S449      1.0  0.86897  0.64288  0.70956  1.0000
  H   H3596     1.0  0.86268  0.59818  0.69411  1.0000
  H   H3597     1.0  0.83769  0.61947  0.50627  1.0000
  C   C2020     1.0  0.82273  0.53466  0.78147  1.0000
  H   H3598     1.0  0.79056  0.52950  0.77706  1.0000
  H   H3599     1.0  0.84869  0.61859  0.65256  1.0000
  H   H3600     1.0  0.85392  0.48479  0.84162  1.0000
  H   H3601     1.0  0.83420  0.52947  0.78939  1.0000
  C   C2021     1.0  0.78457  0.50790  0.77515  1.0000
  H   H3602     1.0  0.84147  0.61505  0.60145  1.0000
  H   H3603     1.0  0.86068  0.60897  0.58004  1.0000
  H   H3604     1.0  0.88055  0.62326  0.57207  1.0000
  C   C2022     1.0  0.87382  0.60163  0.67968  1.0000
  H   H3605     1.0  0.75995  0.39931  0.69193  1.0000
  C   C2023     1.0  0.73986  0.63092  0.87888  1.0000
  C   C2024     1.0  0.74133  0.46919  0.55357  1.0000
  C   C2025     1.0  0.73789  0.32760  0.77921  1.0000
  H   H3606     1.0  0.75016  0.36575  0.82410  1.0000
  H   H3607     1.0  0.74426  0.38821  0.77623  1.0000
  C   C2026     1.0  0.74299  0.32453  0.71741  1.0000
  N   N115      1.0  0.74120  0.38798  0.72299  1.0000
  H   H3608     1.0  0.74395  0.50810  0.50050  1.0000
  H   H3609     1.0  0.74476  0.46041  0.53577  1.0000
  C   C2027     1.0  0.74406  0.41669  0.71891  1.0000
  H   H3610     1.0  0.77513  0.62993  0.94433  1.0000
  C   C2028     1.0  0.81373  0.55796  0.98485  1.0000
  C   C2029     1.0  0.82874  0.64379  0.62022  1.0000
  H   H3611     1.0  0.82374  0.61366  0.98719  1.0000
  C   C2030     1.0  0.84562  0.64540  0.60208  1.0000
  S   S450      1.0  0.73880  0.32936  0.67412  1.0000
  C   C2031     1.0  0.75540  0.64176  0.97778  1.0000
  C   C2032     1.0  0.83751  0.64624  0.70999  1.0000
  C   C2033     1.0  0.89651  0.64564  0.56910  1.0000
  H   H3612     1.0  0.77165  0.64750  0.72194  1.0000
  H   H3613     1.0  0.81330  0.64808  0.70897  1.0000
  H   H3614     1.0  0.88989  0.56697  0.99101  1.0000
  H   H3615     1.0  0.88755  0.58754  0.99057  1.0000
  Fe  Fe225     1.0  0.78616  0.76857  0.39351  1.0000
  S   S451      1.0  0.79960  0.74635  0.41898  1.0000
  H   H3616     1.0  0.77739  0.85121  0.41670  1.0000
  H   H3617     1.0  0.81423  0.76334  0.35416  1.0000
  S   S452      1.0  0.79555  0.79025  0.38592  1.0000
  H   H3618     1.0  0.93729  0.80578  0.04449  1.0000
  Fe  Fe226     1.0  0.85688  0.69766  0.30767  1.0000
  S   S453      1.0  0.84177  0.68087  0.33892  1.0000
  S   S454      1.0  0.84984  0.72363  0.29353  1.0000
  Fe  Fe227     1.0  0.88499  0.67273  0.29737  1.0000
  H   H3619     1.0  0.81022  0.69874  0.37285  1.0000
  S   S455      1.0  0.90947  0.67179  0.26589  1.0000
  H   H3620     1.0  0.80801  0.77497  0.22180  1.0000
  H   H3621     1.0  0.82088  0.77502  0.44880  1.0000
  Fe  Fe228     1.0  0.86205  0.67008  0.36740  1.0000
  H   H3622     1.0  0.90733  0.96363  0.08232  1.0000
  S   S456      1.0  0.86635  0.68358  0.26472  1.0000
  S   S457      1.0  0.87626  0.68808  0.33846  1.0000
  C   C2034     1.0  0.88443  0.94671  0.07400  1.0000
  Fe  Fe229     1.0  0.94941  0.74423  0.17982  1.0000
  S   S458      1.0  0.95546  0.76762  0.17732  1.0000
  S   S459      1.0  0.93946  0.73259  0.23479  1.0000
  Fe  Fe230     1.0  0.95878  0.74611  0.09928  1.0000
  S   S460      1.0  0.96532  0.76946  0.09081  1.0000
  S   S461      1.0  0.96290  0.73387  0.05258  1.0000
  H   H3623     1.0  0.76692  0.67832  0.15642  1.0000
  H   H3624     1.0  0.81446  0.84614  0.30563  1.0000
  Fe  Fe231     1.0  0.94337  0.77508  0.12996  1.0000
  S   S462      1.0  0.92362  0.79485  0.11752  1.0000
  S   S463      1.0  0.97159  0.73587  0.14467  1.0000
  S   S464      1.0  0.93602  0.75223  0.13493  1.0000
  Fe  Fe232     1.0  0.86333  0.88468  0.11122  1.0000
  S   S465      1.0  0.88025  0.89052  0.13876  1.0000
  S   S466      1.0  0.87116  0.88790  0.05186  1.0000
  Fe  Fe233     1.0  0.84144  0.87624  0.18096  1.0000
  S   S467      1.0  0.85675  0.88189  0.21324  1.0000
  S   S468      1.0  0.81801  0.86959  0.20728  1.0000
  Fe  Fe234     1.0  0.85930  0.90310  0.17090  1.0000
  S   S469      1.0  0.85446  0.92842  0.17891  1.0000
  Fe  Fe235     1.0  0.87628  0.86884  0.17788  1.0000
  S   S470      1.0  0.89674  0.85186  0.19810  1.0000
  S   S471      1.0  0.84249  0.89841  0.14091  1.0000
  S   S472      1.0  0.86081  0.86204  0.14788  1.0000
  H   H3625     1.0  0.84121  0.72636  0.42397  1.0000
  C   C2035     1.0  0.83088  0.70691  0.48093  1.0000
  C   C2036     1.0  0.86761  0.94079  0.17750  1.0000
  C   C2037     1.0  0.86164  0.95660  0.17920  1.0000
  H   H3626     1.0  0.89485  0.70360  0.20897  1.0000
  C   C2038     1.0  0.88766  0.96177  0.17333  1.0000
  C   C2039     1.0  0.89365  0.94592  0.17201  1.0000
  C   C2040     1.0  0.88369  0.93546  0.17401  1.0000
  H   H3627     1.0  0.84920  0.96079  0.18225  1.0000
  H   H3628     1.0  0.86898  0.74201  0.21624  1.0000
  H   H3629     1.0  0.90607  0.94168  0.16961  1.0000
  H   H3630     1.0  0.88842  0.92329  0.17307  1.0000
  H   H3631     1.0  0.74552  0.81347  0.26331  1.0000
  H   H3632     1.0  0.94064  0.76290  0.04480  1.0000
  C   C2041     1.0  0.91598  0.80910  0.14449  1.0000
  C   C2042     1.0  0.90054  0.81676  0.14442  1.0000
  C   C2043     1.0  0.89443  0.82950  0.16189  1.0000
  C   C2044     1.0  0.90378  0.83486  0.17918  1.0000
  C   C2045     1.0  0.91905  0.82672  0.18075  1.0000
  C   C2046     1.0  0.92516  0.81382  0.16345  1.0000
  H   H3633     1.0  0.89333  0.81301  0.13023  1.0000
  H   H3634     1.0  0.88252  0.83525  0.16173  1.0000
  H   H3635     1.0  0.92630  0.83072  0.19441  1.0000
  H   H3636     1.0  0.93712  0.80796  0.16357  1.0000
  C   C2047     1.0  0.88069  0.74213  0.22162  1.0000
  C   C2048     1.0  0.83568  0.96853  0.09723  1.0000
  C   C2049     1.0  0.73915  0.69393  0.03115  1.0000
  C   C2050     1.0  0.91744  0.68896  0.25677  1.0000
  C   C2051     1.0  0.92757  0.69248  0.22466  1.0000
  C   C2052     1.0  0.93413  0.70600  0.21710  1.0000
  C   C2053     1.0  0.93096  0.71588  0.24210  1.0000
  C   C2054     1.0  0.92093  0.71231  0.27426  1.0000
  C   C2055     1.0  0.91410  0.69902  0.28141  1.0000
  H   H3637     1.0  0.93027  0.68475  0.20549  1.0000
  H   H3638     1.0  0.94188  0.70859  0.19227  1.0000
  H   H3639     1.0  0.91850  0.71982  0.29382  1.0000
  H   H3640     1.0  0.90661  0.69629  0.30647  1.0000
  C   C2056     1.0  0.83842  0.75458  0.43950  1.0000
  C   C2057     1.0  0.85095  0.72099  0.43840  1.0000
  H   H3641     1.0  0.85793  0.95909  0.04355  1.0000
  C   C2058     1.0  0.76933  0.70887  0.25029  1.0000
  H   H3642     1.0  0.79748  0.72503  0.34421  1.0000
  H   H3643     1.0  0.77391  0.86421  0.35830  1.0000
  H   H3644     1.0  0.83400  0.75440  0.30473  1.0000
  H   H3645     1.0  0.84870  0.82837  0.08443  1.0000
  H   H3646     1.0  0.92678  0.77671  0.99506  1.0000
  H   H3647     1.0  0.95936  0.78885  0.22571  1.0000
  C   C2059     1.0  0.74835  0.74990  0.27147  1.0000
  C   C2060     1.0  0.81118  0.82036  0.26394  1.0000
  H   H3648     1.0  0.83258  0.69595  0.26163  1.0000
  C   C2061     1.0  0.82832  0.83804  0.22937  1.0000
  C   C2062     1.0  0.81570  0.85049  0.22850  1.0000
  C   C2063     1.0  0.80079  0.84777  0.24524  1.0000
  C   C2064     1.0  0.79854  0.83278  0.26291  1.0000
  H   H3649     1.0  0.83984  0.83999  0.21649  1.0000
  H   H3650     1.0  0.79095  0.85733  0.24444  1.0000
  H   H3651     1.0  0.78701  0.83080  0.27531  1.0000
  H   H3652     1.0  0.76065  0.76266  0.29388  1.0000
  C   C2065     1.0  0.81455  0.74034  0.38549  1.0000
  C   C2066     1.0  0.82147  0.72465  0.38780  1.0000
  C   C2067     1.0  0.83325  0.71975  0.36066  1.0000
  C   C2068     1.0  0.83746  0.73034  0.33022  1.0000
  C   C2069     1.0  0.83080  0.74613  0.32821  1.0000
  C   C2070     1.0  0.81940  0.75115  0.35598  1.0000
  H   H3653     1.0  0.81772  0.71626  0.41053  1.0000
  H   H3654     1.0  0.83882  0.70770  0.36314  1.0000
  C   C2071     1.0  0.88753  0.78024  0.00177  1.0000
  H   H3655     1.0  0.75448  0.66234  0.20894  1.0000
  C   C2072     1.0  0.87174  0.83305  0.06039  1.0000
  C   C2073     1.0  0.88341  0.84269  0.06479  1.0000
  H   H3656     1.0  0.74820  0.79283  0.27074  1.0000
  H   H3657     1.0  0.98305  0.71556  0.36305  1.0000
  C   C2074     1.0  0.91012  0.85222  0.08195  1.0000
  H   H3658     1.0  0.79627  0.65200  0.28134  1.0000
  H   H3659     1.0  0.83217  0.96035  0.08410  1.0000
  C   C2075     1.0  0.91962  0.86400  0.08452  1.0000
  H   H3660     1.0  0.81356  0.66035  0.22458  1.0000
  S   S473      1.0  0.83411  0.66000  0.27185  1.0000
  H   H3661     1.0  0.79701  0.86443  0.45439  1.0000
  H   H3662     1.0  0.88632  0.74362  0.45001  1.0000
  H   H3663     1.0  0.88048  0.71198  0.44089  1.0000
  H   H3664     1.0  0.87699  0.85483  0.06583  1.0000
  H   H3665     1.0  0.88634  0.83794  0.09160  1.0000
  H   H3666     1.0  0.97992  0.75535  0.30732  1.0000
  H   H3667     1.0  0.89471  0.73426  0.41203  1.0000
  H   H3668     1.0  0.78743  0.80096  0.22705  1.0000
  H   H3669     1.0  0.73770  0.67864  0.33804  1.0000
  H   H3670     1.0  0.89922  0.85419  0.10148  1.0000
  H   H3671     1.0  0.91682  0.84042  0.08999  1.0000
  C   C2076     1.0  0.81271  0.85327  0.32668  1.0000
  C   C2077     1.0  0.76303  0.80304  0.22448  1.0000
  S   S474      1.0  0.76179  0.77895  0.41552  1.0000
  H   H3672     1.0  0.89427  0.68635  0.46899  1.0000
  H   H3673     1.0  0.93057  0.83210  0.01333  1.0000
  H   H3674     1.0  0.92169  0.86229  0.11222  1.0000
  H   H3675     1.0  0.93105  0.86239  0.06661  1.0000
  H   H3676     1.0  0.91319  0.87609  0.07758  1.0000
  H   H3677     1.0  0.82931  0.87406  0.27952  1.0000
  H   H3678     1.0  0.76632  0.66960  0.28842  1.0000
  H   H3679     1.0  0.85949  0.83173  0.11515  1.0000
  H   H3680     1.0  0.77735  0.65853  0.16186  1.0000
  C   C2078     1.0  0.79817  0.70103  0.36743  1.0000
  H   H3681     1.0  0.78209  0.86148  0.31345  1.0000
  H   H3682     1.0  0.76724  0.71741  0.22583  1.0000
  H   H3683     1.0  0.85577  0.92776  0.06107  1.0000
  H   H3684     1.0  0.79683  0.74196  0.29474  1.0000
  H   H3685     1.0  0.83244  0.76745  0.48338  1.0000
  H   H3686     1.0  0.96823  0.72366  0.33604  1.0000
  H   H3687     1.0  0.89998  0.93296  0.03588  1.0000
  N   N116      1.0  0.86216  0.73197  0.43185  1.0000
  N   N117      1.0  0.88464  0.75819  0.20859  1.0000
  C   C2079     1.0  0.87062  0.76976  0.22174  1.0000
  C   C2080     1.0  0.88789  0.76093  0.16841  1.0000
  C   C2081     1.0  0.89885  0.75861  0.22311  1.0000
  C   C2082     1.0  0.90445  0.77438  0.21458  1.0000
  C   C2083     1.0  0.86514  0.76757  0.26253  1.0000
  C   C2084     1.0  0.88493  0.77803  0.14863  1.0000
  C   C2085     1.0  0.89103  0.77902  0.10882  1.0000
  C   C2086     1.0  0.91614  0.77454  0.23769  1.0000
  C   C2087     1.0  0.85195  0.78080  0.27284  1.0000
  H   H3688     1.0  0.86055  0.76923  0.20975  1.0000
  H   H3689     1.0  0.87249  0.78191  0.21278  1.0000
  H   H3690     1.0  0.88042  0.75503  0.15829  1.0000
  H   H3691     1.0  0.87991  0.73887  0.25094  1.0000
  H   H3692     1.0  0.89716  0.75453  0.25231  1.0000
  H   H3693     1.0  0.90898  0.75011  0.21259  1.0000
  H   H3694     1.0  0.89485  0.78436  0.21889  1.0000
  H   H3695     1.0  0.91045  0.77627  0.18658  1.0000
  H   H3696     1.0  0.86062  0.75659  0.27229  1.0000
  H   H3697     1.0  0.87473  0.76735  0.27654  1.0000
  H   H3698     1.0  0.87225  0.78285  0.15201  1.0000
  H   H3699     1.0  0.89053  0.78566  0.15855  1.0000
  H   H3700     1.0  0.90376  0.77443  0.10384  1.0000
  H   H3701     1.0  0.88503  0.77223  0.09722  1.0000
  H   H3702     1.0  0.88894  0.79136  0.09536  1.0000
  H   H3703     1.0  0.91066  0.77322  0.26613  1.0000
  H   H3704     1.0  0.92633  0.76501  0.23403  1.0000
  H   H3705     1.0  0.92030  0.78579  0.22993  1.0000
  H   H3706     1.0  0.85609  0.79205  0.26579  1.0000
  H   H3707     1.0  0.84200  0.78167  0.25925  1.0000
  H   H3708     1.0  0.84773  0.77857  0.30192  1.0000
  H   H3709     1.0  0.75849  0.74569  0.25315  1.0000
  H   H3710     1.0  0.74377  0.69183  0.29796  1.0000
  H   H3711     1.0  0.78492  0.67359  0.17357  1.0000
  H   H3712     1.0  0.85598  0.97296  0.11068  1.0000
  C   C2088     1.0  0.85945  0.88441  0.02488  1.0000
  H   H3713     1.0  0.90013  0.75551  0.15871  1.0000
  Fe  Fe236     1.0  0.77094  0.80123  0.40445  1.0000
  H   H3714     1.0  0.87269  0.72111  0.47814  1.0000
  H   H3715     1.0  0.82969  0.74706  0.45155  1.0000
  S   S475      1.0  0.90056  0.97453  0.17088  1.0000
  H   H3716     1.0  0.83962  0.88143  0.06606  1.0000
  C   C2089     1.0  0.77747  0.85556  0.34027  1.0000
  H   H3717     1.0  0.84785  0.86639  0.29365  1.0000
  H   H3718     1.0  0.79302  0.83391  0.33349  1.0000
  C   C2090     1.0  0.84782  0.92735  0.04324  1.0000
  H   H3719     1.0  0.80333  0.76975  0.26929  1.0000
  H   H3720     1.0  0.80559  0.86458  0.31641  1.0000
  H   H3721     1.0  0.89563  0.91535  0.09456  1.0000
  H   H3722     1.0  0.89360  0.73035  0.17663  1.0000
  C   C2091     1.0  0.82603  0.82304  0.24680  1.0000
  C   C2092     1.0  0.87608  0.72361  0.44872  1.0000
  C   C2093     1.0  0.85484  0.74640  0.44786  1.0000
  H   H3723     1.0  0.85658  0.71019  0.42740  1.0000
  H   H3724     1.0  0.79577  0.69022  0.36184  1.0000
  C   C2094     1.0  0.84437  0.88163  0.03817  1.0000
  H   H3725     1.0  0.74749  0.68723  0.04874  1.0000
  H   H3726     1.0  0.97340  0.73559  0.36212  1.0000
  Fe  Fe237     1.0  0.78967  0.79526  0.33128  1.0000
  H   H3727     1.0  0.90753  0.71131  0.45062  1.0000
  H   H3728     1.0  0.83842  0.75750  0.41053  1.0000
  H   H3729     1.0  0.78476  0.65067  0.32455  1.0000
  H   H3730     1.0  0.87498  0.71385  0.21355  1.0000
  H   H3731     1.0  0.86244  0.75526  0.43860  1.0000
  C   C2095     1.0  0.76782  0.81183  0.48946  1.0000
  S   S476      1.0  0.78234  0.77220  0.33743  1.0000
  C   C2096     1.0  0.82580  0.69995  0.23961  1.0000
  H   H3732     1.0  0.85614  0.95279  0.11072  1.0000
  C   C2097     1.0  0.88119  0.73067  0.33249  1.0000
  N   N118      1.0  0.89801  0.84285  0.03709  1.0000
  C   C2098     1.0  0.79597  0.71437  0.33615  1.0000
  C   C2099     1.0  0.79999  0.85674  0.38712  1.0000
  C   C2100     1.0  0.88993  0.73224  0.44083  1.0000
  H   H3733     1.0  0.85615  0.74218  0.38007  1.0000
  H   H3734     1.0  0.78406  0.83445  0.37768  1.0000
  Fe  Fe238     1.0  0.75850  0.78437  0.35817  1.0000
  H   H3735     1.0  0.82841  0.72323  0.23671  1.0000
  H   H3736     1.0  0.76143  0.67767  0.22059  1.0000
  H   H3737     1.0  0.85813  0.97881  0.04501  1.0000
  C   C2101     1.0  0.90311  0.72265  0.45996  1.0000
  C   C2102     1.0  0.74707  0.80337  0.24972  1.0000
  C   C2103     1.0  0.86669  0.73693  0.39230  1.0000
  C   C2104     1.0  0.74210  0.66902  0.28924  1.0000
  C   C2105     1.0  0.77618  0.80065  0.24550  1.0000
  H   H3738     1.0  0.82340  0.83350  0.38811  1.0000
  C   C2106     1.0  0.90275  0.97361  0.06266  1.0000
  H   H3739     1.0  0.91065  0.82270  0.06766  1.0000
  C   C2107     1.0  0.89225  0.72854  0.20594  1.0000
  H   H3740     1.0  0.90386  0.72718  0.21297  1.0000
  C   C2108     1.0  0.97836  0.79173  0.00150  1.0000
  H   H3741     1.0  0.86788  0.71580  0.37131  1.0000
  N   N119      1.0  0.80415  0.84561  0.36107  1.0000
  H   H3742     1.0  0.78384  0.71595  0.33188  1.0000
  H   H3743     1.0  0.97309  0.77862  0.27682  1.0000
  H   H3744     1.0  0.77704  0.78920  0.26348  1.0000
  H   H3745     1.0  0.87590  0.93920  0.07503  1.0000
  H   H3746     1.0  0.82509  0.79917  0.39440  1.0000
  S   S477      1.0  0.76992  0.81766  0.44257  1.0000
  C   C2109     1.0  0.88653  0.71320  0.22051  1.0000
  C   C2110     1.0  0.92279  0.82410  0.01317  1.0000
  H   H3747     1.0  0.87363  0.74633  0.38645  1.0000
  H   H3748     1.0  0.89951  0.86641  0.03856  1.0000
  H   H3749     1.0  0.88366  0.67828  0.42345  1.0000
  H   H3750     1.0  0.97484  0.76164  0.23113  1.0000
  C   C2111     1.0  0.95351  0.74431  0.01723  1.0000
  H   H3751     1.0  0.79003  0.70417  0.39158  1.0000
  H   H3752     1.0  0.82356  0.87743  0.02520  1.0000
  H   H3753     1.0  0.81964  0.71073  0.30798  1.0000
  H   H3754     1.0  0.92420  0.79883  0.02486  1.0000
  C   C2112     1.0  0.87565  0.72386  0.37119  1.0000
  H   H3755     1.0  0.98210  0.72530  0.25127  1.0000
  H   H3756     1.0  0.90647  0.92584  0.11228  1.0000
  H   H3757     1.0  0.84238  0.68458  0.20751  1.0000
  H   H3758     1.0  0.86714  0.92136  0.00271  1.0000
  C   C2113     1.0  0.83531  0.87937  0.01505  1.0000
  H   H3759     1.0  0.88559  0.71040  0.24984  1.0000
  C   C2114     1.0  0.80456  0.75109  0.24025  1.0000
  H   H3760     1.0  0.90085  0.81815  0.03790  1.0000
  S   S478      1.0  0.80890  0.80124  0.28523  1.0000
  H   H3761     1.0  0.83728  0.93649  0.04751  1.0000
  H   H3762     1.0  0.84436  0.91575  0.05070  1.0000
  H   H3763     1.0  0.78755  0.69794  0.27984  1.0000
  N   N120      1.0  0.87974  0.96274  0.05274  1.0000
  H   H3764     1.0  0.79218  0.75457  0.23676  1.0000
  H   H3765     1.0  0.76325  0.81422  0.20572  1.0000
  H   H3766     1.0  0.83585  0.81350  0.24704  1.0000
  H   H3767     1.0  0.83073  0.70042  0.18239  1.0000
  C   C2115     1.0  0.80616  0.73796  0.27313  1.0000
  H   H3768     1.0  0.97954  0.76711  0.01511  1.0000
  C   C2116     1.0  0.83701  0.69713  0.20527  1.0000
  H   H3769     1.0  0.84646  0.70391  0.20043  1.0000
  Fe  Fe239     1.0  0.85262  0.66571  0.29763  1.0000
  C   C2117     1.0  0.98374  0.74618  0.29049  1.0000
  C   C2118     1.0  0.78596  0.86373  0.44679  1.0000
  H   H3770     1.0  0.76699  0.69758  0.24749  1.0000
  C   C2119     1.0  0.87752  0.67739  0.45055  1.0000
  H   H3771     1.0  0.98125  0.73919  0.21088  1.0000
  H   H3772     1.0  0.78849  0.73034  0.23321  1.0000
  C   C2120     1.0  0.78609  0.70685  0.25575  1.0000
  C   C2121     1.0  0.90047  0.93697  0.06053  1.0000
  C   C2122     1.0  0.78887  0.85191  0.42202  1.0000
  H   H3773     1.0  0.81699  0.69253  0.24406  1.0000
  H   H3774     1.0  0.79480  0.86861  0.37447  1.0000
  C   C2123     1.0  0.76280  0.85021  0.33756  1.0000
  H   H3775     1.0  0.87677  0.82043  0.06445  1.0000
  H   H3776     1.0  0.86835  0.83651  0.03384  1.0000
  H   H3777     1.0  0.88604  0.71707  0.38225  1.0000
  H   H3778     1.0  0.79370  0.70251  0.23226  1.0000
  C   C2124     1.0  0.88351  0.68197  0.47648  1.0000
  H   H3779     1.0  0.89007  0.73784  0.33055  1.0000
  H   H3780     1.0  0.76571  0.79346  0.20896  1.0000
  H   H3781     1.0  0.78061  0.87542  0.43381  1.0000
  C   C2125     1.0  0.85685  0.83542  0.08777  1.0000
  H   H3782     1.0  0.88404  0.94757  0.10213  1.0000
  C   C2126     1.0  0.98019  0.78039  0.24994  1.0000
  C   C2127     1.0  0.87158  0.96707  0.17677  1.0000
  H   H3783     1.0  0.82252  0.76278  0.24629  1.0000
  C   C2128     1.0  0.83198  0.80483  0.37003  1.0000
  H   H3784     1.0  0.81442  0.72178  0.21210  1.0000
  H   H3785     1.0  0.82701  0.86580  0.34549  1.0000
  C   C2129     1.0  0.90484  0.92249  0.08779  1.0000
  H   H3786     1.0  0.84192  0.80830  0.37715  1.0000
  H   H3787     1.0  0.83662  0.79623  0.35187  1.0000
  C   C2130     1.0  0.81840  0.71746  0.23812  1.0000
  H   H3788     1.0  0.77785  0.86006  0.47132  1.0000
  H   H3789     1.0  0.81283  0.81483  0.34258  1.0000
  H   H3790     1.0  0.85404  0.74382  0.47722  1.0000
  H   H3791     1.0  0.82936  0.82419  0.32769  1.0000
  H   H3792     1.0  0.87125  0.73793  0.32033  1.0000
  Fe  Fe240     1.0  0.97696  0.75981  0.13859  1.0000
  C   C2131     1.0  0.82182  0.81902  0.35150  1.0000
  C   C2132     1.0  0.98552  0.76495  0.23500  1.0000
  H   H3793     1.0  0.80810  0.69867  0.30028  1.0000
  H   H3794     1.0  0.96609  0.79396  0.01510  1.0000
  H   H3795     1.0  0.88647  0.72109  0.31720  1.0000
  H   H3796     1.0  0.90996  0.94367  0.05460  1.0000
  H   H3797     1.0  0.91591  0.91531  0.07675  1.0000
  H   H3798     1.0  0.83195  0.98069  0.08397  1.0000
  C   C2133     1.0  0.78975  0.72252  0.25907  1.0000
  C   C2134     1.0  0.80992  0.76550  0.24478  1.0000
  H   H3799     1.0  0.75408  0.86047  0.32856  1.0000
  H   H3800     1.0  0.88696  0.78151  0.02962  1.0000
  H   H3801     1.0  0.85101  0.84787  0.08421  1.0000
  C   C2135     1.0  0.76495  0.66636  0.21109  1.0000
  H   H3802     1.0  0.81732  0.73761  0.28158  1.0000
  H   H3803     1.0  0.83939  0.85460  0.27394  1.0000
  H   H3804     1.0  0.79385  0.84041  0.43647  1.0000
  C   C2136     1.0  0.78981  0.84156  0.35377  1.0000
  C   C2137     1.0  0.94299  0.75829  0.02040  1.0000
  H   H3805     1.0  0.97678  0.79490  0.19873  1.0000
  S   S479      1.0  0.85602  0.66488  0.42847  1.0000
  H   H3806     1.0  0.91286  0.72907  0.45441  1.0000
  H   H3807     1.0  0.76104  0.71296  0.27336  1.0000
  N   N121      1.0  0.80543  0.72187  0.26819  1.0000
  C   C2138     1.0  0.86384  0.67131  0.45992  1.0000
  C   C2139     1.0  0.90767  0.82663  0.04065  1.0000
  S   S480      1.0  0.76544  0.80802  0.34854  1.0000
  H   H3808     1.0  0.81157  0.74744  0.21548  1.0000
  C   C2140     1.0  0.81409  0.83082  0.37687  1.0000
  H   H3809     1.0  0.83659  0.84638  0.33915  1.0000
  C   C2141     1.0  0.80791  0.71086  0.30246  1.0000
  H   H3810     1.0  0.78030  0.72797  0.27859  1.0000
  C   C2142     1.0  0.82070  0.64883  0.22768  1.0000
  H   H3811     1.0  0.80699  0.82442  0.39980  1.0000
  H   H3812     1.0  0.81069  0.85827  0.39507  1.0000
  C   C2143     1.0  0.82862  0.85691  0.32848  1.0000
  C   C2144     1.0  0.83673  0.86338  0.29165  1.0000
  C   C2145     1.0  0.97026  0.79268  0.22623  1.0000
  S   S481      1.0  0.87216  0.65341  0.32818  1.0000
  H   H3813     1.0  0.77420  0.81001  0.26148  1.0000
  C   C2146     1.0  0.77418  0.66935  0.17350  1.0000
  H   H3814     1.0  0.77176  0.74848  0.48317  1.0000
  C   C2147     1.0  0.83280  0.76973  0.45428  1.0000
  H   H3815     1.0  0.75764  0.84419  0.36383  1.0000
  H   H3816     1.0  0.86679  0.97918  0.17821  1.0000
  C   C2148     1.0  0.93517  0.76611  0.99226  1.0000
  C   C2149     1.0  0.75891  0.66060  0.29380  1.0000
  H   H3817     1.0  0.74102  0.67367  0.26124  1.0000
  H   H3818     1.0  0.82067  0.71511  0.47161  1.0000
  H   H3819     1.0  0.97282  0.74447  0.28378  1.0000
  H   H3820     1.0  0.83458  0.69741  0.46496  1.0000
  H   H3821     1.0  0.96709  0.80378  0.23671  1.0000
  H   H3822     1.0  0.78001  0.76584  0.47356  1.0000
  H   H3823     1.0  0.91769  0.85470  0.02534  1.0000
  C   C2150     1.0  0.74091  0.66544  0.13297  1.0000
  C   C2151     1.0  0.85602  0.92991  0.00456  1.0000
  C   C2152     1.0  0.90650  0.85445  0.04389  1.0000
  H   H3824     1.0  0.88162  0.85566  0.00265  1.0000
  H   H3825     1.0  0.98585  0.79228  0.02029  1.0000
  C   C2153     1.0  0.93188  0.80747  0.02060  1.0000
  H   H3826     1.0  0.75814  0.65576  0.32266  1.0000
  C   C2154     1.0  0.74960  0.75954  0.29455  1.0000
  H   H3827     1.0  0.90900  0.97214  0.03565  1.0000
  C   C2155     1.0  0.84416  0.71553  0.47778  1.0000
  H   H3828     1.0  0.74791  0.66410  0.02551  1.0000
  C   C2156     1.0  0.77489  0.65442  0.23616  1.0000
  H   H3829     1.0  0.76550  0.84224  0.31801  1.0000
  H   H3830     1.0  0.74405  0.67383  0.10970  1.0000
  H   H3831     1.0  0.78405  0.66044  0.23857  1.0000
  H   H3832     1.0  0.82966  0.96720  0.12532  1.0000
  H   H3833     1.0  0.84059  0.77815  0.44146  1.0000
  C   C2157     1.0  0.97798  0.72625  0.34587  1.0000
  H   H3834     1.0  0.85860  0.94183  0.99810  1.0000
  H   H3835     1.0  0.89909  0.77325  0.99275  1.0000
  C   C2158     1.0  0.85325  0.96483  0.09618  1.0000
  C   C2159     1.0  0.86217  0.96656  0.05738  1.0000
  C   C2160     1.0  0.88587  0.96282  0.01365  1.0000
  H   H3836     1.0  0.73752  0.76357  0.18960  1.0000
  H   H3837     1.0  0.74326  0.79424  0.18519  1.0000
  H   H3838     1.0  0.74098  0.82043  0.18615  1.0000
  H   H3839     1.0  0.88161  0.95375  0.00479  1.0000
  H   H3840     1.0  0.87831  0.77392  0.00092  1.0000
  H   H3841     1.0  0.89872  0.95954  0.00823  1.0000
  H   H3842     1.0  0.94124  0.80524  0.99764  1.0000
  C   C2161     1.0  0.89324  0.84788  0.00081  1.0000
  C   C2162     1.0  0.73808  0.66916  0.01063  1.0000
  C   C2163     1.0  0.88501  0.97491  0.06634  1.0000
  C   C2164     1.0  0.74826  0.64984  0.13525  1.0000
  H   H3843     1.0  0.88042  0.97452  0.09516  1.0000
  H   H3844     1.0  0.74571  0.69861  0.00512  1.0000
  H   H3845     1.0  0.74440  0.78075  0.22541  1.0000
  H   H3846     1.0  0.89904  0.72039  0.48913  1.0000
  H   H3847     1.0  0.85330  0.70748  0.49134  1.0000
  Fe  Fe241     1.0  0.87670  0.68634  0.60321  1.0000
  S   S482      1.0  0.85541  0.67867  0.63794  1.0000
  S   S483      1.0  0.88338  0.68790  0.54272  1.0000
  Fe  Fe242     1.0  0.88758  0.69489  0.66651  1.0000
  S   S484      1.0  0.86716  0.68739  0.70553  1.0000
  S   S485      1.0  0.90521  0.70845  0.67491  1.0000
  Fe  Fe243     1.0  0.87101  0.66698  0.67764  1.0000
  H   H3848     1.0  0.80854  0.68664  0.76721  1.0000
  Fe  Fe244     1.0  0.85309  0.69942  0.66323  1.0000
  S   S486      1.0  0.82918  0.71258  0.68064  1.0000
  S   S487      1.0  0.89285  0.67324  0.64142  1.0000
  S   S488      1.0  0.87304  0.70831  0.62554  1.0000
  Fe  Fe245     1.0  0.77897  0.82075  0.70722  1.0000
  S   S489      1.0  0.78979  0.81720  0.65114  1.0000
  S   S490      1.0  0.77850  0.84342  0.72585  1.0000
  Fe  Fe246     1.0  0.80139  0.79442  0.67893  1.0000
  S   S491      1.0  0.82647  0.78453  0.66176  1.0000
  C   C2165     1.0  0.76265  0.65308  0.74202  1.0000
  S   S492      1.0  0.79172  0.79834  0.73438  1.0000
  Fe  Fe247     1.0  0.86994  0.87502  0.83725  1.0000
  S   S493      1.0  0.85789  0.88667  0.79093  1.0000
  S   S494      1.0  0.89525  0.86403  0.83684  1.0000
  Fe  Fe248     1.0  0.84032  0.88024  0.89141  1.0000
  S   S495      1.0  0.82570  0.89138  0.84940  1.0000
  S   S496      1.0  0.82983  0.87739  0.94981  1.0000
  Fe  Fe249     1.0  0.83935  0.87253  0.81873  1.0000
  S   S497      1.0  0.83368  0.85420  0.79297  1.0000
  Fe  Fe250     1.0  0.84530  0.90463  0.82545  1.0000
  S   S498      1.0  0.83825  0.93123  0.81415  1.0000
  S   S499      1.0  0.85225  0.86032  0.86343  1.0000
  S   S500      1.0  0.85912  0.89409  0.86881  1.0000
  H   H3849     1.0  0.81594  0.76396  0.59063  1.0000
  Fe  Fe251     1.0  0.93730  0.76497  0.87133  1.0000
  S   S501      1.0  0.95114  0.78191  0.83502  1.0000
  S   S502      1.0  0.92746  0.76975  0.92674  1.0000
  Fe  Fe252     1.0  0.93676  0.74721  0.81194  1.0000
  S   S503      1.0  0.95100  0.76274  0.77158  1.0000
  S   S504      1.0  0.92570  0.72743  0.80477  1.0000
  Fe  Fe253     1.0  0.96563  0.76076  0.81380  1.0000
  Fe  Fe254     1.0  0.93541  0.78246  0.79687  1.0000
  S   S505      1.0  0.92121  0.80338  0.76706  1.0000
  S   S506      1.0  0.95246  0.74367  0.85258  1.0000
  S   S507      1.0  0.92057  0.76701  0.83480  1.0000
  C   C2166     1.0  0.90222  0.84707  0.81778  1.0000
  C   C2167     1.0  0.89268  0.84126  0.80183  1.0000
  C   C2168     1.0  0.89864  0.82791  0.78612  1.0000
  C   C2169     1.0  0.91392  0.81986  0.78777  1.0000
  C   C2170     1.0  0.92332  0.82543  0.80461  1.0000
  C   C2171     1.0  0.91758  0.83919  0.81885  1.0000
  H   H3850     1.0  0.88078  0.84718  0.80107  1.0000
  H   H3851     1.0  0.89137  0.82373  0.77288  1.0000
  H   H3852     1.0  0.93517  0.81941  0.80561  1.0000
  H   H3853     1.0  0.92504  0.84371  0.83090  1.0000
  C   C2172     1.0  0.84944  0.94479  0.81747  1.0000
  C   C2173     1.0  0.84188  0.95860  0.83033  1.0000
  C   C2174     1.0  0.85015  0.97038  0.82979  1.0000
  C   C2175     1.0  0.86602  0.96861  0.81556  1.0000
  C   C2176     1.0  0.87363  0.95466  0.80351  1.0000
  C   C2177     1.0  0.86544  0.94277  0.80469  1.0000
  H   H3854     1.0  0.82949  0.96032  0.84013  1.0000
  H   H3855     1.0  0.82819  0.96122  0.92632  1.0000
  H   H3856     1.0  0.88591  0.95316  0.79251  1.0000
  H   H3857     1.0  0.87140  0.93229  0.79445  1.0000
  C   C2178     1.0  0.95979  0.68998  0.73118  1.0000
  C   C2179     1.0  0.85656  0.88217  0.96599  1.0000
  H   H3858     1.0  0.86687  0.92429  0.87369  1.0000
  H   H3859     1.0  0.89425  0.80236  0.98152  1.0000
  H   H3860     1.0  0.77747  0.83073  0.49658  1.0000
  C   C2180     1.0  0.89913  0.85922  0.93487  1.0000
  H   H3861     1.0  0.86146  0.88211  0.93845  1.0000
  C   C2181     1.0  0.91439  0.81125  0.92448  1.0000
  H   H3862     1.0  0.86731  0.91060  0.93907  1.0000
  C   C2182     1.0  0.81230  0.74010  0.55888  1.0000
  C   C2183     1.0  0.73770  0.74452  0.69809  1.0000
  C   C2184     1.0  0.83728  0.96120  0.94164  1.0000
  C   C2185     1.0  0.93806  0.76014  0.96067  1.0000
  C   C2186     1.0  0.94887  0.74639  0.95717  1.0000
  H   H3863     1.0  0.88401  0.82538  0.94828  1.0000
  H   H3864     1.0  0.95915  0.72290  0.74865  1.0000
  H   H3865     1.0  0.95096  0.74164  0.93306  1.0000
  H   H3866     1.0  0.96491  0.69782  0.88704  1.0000
  C   C2187     1.0  0.79355  0.84613  0.74603  1.0000
  C   C2188     1.0  0.79248  0.86038  0.75709  1.0000
  C   C2189     1.0  0.80434  0.86296  0.77266  1.0000
  C   C2190     1.0  0.81746  0.85129  0.77722  1.0000
  C   C2191     1.0  0.81844  0.83704  0.76645  1.0000
  C   C2192     1.0  0.80661  0.83447  0.75092  1.0000
  H   H3867     1.0  0.78242  0.86948  0.75353  1.0000
  H   H3868     1.0  0.80341  0.87401  0.78072  1.0000
  H   H3869     1.0  0.82849  0.82792  0.76996  1.0000
  H   H3870     1.0  0.80766  0.82347  0.74256  1.0000
  C   C2193     1.0  0.90973  0.71432  0.71179  1.0000
  C   C2194     1.0  0.91898  0.72579  0.70527  1.0000
  C   C2195     1.0  0.92344  0.73043  0.73335  1.0000
  C   C2196     1.0  0.91897  0.72342  0.76847  1.0000
  C   C2197     1.0  0.90965  0.71200  0.77503  1.0000
  C   C2198     1.0  0.90488  0.70762  0.74699  1.0000
  H   H3871     1.0  0.92284  0.73106  0.67819  1.0000
  H   H3872     1.0  0.93067  0.73916  0.72772  1.0000
  H   H3873     1.0  0.90618  0.70639  0.80204  1.0000
  H   H3874     1.0  0.89784  0.69873  0.75255  1.0000
  C   C2199     1.0  0.82934  0.73231  0.67781  1.0000
  C   C2200     1.0  0.84072  0.73934  0.65367  1.0000
  C   C2201     1.0  0.84004  0.75539  0.64932  1.0000
  C   C2202     1.0  0.82810  0.76437  0.66959  1.0000
  C   C2203     1.0  0.81711  0.75726  0.69492  1.0000
  C   C2204     1.0  0.81764  0.74124  0.69880  1.0000
  H   H3875     1.0  0.84957  0.73264  0.63692  1.0000
  H   H3876     1.0  0.84852  0.76089  0.62965  1.0000
  H   H3877     1.0  0.80812  0.76411  0.71145  1.0000
  H   H3878     1.0  0.80893  0.73582  0.71789  1.0000
  C   C2205     1.0  0.77616  0.68725  0.79153  1.0000
  C   C2206     1.0  0.86735  0.92324  0.93050  1.0000
  N   N122      1.0  0.85118  0.93243  0.94015  1.0000
  C   C2207     1.0  0.89333  0.75425  0.63543  1.0000
  H   H3879     1.0  0.75662  0.67390  0.76453  1.0000
  H   H3880     1.0  0.91592  0.80024  0.94379  1.0000
  H   H3881     1.0  0.87566  0.92594  0.94468  1.0000
  H   H3882     1.0  0.87731  0.93778  0.88177  1.0000
  H   H3883     1.0  0.88413  0.96810  0.94132  1.0000
  C   C2208     1.0  0.81836  0.65980  0.62213  1.0000
  H   H3884     1.0  0.90910  0.82099  0.93895  1.0000
  H   H3885     1.0  0.75702  0.73199  0.89110  1.0000
  H   H3886     1.0  0.74040  0.76700  0.70392  1.0000
  C   C2209     1.0  0.87958  0.82431  0.92480  1.0000
  H   H3887     1.0  0.75675  0.71029  0.82670  1.0000
  H   H3888     1.0  0.85640  0.82985  0.91002  1.0000
  H   H3889     1.0  0.80130  0.76642  0.50937  1.0000
  H   H3890     1.0  0.98328  0.75301  0.95293  1.0000
  C   C2210     1.0  0.75842  0.79543  0.54439  1.0000
  C   C2211     1.0  0.95340  0.69889  0.87948  1.0000
  H   H3891     1.0  0.76615  0.67625  0.71895  1.0000
  C   C2212     1.0  0.86197  0.67504  0.52123  1.0000
  H   H3892     1.0  0.84944  0.65264  0.61708  1.0000
  H   H3893     1.0  0.80191  0.73535  0.63306  1.0000
  H   H3894     1.0  0.74163  0.75369  0.91946  1.0000
  C   C2213     1.0  0.96490  0.70511  0.81392  1.0000
  H   H3895     1.0  0.76431  0.69146  0.78470  1.0000
  Fe  Fe255     1.0  0.77010  0.80492  0.65313  1.0000
  H   H3896     1.0  0.95530  0.68306  0.78802  1.0000
  C   C2214     1.0  0.85498  0.83969  0.95610  1.0000
  H   H3897     1.0  0.82534  0.71148  0.59906  1.0000
  H   H3898     1.0  0.79515  0.78889  0.54476  1.0000
  H   H3899     1.0  0.76201  0.65072  0.97869  1.0000
  C   C2215     1.0  0.90389  0.85715  0.97112  1.0000
  H   H3900     1.0  0.86188  0.95182  0.94045  1.0000
  C   C2216     1.0  0.80053  0.78402  0.56875  1.0000
  H   H3901     1.0  0.93771  0.81398  0.92593  1.0000
  N   N123      1.0  0.88756  0.80940  0.91140  1.0000
  C   C2217     1.0  0.90451  0.81007  0.89753  1.0000
  C   C2218     1.0  0.88027  0.80877  0.88037  1.0000
  C   C2219     1.0  0.88583  0.79499  0.93911  1.0000
  C   C2220     1.0  0.88815  0.79546  0.85914  1.0000
  C   C2221     1.0  0.87809  0.79395  0.83348  1.0000
  H   H3902     1.0  0.91065  0.79947  0.88628  1.0000
  H   H3903     1.0  0.90546  0.82006  0.87532  1.0000
  H   H3904     1.0  0.88003  0.81995  0.86109  1.0000
  H   H3905     1.0  0.86791  0.80747  0.88949  1.0000
  C   C2222     1.0  0.74547  0.76388  0.78737  1.0000
  H   H3906     1.0  0.89537  0.78516  0.93227  1.0000
  H   H3907     1.0  0.89038  0.78410  0.87708  1.0000
  H   H3908     1.0  0.89936  0.79794  0.84289  1.0000
  H   H3909     1.0  0.86710  0.79031  0.84828  1.0000
  H   H3910     1.0  0.87532  0.80521  0.81542  1.0000
  H   H3911     1.0  0.88453  0.78505  0.81709  1.0000
  H   H3912     1.0  0.88234  0.83457  0.90435  1.0000
  H   H3913     1.0  0.93550  0.68901  0.73320  1.0000
  H   H3914     1.0  0.89975  0.74201  0.63846  1.0000
  C   C2223     1.0  0.84069  0.92832  0.91924  1.0000
  C   C2224     1.0  0.75022  0.65309  0.84306  1.0000
  C   C2225     1.0  0.78215  0.66609  0.75740  1.0000
  C   C2226     1.0  0.82688  0.73572  0.57711  1.0000
  C   C2227     1.0  0.82325  0.92914  0.93592  1.0000
  H   H3915     1.0  0.93003  0.82505  0.88719  1.0000
  H   H3916     1.0  0.89854  0.91587  0.89850  1.0000
  H   H3917     1.0  0.85060  0.96713  0.69394  1.0000
  H   H3918     1.0  0.88801  0.90218  0.89073  1.0000
  C   C2228     1.0  0.78878  0.75281  0.59654  1.0000
  H   H3919     1.0  0.79130  0.78396  0.59261  1.0000
  H   H3920     1.0  0.84207  0.84185  0.96043  1.0000
  C   C2229     1.0  0.81076  0.79522  0.57078  1.0000
  H   H3921     1.0  0.87717  0.88675  0.97854  1.0000
  C   C2230     1.0  0.81016  0.76738  0.56698  1.0000
  H   H3922     1.0  0.78149  0.65773  0.78287  1.0000
  C   C2231     1.0  0.78044  0.74484  0.66267  1.0000
  H   H3923     1.0  0.90605  0.86697  0.91487  1.0000
  C   C2232     1.0  0.73785  0.64872  0.97815  1.0000
  H   H3924     1.0  0.90154  0.97405  0.94616  1.0000
  H   H3925     1.0  0.87377  0.65600  0.59248  1.0000
  H   H3926     1.0  0.94581  0.70197  0.77274  1.0000
  N   N124      1.0  0.80128  0.75527  0.56442  1.0000
  H   H3927     1.0  0.84507  0.91496  0.98524  1.0000
  H   H3928     1.0  0.85506  0.95281  0.90085  1.0000
  H   H3929     1.0  0.83276  0.95857  0.97043  1.0000
  C   C2233     1.0  0.88865  0.97706  0.94980  1.0000
  H   H3930     1.0  0.80583  0.73027  0.56686  1.0000
  C   C2234     1.0  0.76995  0.81698  0.54720  1.0000
  C   C2235     1.0  0.95649  0.73842  0.98554  1.0000
  H   H3931     1.0  0.84137  0.93560  0.89234  1.0000
  C   C2236     1.0  0.79328  0.76125  0.53248  1.0000
  H   H3932     1.0  0.94761  0.67035  0.74587  1.0000
  H   H3933     1.0  0.84450  0.71578  0.59211  1.0000
  H   H3934     1.0  0.95740  0.71690  0.81274  1.0000
  N   N125      1.0  0.85201  0.86822  0.68543  1.0000
  C   C2237     1.0  0.83604  0.87710  0.69808  1.0000
  C   C2238     1.0  0.85128  0.85116  0.69051  1.0000
  C   C2239     1.0  0.86276  0.86966  0.70908  1.0000
  C   C2240     1.0  0.85853  0.87434  0.64732  1.0000
  C   C2241     1.0  0.84669  0.88198  0.62185  1.0000
  C   C2242     1.0  0.83529  0.89411  0.70234  1.0000
  C   C2243     1.0  0.87932  0.85950  0.70384  1.0000
  C   C2244     1.0  0.84013  0.84688  0.67042  1.0000
  C   C2245     1.0  0.84052  0.82933  0.67807  1.0000
  C   C2246     1.0  0.85494  0.88493  0.58333  1.0000
  C   C2247     1.0  0.81859  0.90323  0.70597  1.0000
  C   C2248     1.0  0.89065  0.86553  0.71935  1.0000
  H   H3935     1.0  0.83109  0.87108  0.72441  1.0000
  H   H3936     1.0  0.82767  0.87713  0.68088  1.0000
  H   H3937     1.0  0.86294  0.84423  0.68195  1.0000
  H   H3938     1.0  0.84792  0.84654  0.71932  1.0000
  H   H3939     1.0  0.85753  0.86660  0.73756  1.0000
  H   H3940     1.0  0.86427  0.88195  0.70530  1.0000
  H   H3941     1.0  0.86552  0.88335  0.64603  1.0000
  H   H3942     1.0  0.86693  0.86485  0.63529  1.0000
  H   H3943     1.0  0.84025  0.89340  0.62852  1.0000
  H   H3944     1.0  0.83796  0.87479  0.62329  1.0000
  H   H3945     1.0  0.83965  0.89411  0.72688  1.0000
  H   H3946     1.0  0.84254  0.90033  0.67961  1.0000
  H   H3947     1.0  0.88413  0.85929  0.67539  1.0000
  H   H3948     1.0  0.87888  0.84735  0.71771  1.0000
  H   H3949     1.0  0.82793  0.85267  0.67845  1.0000
  H   H3950     1.0  0.84379  0.85004  0.64141  1.0000
  H   H3951     1.0  0.83189  0.82661  0.66481  1.0000
  H   H3952     1.0  0.85223  0.82293  0.66802  1.0000
  H   H3953     1.0  0.83752  0.82516  0.70696  1.0000
  H   H3954     1.0  0.86102  0.87376  0.57462  1.0000
  H   H3955     1.0  0.84628  0.89077  0.56587  1.0000
  H   H3956     1.0  0.86351  0.89258  0.58026  1.0000
  H   H3957     1.0  0.81379  0.90420  0.68150  1.0000
  H   H3958     1.0  0.81112  0.89737  0.72901  1.0000
  H   H3959     1.0  0.81836  0.91514  0.71038  1.0000
  H   H3960     1.0  0.89288  0.87695  0.70370  1.0000
  H   H3961     1.0  0.88592  0.86691  0.74732  1.0000
  H   H3962     1.0  0.90189  0.85713  0.71871  1.0000
  N   N126      1.0  0.86684  0.75259  0.72930  1.0000
  C   C2249     1.0  0.85521  0.74194  0.74420  1.0000
  C   C2250     1.0  0.85849  0.76939  0.72253  1.0000
  C   C2251     1.0  0.87545  0.74824  0.69415  1.0000
  C   C2252     1.0  0.87866  0.75059  0.75298  1.0000
  C   C2253     1.0  0.87227  0.75387  0.79108  1.0000
  C   C2254     1.0  0.86194  0.72422  0.75125  1.0000
  C   C2255     1.0  0.88675  0.75896  0.67175  1.0000
  C   C2256     1.0  0.84319  0.77422  0.74837  1.0000
  C   C2257     1.0  0.83799  0.79190  0.74337  1.0000
  C   C2258     1.0  0.88515  0.74942  0.81353  1.0000
  C   C2259     1.0  0.84899  0.71496  0.76785  1.0000
  S   S508      1.0  0.75787  0.81056  0.70707  1.0000
  H   H3963     1.0  0.84674  0.74386  0.72583  1.0000
  H   H3964     1.0  0.84809  0.74475  0.76962  1.0000
  H   H3965     1.0  0.86651  0.77739  0.72176  1.0000
  H   H3966     1.0  0.85501  0.77234  0.69581  1.0000
  H   H3967     1.0  0.86703  0.74776  0.67739  1.0000
  H   H3968     1.0  0.88266  0.73636  0.69805  1.0000
  H   H3969     1.0  0.88595  0.73873  0.75454  1.0000
  H   H3970     1.0  0.88704  0.75855  0.74127  1.0000
  H   H3971     1.0  0.86303  0.74719  0.80480  1.0000
  H   H3972     1.0  0.86766  0.76651  0.79025  1.0000
  H   H3973     1.0  0.86780  0.71997  0.72625  1.0000
  H   H3974     1.0  0.87034  0.72148  0.76983  1.0000
  H   H3975     1.0  0.89675  0.75801  0.68512  1.0000
  H   H3976     1.0  0.88088  0.77134  0.66710  1.0000
  H   H3977     1.0  0.83372  0.76930  0.74311  1.0000
  H   H3978     1.0  0.84431  0.77000  0.77654  1.0000
  H   H3979     1.0  0.84671  0.79740  0.75000  1.0000
  H   H3980     1.0  0.83633  0.79670  0.71558  1.0000
  H   H3981     1.0  0.82672  0.79494  0.76109  1.0000
  H   H3982     1.0  0.88953  0.73664  0.81736  1.0000
  H   H3983     1.0  0.89499  0.75548  0.80065  1.0000
  H   H3984     1.0  0.88054  0.75276  0.84003  1.0000
  H   H3985     1.0  0.84273  0.71851  0.79340  1.0000
  H   H3986     1.0  0.84058  0.71678  0.74950  1.0000
  H   H3987     1.0  0.74357  0.67402  0.98338  1.0000
  C   C2260     1.0  0.79428  0.69998  0.66122  1.0000
  C   C2261     1.0  0.95529  0.69454  0.84292  1.0000
  H   H3988     1.0  0.80875  0.68359  0.69440  1.0000
  H   H3989     1.0  0.93662  0.80417  0.89114  1.0000
  H   H3990     1.0  0.94686  0.71101  0.87958  1.0000
  H   H3991     1.0  0.81974  0.76833  0.54378  1.0000
  H   H3992     1.0  0.77321  0.82410  0.56247  1.0000
  H   H3993     1.0  0.78212  0.74421  0.59374  1.0000
  H   H3994     1.0  0.79849  0.71022  0.66465  1.0000
  S   S509      1.0  0.78287  0.78188  0.67672  1.0000
  H   H3995     1.0  0.87499  0.79091  0.93887  1.0000
  N   N127      1.0  0.96960  0.70082  0.77723  1.0000
  H   H3996     1.0  0.78057  0.71125  0.78028  1.0000
  C   C2262     1.0  0.81397  0.92688  0.90947  1.0000
  H   H3997     1.0  0.79182  0.70259  0.73042  1.0000
  H   H3998     1.0  0.83382  0.93366  0.98806  1.0000
  H   H3999     1.0  0.73846  0.75611  0.87487  1.0000
  H   H4000     1.0  0.77997  0.76371  0.59866  1.0000
  C   C2263     1.0  0.84581  0.92755  0.97944  1.0000
  H   H4001     1.0  0.83131  0.96299  0.71275  1.0000
  H   H4002     1.0  0.77169  0.75581  0.66294  1.0000
  H   H4003     1.0  0.84473  0.91608  0.91473  1.0000
  C   C2264     1.0  0.83368  0.71830  0.58077  1.0000
  H   H4004     1.0  0.81719  0.74032  0.53017  1.0000
  H   H4005     1.0  0.78333  0.77089  0.53803  1.0000
  H   H4006     1.0  0.75114  0.65505  0.73378  1.0000
  S   S510      1.0  0.76460  0.76701  0.76995  1.0000
  H   H4007     1.0  0.97591  0.71286  0.72351  1.0000
  H   H4008     1.0  0.90152  0.76190  0.62003  1.0000
  C   C2265     1.0  0.86159  0.82661  0.93454  1.0000
  H   H4009     1.0  0.79203  0.69802  0.81071  1.0000
  H   H4010     1.0  0.75291  0.78567  0.55759  1.0000
  H   H4011     1.0  0.97505  0.73197  0.78088  1.0000
  H   H4012     1.0  0.81140  0.67009  0.74737  1.0000
  H   H4013     1.0  0.79213  0.67695  0.68827  1.0000
  H   H4014     1.0  0.85571  0.67457  0.54811  1.0000
  H   H4015     1.0  0.79926  0.67018  0.82718  1.0000
  H   H4016     1.0  0.77464  0.67809  0.81553  1.0000
  C   C2266     1.0  0.88529  0.79631  0.97835  1.0000
  C   C2267     1.0  0.93067  0.81379  0.90592  1.0000
  H   H4017     1.0  0.83599  0.74222  0.56113  1.0000
  H   H4018     1.0  0.97434  0.77573  0.97231  1.0000
  H   H4019     1.0  0.82280  0.66629  0.63785  1.0000
  H   H4020     1.0  0.82196  0.91963  0.95922  1.0000
  H   H4021     1.0  0.80161  0.92715  0.92217  1.0000
  H   H4022     1.0  0.82476  0.65339  0.83342  1.0000
  H   H4023     1.0  0.81449  0.93628  0.88580  1.0000
  H   H4024     1.0  0.77175  0.71676  0.84082  1.0000
  H   H4025     1.0  0.80348  0.80694  0.57259  1.0000
  H   H4026     1.0  0.75693  0.74090  0.72708  1.0000
  C   C2268     1.0  0.85211  0.94948  0.93020  1.0000
  H   H4027     1.0  0.84517  0.65251  0.57521  1.0000
  H   H4028     1.0  0.85407  0.70235  0.77311  1.0000
  H   H4029     1.0  0.78113  0.74120  0.54130  1.0000
  C   C2269     1.0  0.78687  0.69259  0.72802  1.0000
  H   H4030     1.0  0.80042  0.75522  0.63868  1.0000
  Fe  Fe256     1.0  0.77173  0.78783  0.73008  1.0000
  C   C2270     1.0  0.80368  0.67607  0.76856  1.0000
  C   C2271     1.0  0.76108  0.79899  0.50700  1.0000
  H   H4031     1.0  0.88665  0.86455  0.93584  1.0000
  C   C2272     1.0  0.79614  0.68700  0.69327  1.0000
  H   H4032     1.0  0.94341  0.69600  0.83688  1.0000
  H   H4033     1.0  0.91630  0.85149  0.96880  1.0000
  H   H4034     1.0  0.88383  0.75540  0.62031  1.0000
  H   H4035     1.0  0.76431  0.76322  0.51065  1.0000
  C   C2273     1.0  0.88998  0.91438  0.88333  1.0000
  C   C2274     1.0  0.87574  0.68096  0.51187  1.0000
  H   H4036     1.0  0.81989  0.79622  0.54677  1.0000
  H   H4037     1.0  0.83060  0.65575  0.78600  1.0000
  C   C2275     1.0  0.76623  0.66860  0.74523  1.0000
  C   C2276     1.0  0.97095  0.71561  0.75050  1.0000
  H   H4038     1.0  0.97995  0.80094  0.97775  1.0000
  H   H4039     1.0  0.75455  0.72376  0.71301  1.0000
  H   H4040     1.0  0.77466  0.69764  0.72427  1.0000
  N   N128      1.0  0.78721  0.68051  0.76139  1.0000
  C   C2277     1.0  0.76858  0.70665  0.83373  1.0000
  H   H4041     1.0  0.81789  0.66670  0.59506  1.0000
  C   C2278     1.0  0.78046  0.70120  0.80248  1.0000
  C   C2279     1.0  0.74328  0.74861  0.80186  1.0000
  C   C2280     1.0  0.94720  0.68169  0.72746  1.0000
  H   H4042     1.0  0.76833  0.69717  0.85725  1.0000
  C   C2281     1.0  0.77234  0.82073  0.50978  1.0000
  H   H4043     1.0  0.94899  0.67951  0.69987  1.0000
  H   H4044     1.0  0.90204  0.65334  0.57928  1.0000
  H   H4045     1.0  0.78191  0.70349  0.65782  1.0000
  H   H4046     1.0  0.90130  0.84790  0.92579  1.0000
  H   H4047     1.0  0.89492  0.91651  0.85458  1.0000
  H   H4048     1.0  0.80131  0.69586  0.63686  1.0000
  C   C2282     1.0  0.87470  0.92586  0.89052  1.0000
  H   H4049     1.0  0.84535  0.98097  0.90509  1.0000
  C   C2283     1.0  0.76270  0.80446  0.56476  1.0000
  C   C2284     1.0  0.79424  0.74692  0.63271  1.0000
  C   C2285     1.0  0.74435  0.73238  0.90030  1.0000
  S   S511      1.0  0.75785  0.80019  0.61182  1.0000
  H   H4050     1.0  0.78454  0.74156  0.68858  1.0000
  C   C2286     1.0  0.95717  0.69385  0.76902  1.0000
  H   H4051     1.0  0.80637  0.65835  0.63527  1.0000
  C   C2287     1.0  0.98392  0.73912  0.72575  1.0000
  H   H4052     1.0  0.77484  0.73547  0.65950  1.0000
  H   H4053     1.0  0.81633  0.79119  0.59469  1.0000
  H   H4054     1.0  0.82439  0.73869  0.60385  1.0000
  H   H4055     1.0  0.83653  0.71446  0.55468  1.0000
  H   H4056     1.0  0.75325  0.73921  0.80217  1.0000
  H   H4057     1.0  0.74259  0.72496  0.92692  1.0000
  H   H4058     1.0  0.97278  0.74578  0.71783  1.0000
  C   C2288     1.0  0.84137  0.87977  0.97879  1.0000
  H   H4059     1.0  0.81791  0.94035  0.94482  1.0000
  C   C2289     1.0  0.80613  0.66498  0.80406  1.0000
  H   H4060     1.0  0.81865  0.91544  0.90080  1.0000
  H   H4061     1.0  0.79103  0.65962  0.73880  1.0000
  H   H4062     1.0  0.97119  0.68225  0.72500  1.0000
  C   C2290     1.0  0.77500  0.75720  0.49523  1.0000
  H   H4063     1.0  0.96454  0.72755  0.98316  1.0000
  H   H4064     1.0  0.95920  0.70080  0.71099  1.0000
  H   H4065     1.0  0.84770  0.95281  0.73362  1.0000
  H   H4066     1.0  0.85770  0.81583  0.94990  1.0000
  C   C2291     1.0  0.84247  0.96420  0.71898  1.0000
  H   H4067     1.0  0.94671  0.69100  0.89965  1.0000
  H   H4068     1.0  0.73990  0.72762  0.88132  1.0000
  H   H4069     1.0  0.97962  0.73264  0.91979  1.0000
  C   C2292     1.0  0.98528  0.69011  0.77352  1.0000
  C   C2293     1.0  0.86549  0.88466  0.98884  1.0000
  C   C2294     1.0  0.73832  0.66315  0.86064  1.0000
  H   H4070     1.0  0.84915  0.97871  0.94961  1.0000
  C   C2295     1.0  0.88168  0.97845  0.98840  1.0000
  C   C2296     1.0  0.82324  0.66145  0.80805  1.0000
  H   H4071     1.0  0.75875  0.65774  0.82228  1.0000
  C   C2297     1.0  0.84062  0.97773  0.93369  1.0000
  H   H4072     1.0  0.96060  0.68206  0.84476  1.0000
  H   H4073     1.0  0.85888  0.85065  0.94173  1.0000
  H   H4074     1.0  0.90292  0.86899  0.97697  1.0000
  H   H4075     1.0  0.82725  0.67232  0.80817  1.0000
  C   C2298     1.0  0.78686  0.74912  0.51929  1.0000
  H   H4076     1.0  0.83952  0.72540  0.49224  1.0000
  H   H4077     1.0  0.91992  0.82584  0.98628  1.0000
  H   H4078     1.0  0.83890  0.65587  0.68843  1.0000
  H   H4079     1.0  0.82734  0.70169  0.50908  1.0000
  H   H4080     1.0  0.84555  0.66543  0.50305  1.0000
  H   H4081     1.0  0.98426  0.74840  0.88451  1.0000
  C   C2299     1.0  0.74827  0.73445  0.72356  1.0000
  C   C2300     1.0  0.85618  0.67004  0.49553  1.0000
  H   H4082     1.0  0.74122  0.73090  0.74985  1.0000
  H   H4083     1.0  0.80274  0.65368  0.80517  1.0000
  H   H4084     1.0  0.74475  0.74612  0.67106  1.0000
  H   H4085     1.0  0.79648  0.74186  0.50364  1.0000
  H   H4086     1.0  0.87385  0.80296  0.98907  1.0000
  S   S512      1.0  0.73704  0.68325  0.84684  1.0000
  H   H4087     1.0  0.83204  0.97280  0.76705  1.0000
  H   H4088     1.0  0.98502  0.67433  0.82459  1.0000
  C   C2301     1.0  0.98627  0.67360  0.79618  1.0000
  H   H4089     1.0  0.84418  0.98098  0.83944  1.0000
  C   C2302     1.0  0.83972  0.97667  0.74201  1.0000
  H   H4090     1.0  0.85872  0.83649  0.98234  1.0000
  C   C2303     1.0  0.98102  0.72629  0.75777  1.0000
  C   C2304     1.0  0.98220  0.77568  0.99077  1.0000
  H   H4091     1.0  0.97735  0.66756  0.79259  1.0000
  H   H4092     1.0  0.97530  0.70608  0.82407  1.0000
  H   H4093     1.0  0.89511  0.65092  0.54131  1.0000
  H   H4094     1.0  0.85109  0.97706  0.74835  1.0000
  H   H4095     1.0  0.75738  0.79218  0.49176  1.0000
  H   H4096     1.0  0.89174  0.83763  0.99093  1.0000
