data_image0
_chemical_formula_structural       HSH3S2HFeS2FeS2FeSFeS3CHFeS2H2S2FeS2FeS2FeSFeS3C2H5C4H2C6H8CH2C6H4CH2CH5C7H5CH2C2HCHNHC2HNH3CH2FeCNCH4CH2CH5CH7C2H2CHCHC2HCH3C3H13NC12H18NC5H2C6HCH7CH2CH2CH2CFeH5CH9CH7C2HFeCH2C3H4C3HCHC3H3SH2CH2CHSFeS2FeS2FeSFeS3Fe2SH2SC2S2FeS2FeS2FeSFeS3C2H2CH2C6H7C2H6C6H5CH4C6H8CNC5HC4SCH11SH5C2H10NC12H20CHC3H4CH9CHCH2C3HCHCH2CH4CH3CH2NCH6CH4CHCH10CHCHC2H3C2H7C2H3CH2C2NC2HCHCH6CNH5C3H2FeC2H3CHCHCHCHCH2CHCH3FeS2FeS2FeSFeS3CSFeS2FeS2FeSFeS3FeSCSHCH2C5H5C6H4C4H4C6H4C3H4C6H10C2HNH3SHC2HCHC2HCH6CHCHNHCHC2H2CNHC4HC3H2CHCH3CH17CH4C2NC12H31CH4CHC2HC4HNH2NCH3NH2CHCH3CHCH2C5Fe2C3H7C2SH4CH2SH2CH7C3H3C3H4C2H3SHCH3CH2CHCHCFeH4CHCHCH5CH2CH12CHCH3CHC2FeS2FeS2FeSFeS3NSHFeS2FeS2FeSFeS3FeHSFeCFeSHSCHCNH3C3HC6H4C2H3C6H4C6H4C2H5C3H6C2HSHCH3CH3C2H2CH3C3H2CH3C2SH6NHC2H4CHCH2CHFeH12NH3CH2S2HC3NC12H29CHC3H5CHCH4CH2CHC2HCH5CH3CHC2H7CH4CH2CHCHC2H2CH2C2HCH9CH3C2H3CSCHFeSCSFeS2FeS2FeSFeS3FeHFeS2FeS2CFeS2FeS2FeSFeS3HCH3C5H3C6H9C7H4C2SCH3C6H5CH3CHNHC2H3C2H5CH6CH5CH6CH3CH2CH3C2HCH3CH3CHCNC3H3NC8NHC2H16C5H6C2H2CH2CH5CNC12H28NHC4HC3HCHCH2CHCH2FeH4CH2CSH3NC5HC2H2FeH10CH4CH4C2H2CH6CH4C2HC3H9C3H5CH5CHCSCH6CH5CHNCH3SH2SHFeS2FeS2FeSFeS5FeS2FeS2FeSFeS3C5HCH3C6H4CH3C6H5C2H3CH3C6H10NHCH4CH2CH2C3HCH2CHNC3HCHCH4CHCHCH2C2H2C2HNC2HC3HC4H7CH3CH2CH8SH4FeNC4H2CH3CH8CH7C2H9CHC2H5C2H2C2H4SH3NH3C2HCH4C2H5CH2CH7CH2CFeHC4HFeC2H2CH2C5HC2H4CH5C2HNHCH8CH3CH2CFeS2FeS2FeSFeS3H2SFeS2FeS2FeSFeS3H4FeHSC2H4CHC7H4CHC3H2C5H3C7H4C3H2C6H5C3HC2HNH6SHCH3CH2CH3CSHCH4CHC4H4CNC12H28NC11H28CHC3HCH3CH3CH3CH3FeCH4NH2C4H2C2H12CH5C2H2CHCH2SH4FeS2FeS2FeSFeS3HFeS2FeSCHSFeS2FeS2FeSFeS3FeSH3CFeS2HCHCNH2CH2C2H2CHC6H7CHCH2C6H5CHCHCHC8H8C3HCHCH2SHCH9C2SHCH2C2H2C2H2CH7CNH2CHCH3CHC4H3CH5CH2SHCH2C2H2CHCNC4H2CH2CH5CH2CH3CHCHNH3C2H2NC7H2C3H14CH3CH3CH5C2H5C2HNH5C2H11C2H2CH3CH3CHCH8FeC5HC2H5NH4CHCHSCH2FeSHFeS2FeS2FeSFeS3HCSFeS2FeS2FeSFeS3C4HCHC2HC7H5C7H4CH3CSH2C5H2C6H4CH3NH2NC2HC3HC2HCH3CHC2H6CH6C2H5CH2CHCH3CH4C2H4SHC3H3CH4CHC2H3C2HC2H3C3H6CH2C2H4NH8CHCH3NCHCHNC8HC2H5FeH13FeH6CHC2HCH4SHCH8C2H5CNH3C3HFeH2CH4CH2CH5CHCH3SH4CHC2HCH2C3H4CHCH6FeSFeHSCHS2FeS2FeS2FeSFeS3FeS2HCFeSHFeS2FeS2FeSFeS3HCHCH2CHC6H5CHC7H4CH3C9H6C2HC2HCHNH4CH3C2HC3H2CH3C2H8CHC2HC3H2CHCFeHNH2CH4CH2C2H10CH7CH4CH5CHCH2CH11CHNH2CHC2H5CHC2H5CHNC5HC4HCH8CH7CH5CHCH3NC11H6CH4FeHCH6SH7C5H2CHCH3NH3CH2CH2CHCH3SH3CSC2SNCH2CH2C3HC2H6SFeS2FeS2FeSFeS3FeS2FeH2FeHS2FeS2FeS2FeSFeS3FeS2H2C6H4C3H6CH3C6H4C4H3NC2H3CHC6H4CH2NHCHC2SH2C2H5CH4CH2NH3CH7CHC6H8CH6FeNC9SC2H20C2H4CH2CH2CH5CSH2CH8C2HCH3C2H6CH2NH3SH2CH2CSHCHCH6CH3C3H2C2H2C2H2C3H2CH5CHCHCHCH3C2H9SC2HCH2C2H2C2NC2FeS2FeS2FeSFeS4FeSFeS2FeS2FeSFeS3C2SH6C6H4NC2H5C10H4C6H6C3HCH8NHC4HC5HC2H2FeH5CH2CH8CH2CH6CH2NC12H20CH8CHCHCHCH2CH3CH6CHNHCHCH7FeSHCH2CHSCH3C3HCH7CHCH4CH2NC11H26CHCH6CHCH6C2H3CSCH6CH4CHC2H2CHNH2CH2CH2C4H2CH2C3H3C4H4CH2C2FeHCH2C2H5CH2CFeSHFeS2FeS2FeSFeS3H2SFeS2FeS2FeSFeS3H8C3H3C6H4C7H6C3SH5C2HCH2C6H4C2HSC2HCHCNC5HC4HCH10CH17NC5H2CH13CH4C2SC2H5CSH2CH3C2H3C2H8NCHCH5NC7H2C3H15C2H10C3H2C3HCH4CHCH2CNHCHCH2CHC3HCH3CH2CH5NH2CHC2HCHCH4C3H3CH7CHC2H3CH2FeHC2H7SH6C3FeSCS2FeS2FeS2FeS2FeSFeS3FeSCHFeS2FeS2FeSFeS3H4C6H4NHCFeHC6H5CHC3H2C6H4C2H2SCH2NC6HCHC2H7CH11CH6C2HNC12H28NHC4HCHC2HCH9CHCH3CH4SH3CH6CH5C3HC2HC3HCHCHCH12CHC3H2NC5H10CH7C3HCH5CH10CH6CH4CH3NC2H3CH2CHC3HCH2CHC2H3CHCH2FeS2FeS2FeSFeS3FeS2HCFeS2HFeS2FeS2FeSFeS3HCSCHSHC5HC7H5C2H5C2H3CH2C6H4C6H4C2H5C4H4C2H2CHCHC4H5CH2FeH2CH2NC2H3CH4NHC2HCH9CNH3CH2CHSH2CH2CHCHCH3CH3C2H2CFeH8CNC8HC3H18CH12CHCHC2H13CH4CH5NH5C9HC2H6C3HC2H2FeCH2CH2CH6CH6NHCH3CH5SHFeS2FeS2FeSFeS3FeHSHC2HSHFeS2FeS2FeSFeS3CSCHCH4CH2C6H7C3H4SC6H6C7H4C3H4SC2H4CHC2HCHCH7CH2C3H5NH4FeCHC4H2CH2C2HCHCHCH4CH3NH5CH6C2H8NC3HC2HC4H2CH3C2H8C3H5CNC4HCH4CFeH2CHCH3C2H3CH10CH2SHNC2H3CH4SH2CHC2HNH8CH2CH2C3H6CH5CHC2HCH2CHC3
_chemical_formula_sum              "H3072 S384 Fe192 C1728 N96"
_cell_length_a       52.5969
_cell_length_b       52.5401
_cell_length_c       85.9995
_cell_angle_alpha    86.4799
_cell_angle_beta     87.8447
_cell_angle_gamma    88.9999

_space_group_name_H-M_alt    "P 1"
_space_group_IT_number       1

loop_
  _space_group_symop_operation_xyz
  'x, y, z'

loop_
  _atom_site_type_symbol
  _atom_site_label
  _atom_site_symmetry_multiplicity
  _atom_site_fract_x
  _atom_site_fract_y
  _atom_site_fract_z
  _atom_site_occupancy
  H   H1        1.0  0.22304  0.37419  0.09873  1.0000
  S   S1        1.0  0.00665  0.37249  0.02636  1.0000
  H   H2        1.0  0.28258  0.32889  0.19230  1.0000
  H   H3        1.0  0.32732  0.22755  0.23776  1.0000
  H   H4        1.0  0.23792  0.35966  0.11567  1.0000
  S   S2        1.0  0.43387  0.02185  0.06835  1.0000
  S   S3        1.0  0.40090  0.07603  0.09098  1.0000
  H   H5        1.0  0.26371  0.26193  0.12286  1.0000
  Fe  Fe1       1.0  0.39057  0.15843  0.16773  1.0000
  S   S4        1.0  0.41200  0.19056  0.15503  1.0000
  S   S5        1.0  0.38121  0.11994  0.15831  1.0000
  Fe  Fe2       1.0  0.39071  0.18441  0.19909  1.0000
  S   S6        1.0  0.41360  0.21706  0.18833  1.0000
  S   S7        1.0  0.37622  0.19059  0.22391  1.0000
  Fe  Fe3       1.0  0.38596  0.21685  0.16884  1.0000
  S   S8        1.0  0.36889  0.25641  0.16158  1.0000
  Fe  Fe4       1.0  0.43720  0.18799  0.17582  1.0000
  S   S9        1.0  0.47973  0.17786  0.17319  1.0000
  S   S10       1.0  0.36273  0.18470  0.17991  1.0000
  S   S11       1.0  0.41619  0.15525  0.18820  1.0000
  C   C1        1.0  0.09697  0.44462  0.10351  1.0000
  H   H6        1.0  0.13292  0.49200  0.14164  1.0000
  Fe  Fe5       1.0  0.05688  0.37846  0.07868  1.0000
  S   S12       1.0  0.03495  0.34561  0.07012  1.0000
  S   S13       1.0  0.09845  0.37855  0.08601  1.0000
  H   H7        1.0  0.34957  0.18802  0.25356  1.0000
  H   H8        1.0  0.47559  0.03277  0.02979  1.0000
  S   S14       1.0  0.04365  0.40625  0.05925  1.0000
  S   S15       1.0  0.02606  0.38984  0.09555  1.0000
  Fe  Fe6       1.0  0.23531  0.34284  0.17028  1.0000
  S   S16       1.0  0.19709  0.33706  0.18281  1.0000
  S   S17       1.0  0.25531  0.30409  0.16620  1.0000
  Fe  Fe7       1.0  0.22524  0.40134  0.16711  1.0000
  S   S18       1.0  0.18675  0.39850  0.17919  1.0000
  S   S19       1.0  0.23854  0.43986  0.15631  1.0000
  Fe  Fe8       1.0  0.20613  0.37078  0.19614  1.0000
  S   S20       1.0  0.20230  0.37493  0.22234  1.0000
  Fe  Fe9       1.0  0.18108  0.36504  0.16456  1.0000
  S   S21       1.0  0.14272  0.35661  0.15412  1.0000
  S   S22       1.0  0.24528  0.37545  0.18479  1.0000
  S   S23       1.0  0.21854  0.36920  0.15140  1.0000
  C   C2        1.0  0.18872  0.35267  0.23637  1.0000
  C   C3        1.0  0.17620  0.33103  0.23211  1.0000
  H   H9        1.0  0.24547  0.28422  0.23608  1.0000
  H   H10       1.0  0.12007  0.31833  0.09262  1.0000
  H   H11       1.0  0.00983  0.41871  0.14682  1.0000
  H   H12       1.0  0.17496  0.32740  0.21992  1.0000
  H   H13       1.0  0.15505  0.29769  0.24030  1.0000
  C   C4        1.0  0.17196  0.50143  0.16062  1.0000
  C   C5        1.0  0.24460  0.49157  0.15787  1.0000
  C   C6        1.0  0.23901  0.46845  0.16634  1.0000
  C   C7        1.0  0.23372  0.46877  0.18239  1.0000
  H   H14       1.0  0.24905  0.49151  0.14549  1.0000
  H   H15       1.0  0.22953  0.45114  0.18910  1.0000
  C   C8        1.0  0.11014  0.37268  0.10512  1.0000
  C   C9        1.0  0.09544  0.36092  0.11734  1.0000
  C   C10       1.0  0.10580  0.35601  0.13218  1.0000
  C   C11       1.0  0.13070  0.36335  0.13514  1.0000
  C   C12       1.0  0.14526  0.37536  0.12297  1.0000
  C   C13       1.0  0.13516  0.37970  0.10804  1.0000
  H   H16       1.0  0.07625  0.35520  0.11529  1.0000
  H   H17       1.0  0.09436  0.34650  0.14143  1.0000
  H   H18       1.0  0.16445  0.38089  0.12497  1.0000
  H   H19       1.0  0.14676  0.38870  0.09867  1.0000
  H   H20       1.0  0.10584  0.42573  0.10636  1.0000
  H   H21       1.0  0.02528  0.40198  0.13167  1.0000
  H   H22       1.0  0.13771  0.29002  0.08764  1.0000
  H   H23       1.0  0.08555  0.44333  0.09299  1.0000
  C   C14       1.0  0.03847  0.47130  0.08157  1.0000
  H   H24       1.0  0.26786  0.26334  0.10194  1.0000
  H   H25       1.0  0.04548  0.45528  0.07528  1.0000
  C   C15       1.0  0.33710  0.26923  0.16294  1.0000
  C   C16       1.0  0.31566  0.25375  0.16466  1.0000
  C   C17       1.0  0.29093  0.26480  0.16546  1.0000
  C   C18       1.0  0.28717  0.29147  0.16494  1.0000
  C   C19       1.0  0.30861  0.30698  0.16328  1.0000
  C   C20       1.0  0.33332  0.29592  0.16217  1.0000
  H   H26       1.0  0.31809  0.23323  0.16508  1.0000
  H   H27       1.0  0.27459  0.25252  0.16659  1.0000
  H   H28       1.0  0.30618  0.32750  0.16268  1.0000
  H   H29       1.0  0.34966  0.30817  0.16072  1.0000
  C   C21       1.0  0.37438  0.16603  0.23885  1.0000
  H   H30       1.0  0.26120  0.33316  0.20883  1.0000
  H   H31       1.0  0.32853  0.31059  0.21205  1.0000
  C   C22       1.0  0.38770  0.14296  0.23762  1.0000
  H   H32       1.0  0.22501  0.31098  0.23999  1.0000
  H   H33       1.0  0.48183  0.11486  0.10408  1.0000
  H   H34       1.0  0.39877  0.13950  0.22707  1.0000
  H   H35       1.0  0.03291  0.45393  0.02977  1.0000
  H   H36       1.0  0.17620  0.28443  0.17840  1.0000
  C   C23       1.0  0.01972  0.37417  0.00683  1.0000
  C   C24       1.0  0.38760  0.10824  0.13953  1.0000
  C   C25       1.0  0.38529  0.08196  0.13765  1.0000
  C   C26       1.0  0.38962  0.07178  0.12295  1.0000
  C   C27       1.0  0.39595  0.08785  0.10986  1.0000
  C   C28       1.0  0.39842  0.11412  0.11174  1.0000
  C   C29       1.0  0.39446  0.12426  0.12650  1.0000
  H   H37       1.0  0.37985  0.06941  0.14762  1.0000
  H   H38       1.0  0.38745  0.05158  0.12172  1.0000
  H   H39       1.0  0.40318  0.12677  0.10169  1.0000
  H   H40       1.0  0.39614  0.14452  0.12773  1.0000
  H   H41       1.0  0.49324  0.11236  0.13090  1.0000
  C   C30       1.0  0.17896  0.43139  0.13543  1.0000
  H   H42       1.0  0.46520  0.05011  0.14689  1.0000
  H   H43       1.0  0.04757  0.48101  0.15631  1.0000
  C   C31       1.0  0.19014  0.35716  0.25226  1.0000
  C   C32       1.0  0.05530  0.49003  0.08553  1.0000
  H   H44       1.0  0.13398  0.36543  0.24825  1.0000
  C   C33       1.0  0.50400  0.18803  0.12960  1.0000
  H   H45       1.0  0.00679  0.49004  0.01789  1.0000
  N   N1        1.0  0.04098  0.43924  0.13475  1.0000
  H   H46       1.0  0.19993  0.43022  0.13347  1.0000
  C   C34       1.0  0.05619  0.43666  0.11968  1.0000
  C   C35       1.0  0.08327  0.39853  0.16389  1.0000
  H   H47       1.0  0.07055  0.40014  0.17440  1.0000
  N   N2        1.0  0.48183  0.07977  0.11870  1.0000
  H   H48       1.0  0.17918  0.47912  0.12406  1.0000
  H   H49       1.0  0.05801  0.36330  0.01252  1.0000
  H   H50       1.0  0.48213  0.02837  0.07775  1.0000
  C   C36       1.0  0.02844  0.38567  0.25191  1.0000
  H   H51       1.0  0.20339  0.47825  0.13793  1.0000
  H   H52       1.0  0.46393  0.19200  0.12459  1.0000
  Fe  Fe10      1.0  0.01082  0.41419  0.07570  1.0000
  C   C37       1.0  0.47111  0.08449  0.08954  1.0000
  N   N3        1.0  0.17190  0.50414  0.14299  1.0000
  C   C38       1.0  0.46234  0.10387  0.07680  1.0000
  H   H53       1.0  0.01254  0.46606  0.14312  1.0000
  H   H54       1.0  0.46124  0.09440  0.06565  1.0000
  H   H55       1.0  0.49159  0.08382  0.14271  1.0000
  H   H56       1.0  0.39759  0.10676  0.24922  1.0000
  C   C39       1.0  0.05644  0.43145  0.14877  1.0000
  H   H57       1.0  0.46154  0.09817  0.16427  1.0000
  H   H58       1.0  0.46816  0.04391  0.11136  1.0000
  C   C40       1.0  0.46766  0.01896  0.02205  1.0000
  H   H59       1.0  0.06149  0.41633  0.11809  1.0000
  H   H60       1.0  0.11135  0.39037  0.24464  1.0000
  H   H61       1.0  0.08185  0.32738  0.24762  1.0000
  H   H62       1.0  0.47594  0.11982  0.07511  1.0000
  H   H63       1.0  0.43299  0.17777  0.24163  1.0000
  C   C41       1.0  0.11347  0.36923  0.24600  1.0000
  H   H64       1.0  0.11236  0.45858  0.10079  1.0000
  H   H65       1.0  0.32861  0.00855  0.02604  1.0000
  H   H66       1.0  0.47201  0.12875  0.15581  1.0000
  H   H67       1.0  0.47888  0.16351  0.11763  1.0000
  H   H68       1.0  0.31874  0.29742  0.19474  1.0000
  H   H69       1.0  0.07237  0.44459  0.15001  1.0000
  H   H70       1.0  0.29942  0.25699  0.19681  1.0000
  C   C42       1.0  0.45392  0.01583  0.13722  1.0000
  C   C43       1.0  0.16498  0.31423  0.24368  1.0000
  H   H71       1.0  0.12198  0.36478  0.20558  1.0000
  H   H72       1.0  0.33238  0.22485  0.19423  1.0000
  C   C44       1.0  0.46540  0.05650  0.12128  1.0000
  H   H73       1.0  0.34273  0.00976  0.04470  1.0000
  C   C45       1.0  0.45716  0.11404  0.15561  1.0000
  H   H74       1.0  0.43862  0.12278  0.15915  1.0000
  C   C46       1.0  0.47140  0.09657  0.10553  1.0000
  C   C47       1.0  0.06865  0.40434  0.14902  1.0000
  H   H75       1.0  0.45782  0.06826  0.09006  1.0000
  C   C48       1.0  0.44245  0.18340  0.25222  1.0000
  H   H76       1.0  0.05409  0.38943  0.14854  1.0000
  H   H77       1.0  0.50153  0.01923  0.00738  1.0000
  H   H78       1.0  0.08243  0.40278  0.13904  1.0000
  C   C49       1.0  0.35238  0.26529  0.20654  1.0000
  C   C50       1.0  0.37255  0.28492  0.21043  1.0000
  C   C51       1.0  0.39907  0.27699  0.20451  1.0000
  H   H79       1.0  0.35164  0.26578  0.19361  1.0000
  H   H80       1.0  0.36013  0.24604  0.20993  1.0000
  H   H81       1.0  0.36829  0.30391  0.20466  1.0000
  H   H82       1.0  0.37335  0.28674  0.22317  1.0000
  H   H83       1.0  0.39925  0.27477  0.19173  1.0000
  H   H84       1.0  0.41298  0.29183  0.20683  1.0000
  H   H85       1.0  0.40510  0.25872  0.21057  1.0000
  H   H86       1.0  0.20805  0.37703  0.11768  1.0000
  H   H87       1.0  0.33475  0.28584  0.23506  1.0000
  H   H88       1.0  0.15195  0.32123  0.08449  1.0000
  H   H89       1.0  0.15037  0.45496  0.14584  1.0000
  H   H90       1.0  0.15513  0.26904  0.16601  1.0000
  H   H91       1.0  0.15357  0.30332  0.16726  1.0000
  N   N4        1.0  0.19073  0.29725  0.12356  1.0000
  C   C52       1.0  0.17568  0.29295  0.10936  1.0000
  C   C53       1.0  0.21332  0.27909  0.12406  1.0000
  C   C54       1.0  0.17365  0.29053  0.13772  1.0000
  C   C55       1.0  0.19927  0.32454  0.12417  1.0000
  C   C56       1.0  0.20488  0.33959  0.10828  1.0000
  C   C57       1.0  0.14935  0.30679  0.10881  1.0000
  C   C58       1.0  0.18638  0.28955  0.15372  1.0000
  C   C59       1.0  0.23311  0.28174  0.11031  1.0000
  C   C60       1.0  0.25364  0.26084  0.11178  1.0000
  C   C61       1.0  0.21935  0.36407  0.11029  1.0000
  C   C62       1.0  0.13927  0.30913  0.09235  1.0000
  C   C63       1.0  0.16652  0.28640  0.16712  1.0000
  H   H92       1.0  0.17210  0.27221  0.10863  1.0000
  H   H93       1.0  0.18658  0.29841  0.09843  1.0000
  H   H94       1.0  0.22453  0.28168  0.13457  1.0000
  H   H95       1.0  0.20665  0.25900  0.12509  1.0000
  H   H96       1.0  0.16479  0.27161  0.13667  1.0000
  H   H97       1.0  0.15757  0.30457  0.13852  1.0000
  H   H98       1.0  0.18476  0.33615  0.13047  1.0000
  H   H99       1.0  0.21652  0.32513  0.13128  1.0000
  H   H100      1.0  0.18680  0.34509  0.10263  1.0000
  H   H101      1.0  0.21629  0.32834  0.10003  1.0000
  H   H102      1.0  0.13521  0.29600  0.11643  1.0000
  H   H103      1.0  0.15033  0.32616  0.11307  1.0000
  H   H104      1.0  0.19713  0.30722  0.15503  1.0000
  H   H105      1.0  0.19964  0.27294  0.15497  1.0000
  H   H106      1.0  0.22426  0.28025  0.09892  1.0000
  H   H107      1.0  0.24296  0.30023  0.11046  1.0000
  H   H108      1.0  0.24516  0.24168  0.11144  1.0000
  H   H109      1.0  0.35827  0.24209  0.23533  1.0000
  N   N5        1.0  0.32593  0.26924  0.21352  1.0000
  C   C64       1.0  0.31670  0.29541  0.20769  1.0000
  C   C65       1.0  0.30783  0.24983  0.20797  1.0000
  C   C66       1.0  0.33828  0.24491  0.23949  1.0000
  C   C67       1.0  0.32568  0.26850  0.23110  1.0000
  C   C68       1.0  0.31893  0.22316  0.20449  1.0000
  H   H110      1.0  0.28770  0.21273  0.19027  1.0000
  H   H111      1.0  0.28436  0.20190  0.21068  1.0000
  C   C69       1.0  0.48074  0.02187  0.00586  1.0000
  C   C70       1.0  0.47799  0.17651  0.12735  1.0000
  C   C71       1.0  0.28878  0.30244  0.21237  1.0000
  C   C72       1.0  0.28121  0.32865  0.20523  1.0000
  C   C73       1.0  0.36008  0.17032  0.25260  1.0000
  C   C74       1.0  0.29802  0.20500  0.20061  1.0000
  H   H112      1.0  0.18879  0.48983  0.16447  1.0000
  C   C75       1.0  0.38704  0.12449  0.25018  1.0000
  H   H113      1.0  0.49320  0.23073  0.17888  1.0000
  H   H114      1.0  0.29132  0.24706  0.21635  1.0000
  H   H115      1.0  0.30578  0.26928  0.23591  1.0000
  H   H116      1.0  0.27515  0.28853  0.20839  1.0000
  H   H117      1.0  0.32921  0.21429  0.21442  1.0000
  H   H118      1.0  0.30670  0.18628  0.19787  1.0000
  H   H119      1.0  0.43998  0.20435  0.25290  1.0000
  C   C76       1.0  0.47019  0.03963  0.13636  1.0000
  H   H120      1.0  0.28650  0.30325  0.22517  1.0000
  H   H121      1.0  0.29360  0.34367  0.20923  1.0000
  C   C77       1.0  0.23444  0.49191  0.18988  1.0000
  H   H122      1.0  0.44819  0.11996  0.13154  1.0000
  H   H123      1.0  0.04434  0.44211  0.10956  1.0000
  C   C78       1.0  0.08047  0.45288  0.11736  1.0000
  H   H124      1.0  0.02553  0.49476  0.05118  1.0000
  H   H125      1.0  0.04436  0.43284  0.15963  1.0000
  C   C79       1.0  0.39358  0.01319  0.01179  1.0000
  Fe  Fe11      1.0  0.01970  0.37438  0.05168  1.0000
  H   H126      1.0  0.09252  0.45119  0.12766  1.0000
  H   H127      1.0  0.09108  0.37874  0.16401  1.0000
  H   H128      1.0  0.44481  0.06188  0.12121  1.0000
  H   H129      1.0  0.43340  0.02128  0.13713  1.0000
  H   H130      1.0  0.07528  0.48863  0.08215  1.0000
  C   C80       1.0  0.10983  0.35809  0.22990  1.0000
  H   H131      1.0  0.06200  0.38360  0.23721  1.0000
  H   H132      1.0  0.17892  0.45090  0.15653  1.0000
  H   H133      1.0  0.47114  0.16592  0.13823  1.0000
  H   H134      1.0  0.16972  0.43252  0.12400  1.0000
  H   H135      1.0  0.25655  0.30987  0.24728  1.0000
  H   H136      1.0  0.11532  0.39347  0.21558  1.0000
  H   H137      1.0  0.49273  0.18014  0.22597  1.0000
  H   H138      1.0  0.02548  0.47434  0.12410  1.0000
  H   H139      1.0  0.46302  0.17850  0.25102  1.0000
  C   C81       1.0  0.02338  0.50314  0.03906  1.0000
  H   H140      1.0  0.15499  0.49068  0.16529  1.0000
  H   H141      1.0  0.49038  0.03330  0.13682  1.0000
  H   H142      1.0  0.09948  0.41171  0.16437  1.0000
  H   H143      1.0  0.39183  0.02738  0.02038  1.0000
  H   H144      1.0  0.14423  0.37526  0.21913  1.0000
  H   H145      1.0  0.11791  0.33840  0.22995  1.0000
  H   H146      1.0  0.07504  0.47320  0.11493  1.0000
  C   C82       1.0  0.18235  0.47956  0.13676  1.0000
  C   C83       1.0  0.17139  0.45442  0.14468  1.0000
  H   H147      1.0  0.44688  0.02285  0.02131  1.0000
  Fe  Fe12      1.0  0.40337  0.03391  0.08579  1.0000
  C   C84       1.0  0.03056  0.46616  0.13588  1.0000
  H   H148      1.0  0.17274  0.41371  0.14214  1.0000
  H   H149      1.0  0.08963  0.35711  0.22695  1.0000
  C   C85       1.0  0.50141  0.02241  0.07985  1.0000
  C   C86       1.0  0.12368  0.37393  0.21679  1.0000
  C   C87       1.0  0.04736  0.48559  0.14352  1.0000
  H   H150      1.0  0.44125  0.08873  0.14018  1.0000
  H   H151      1.0  0.01573  0.38541  0.24189  1.0000
  H   H152      1.0  0.44312  0.11161  0.07987  1.0000
  H   H153      1.0  0.45129  0.10208  0.10831  1.0000
  C   C88       1.0  0.45546  0.10409  0.13936  1.0000
  C   C89       1.0  0.01287  0.45753  0.03367  1.0000
  C   C90       1.0  0.48188  0.09482  0.13311  1.0000
  H   H154      1.0  0.23086  0.49185  0.20235  1.0000
  C   C91       1.0  0.05394  0.37291  0.24774  1.0000
  H   H155      1.0  0.04984  0.35314  0.24493  1.0000
  C   C92       1.0  0.01254  0.47374  0.08545  1.0000
  C   C93       1.0  0.23998  0.29807  0.24491  1.0000
  C   C94       1.0  0.01871  0.42132  0.13486  1.0000
  H   H156      1.0  0.04252  0.50083  0.03326  1.0000
  H   H157      1.0  0.01050  0.45178  0.04628  1.0000
  H   H158      1.0  0.50170  0.20074  0.13946  1.0000
  S   S24       1.0  0.37396  0.00825  0.07650  1.0000
  H   H159      1.0  0.06723  0.48527  0.13894  1.0000
  H   H160      1.0  0.49020  0.07743  0.08592  1.0000
  C   C95       1.0  0.00549  0.48563  0.03068  1.0000
  H   H161      1.0  0.18124  0.50561  0.19171  1.0000
  H   H162      1.0  0.03118  0.40581  0.25464  1.0000
  C   C96       1.0  0.37285  0.12882  0.26395  1.0000
  H   H163      1.0  0.07121  0.48093  0.41322  1.0000
  S   S25       1.0  0.47863  0.08701  0.38743  1.0000
  Fe  Fe13      1.0  0.35942  0.12464  0.33525  1.0000
  S   S26       1.0  0.31972  0.11328  0.34359  1.0000
  S   S27       1.0  0.38958  0.14335  0.34909  1.0000
  Fe  Fe14      1.0  0.35090  0.11041  0.30225  1.0000
  S   S28       1.0  0.31093  0.09748  0.30778  1.0000
  S   S29       1.0  0.37358  0.10566  0.27968  1.0000
  Fe  Fe15      1.0  0.30613  0.13307  0.32129  1.0000
  S   S30       1.0  0.26748  0.15373  0.31770  1.0000
  Fe  Fe16      1.0  0.32661  0.07857  0.32953  1.0000
  S   S31       1.0  0.31564  0.03906  0.33993  1.0000
  S   S32       1.0  0.34524  0.14714  0.31394  1.0000
  S   S33       1.0  0.36698  0.08867  0.32309  1.0000
  Fe  Fe17      1.0  0.13576  0.46228  0.41050  1.0000
  Fe  Fe18      1.0  0.15325  0.48648  0.44065  1.0000
  S   S34       1.0  0.12871  0.42361  0.40044  1.0000
  H   H164      1.0  0.07273  0.36225  0.35247  1.0000
  H   H165      1.0  0.24364  0.30110  0.31998  1.0000
  S   S35       1.0  0.17041  0.47607  0.46456  1.0000
  C   C97       1.0  0.24686  0.06205  0.32271  1.0000
  C   C98       1.0  0.32367  0.01070  0.31382  1.0000
  S   S36       1.0  0.11647  0.46996  0.43377  1.0000
  S   S37       1.0  0.17351  0.47579  0.41814  1.0000
  Fe  Fe19      1.0  0.17357  0.27907  0.32882  1.0000
  S   S38       1.0  0.18166  0.31461  0.31350  1.0000
  S   S39       1.0  0.20921  0.25641  0.33701  1.0000
  Fe  Fe20      1.0  0.11530  0.29070  0.32863  1.0000
  S   S40       1.0  0.12020  0.32610  0.31295  1.0000
  S   S41       1.0  0.07583  0.28025  0.33894  1.0000
  Fe  Fe21      1.0  0.14907  0.30289  0.29967  1.0000
  S   S42       1.0  0.15025  0.29824  0.27354  1.0000
  Fe  Fe22      1.0  0.15224  0.33473  0.32845  1.0000
  S   S43       1.0  0.15841  0.37566  0.33535  1.0000
  S   S44       1.0  0.14191  0.26647  0.31429  1.0000
  S   S45       1.0  0.14635  0.30023  0.34481  1.0000
  C   C99       1.0  0.04562  0.29044  0.31329  1.0000
  C   C100      1.0  0.04652  0.28411  0.32930  1.0000
  H   H166      1.0  0.50257  0.11859  0.34725  1.0000
  H   H167      1.0  0.06317  0.29329  0.30652  1.0000
  C   C101      1.0  0.22139  0.23486  0.28186  1.0000
  H   H168      1.0  0.31371  0.21199  0.28318  1.0000
  H   H169      1.0  0.18011  0.34408  0.27601  1.0000
  C   C102      1.0  0.13520  0.41159  0.38173  1.0000
  C   C103      1.0  0.14769  0.42591  0.36957  1.0000
  C   C104      1.0  0.15437  0.41473  0.35542  1.0000
  C   C105      1.0  0.14842  0.38921  0.35314  1.0000
  C   C106      1.0  0.13524  0.37516  0.36512  1.0000
  C   C107      1.0  0.12881  0.38625  0.37932  1.0000
  H   H170      1.0  0.15241  0.44549  0.37114  1.0000
  H   H171      1.0  0.16437  0.42588  0.34620  1.0000
  H   H172      1.0  0.13040  0.35557  0.36355  1.0000
  H   H173      1.0  0.11914  0.37495  0.38861  1.0000
  H   H174      1.0  0.25974  0.08020  0.30031  1.0000
  H   H175      1.0  0.22289  0.09553  0.32476  1.0000
  H   H176      1.0  0.22150  0.22626  0.27033  1.0000
  C   C108      1.0  0.03238  0.47563  0.40720  1.0000
  C   C109      1.0  0.00773  0.48604  0.40714  1.0000
  H   H177      1.0  0.50090  0.07361  0.32614  1.0000
  H   H178      1.0  0.21589  0.13450  0.33334  1.0000
  H   H179      1.0  0.48475  0.17831  0.30206  1.0000
  H   H180      1.0  0.19475  0.11997  0.34817  1.0000
  H   H181      1.0  0.22700  0.07016  0.30110  1.0000
  H   H182      1.0  0.07642  0.39425  0.26228  1.0000
  C   C110      1.0  0.25199  0.18265  0.32307  1.0000
  C   C111      1.0  0.22705  0.18792  0.31820  1.0000
  C   C112      1.0  0.21366  0.21023  0.32236  1.0000
  C   C113      1.0  0.22505  0.22774  0.33145  1.0000
  C   C114      1.0  0.25002  0.22248  0.33630  1.0000
  C   C115      1.0  0.26343  0.20017  0.33213  1.0000
  H   H183      1.0  0.21787  0.17451  0.31127  1.0000
  H   H184      1.0  0.19440  0.21372  0.31869  1.0000
  H   H185      1.0  0.25904  0.23577  0.34339  1.0000
  H   H186      1.0  0.28250  0.19645  0.33607  1.0000
  H   H187      1.0  0.19981  0.37387  0.25563  1.0000
  C   C116      1.0  0.24648  0.06511  0.30493  1.0000
  H   H188      1.0  0.32883  0.02838  0.30746  1.0000
  H   H189      1.0  0.18579  0.36500  0.43703  1.0000
  H   H190      1.0  0.49193  0.20531  0.44128  1.0000
  H   H191      1.0  0.34795  0.15508  0.27558  1.0000
  C   C117      1.0  0.45383  0.10321  0.37708  1.0000
  C   C118      1.0  0.44796  0.12904  0.37860  1.0000
  C   C119      1.0  0.42834  0.14103  0.36991  1.0000
  C   C120      1.0  0.41408  0.12730  0.35980  1.0000
  C   C121      1.0  0.42002  0.10151  0.35823  1.0000
  C   C122      1.0  0.43987  0.08962  0.36674  1.0000
  H   H192      1.0  0.45839  0.13975  0.38653  1.0000
  H   H193      1.0  0.42392  0.16098  0.37123  1.0000
  H   H194      1.0  0.40930  0.09074  0.35048  1.0000
  H   H195      1.0  0.44425  0.06965  0.36545  1.0000
  H   H196      1.0  0.29399  0.19286  0.29682  1.0000
  H   H197      1.0  0.18068  0.03853  0.36870  1.0000
  H   H198      1.0  0.01898  0.37520  0.26210  1.0000
  H   H199      1.0  0.23458  0.11479  0.36535  1.0000
  C   C123      1.0  0.21036  0.15541  0.35386  1.0000
  N   N6        1.0  0.43145  0.16502  0.29677  1.0000
  C   C124      1.0  0.44335  0.17629  0.28173  1.0000
  C   C125      1.0  0.44483  0.17513  0.31028  1.0000
  C   C126      1.0  0.43377  0.13634  0.29678  1.0000
  C   C127      1.0  0.40361  0.17225  0.29837  1.0000
  C   C128      1.0  0.39696  0.20103  0.29531  1.0000
  H   H200      1.0  0.15472  0.23613  0.28418  1.0000
  C   C129      1.0  0.42735  0.12147  0.31253  1.0000
  C   C130      1.0  0.47342  0.16774  0.31143  1.0000
  C   C131      1.0  0.02350  0.28032  0.33795  1.0000
  C   C132      1.0  0.36846  0.20619  0.29775  1.0000
  S   S46       1.0  0.50394  0.12536  0.46350  1.0000
  C   C133      1.0  0.43022  0.09273  0.31092  1.0000
  H   H201      1.0  0.46352  0.16980  0.28045  1.0000
  H   H202      1.0  0.44422  0.19743  0.28187  1.0000
  H   H203      1.0  0.44395  0.19631  0.30970  1.0000
  H   H204      1.0  0.43473  0.16927  0.32154  1.0000
  H   H205      1.0  0.45316  0.13034  0.29271  1.0000
  H   H206      1.0  0.42089  0.12898  0.28815  1.0000
  H   H207      1.0  0.39210  0.16130  0.29054  1.0000
  H   H208      1.0  0.39615  0.16662  0.31035  1.0000
  H   H209      1.0  0.40214  0.20775  0.28315  1.0000
  H   H210      1.0  0.40699  0.21284  0.30331  1.0000
  H   H211      1.0  0.25763  0.19924  0.27901  1.0000
  S   S47       1.0  0.12449  0.50029  0.39911  1.0000
  H   H212      1.0  0.40752  0.12567  0.31649  1.0000
  H   H213      1.0  0.44016  0.12650  0.32178  1.0000
  H   H214      1.0  0.01495  0.37850  0.31304  1.0000
  H   H215      1.0  0.17567  0.20930  0.28853  1.0000
  H   H216      1.0  0.30838  0.06603  0.36887  1.0000
  C   C134      1.0  0.26965  0.08136  0.37052  1.0000
  C   C135      1.0  0.26143  0.07388  0.35425  1.0000
  H   H217      1.0  0.35744  0.19463  0.29006  1.0000
  H   H218      1.0  0.36240  0.20160  0.31011  1.0000
  H   H219      1.0  0.36414  0.22666  0.29488  1.0000
  H   H220      1.0  0.47689  0.14710  0.31033  1.0000
  H   H221      1.0  0.43235  0.14856  0.26504  1.0000
  H   H222      1.0  0.19226  0.48985  0.33072  1.0000
  H   H223      1.0  0.41679  0.08631  0.30233  1.0000
  H   H224      1.0  0.44995  0.08768  0.30709  1.0000
  H   H225      1.0  0.42589  0.08245  0.32236  1.0000
  H   H226      1.0  0.27822  0.07831  0.34636  1.0000
  N   N7        1.0  0.21579  0.40353  0.39611  1.0000
  C   C136      1.0  0.21052  0.39488  0.41301  1.0000
  C   C137      1.0  0.24417  0.40354  0.39241  1.0000
  C   C138      1.0  0.20587  0.43065  0.39384  1.0000
  C   C139      1.0  0.20220  0.38745  0.38518  1.0000
  C   C140      1.0  0.20968  0.35882  0.38554  1.0000
  C   C141      1.0  0.18232  0.39581  0.41897  1.0000
  C   C142      1.0  0.21255  0.44499  0.37788  1.0000
  C   C143      1.0  0.26070  0.38276  0.40106  1.0000
  C   C144      1.0  0.28784  0.38217  0.39408  1.0000
  C   C145      1.0  0.19217  0.34411  0.37563  1.0000
  C   C146      1.0  0.17949  0.38529  0.43590  1.0000
  C   C147      1.0  0.20411  0.47301  0.37793  1.0000
  H   H227      1.0  0.22141  0.40685  0.42063  1.0000
  H   H228      1.0  0.21738  0.37506  0.41556  1.0000
  H   H229      1.0  0.24792  0.40236  0.37962  1.0000
  H   H230      1.0  0.25250  0.42193  0.39540  1.0000
  H   H231      1.0  0.21297  0.44232  0.40313  1.0000
  H   H232      1.0  0.18474  0.43131  0.39506  1.0000
  H   H233      1.0  0.18132  0.38904  0.38722  1.0000
  H   H234      1.0  0.20553  0.39480  0.37289  1.0000
  H   H235      1.0  0.20846  0.34978  0.39751  1.0000
  H   H236      1.0  0.22929  0.35654  0.38054  1.0000
  H   H237      1.0  0.17493  0.41571  0.41868  1.0000
  H   H238      1.0  0.17011  0.38431  0.41194  1.0000
  H   H239      1.0  0.20277  0.43638  0.36832  1.0000
  H   H240      1.0  0.23328  0.44469  0.37504  1.0000
  H   H241      1.0  0.26187  0.38699  0.41352  1.0000
  H   H242      1.0  0.25286  0.36343  0.40068  1.0000
  H   H243      1.0  0.28785  0.37698  0.38175  1.0000
  H   H244      1.0  0.29686  0.40105  0.39465  1.0000
  H   H245      1.0  0.29939  0.36768  0.40076  1.0000
  H   H246      1.0  0.19884  0.32396  0.37531  1.0000
  C   C148      1.0  0.35915  0.15172  0.26509  1.0000
  H   H247      1.0  0.19210  0.35257  0.36346  1.0000
  C   C149      1.0  0.05226  0.48923  0.41301  1.0000
  C   C150      1.0  0.24998  0.26534  0.26677  1.0000
  C   C151      1.0  0.17373  0.22760  0.28145  1.0000
  H   H248      1.0  0.18327  0.47473  0.38032  1.0000
  H   H249      1.0  0.21410  0.48288  0.38695  1.0000
  H   H250      1.0  0.20877  0.48285  0.36642  1.0000
  H   H251      1.0  0.06215  0.28733  0.25840  1.0000
  C   C152      1.0  0.02200  0.29225  0.30599  1.0000
  H   H252      1.0  0.25345  0.12438  0.34870  1.0000
  H   H253      1.0  0.03604  0.45686  0.40302  1.0000
  H   H254      1.0  0.48073  0.19504  0.32884  1.0000
  H   H255      1.0  0.25592  0.10122  0.32601  1.0000
  H   H256      1.0  0.07240  0.36768  0.33146  1.0000
  H   H257      1.0  0.26781  0.32216  0.31151  1.0000
  H   H258      1.0  0.10808  0.40302  0.27660  1.0000
  H   H259      1.0  0.19800  0.07834  0.34541  1.0000
  H   H260      1.0  0.26704  0.30036  0.28665  1.0000
  C   C153      1.0  0.26019  0.29016  0.29763  1.0000
  H   H261      1.0  0.49178  0.01887  0.46199  1.0000
  C   C154      1.0  0.26653  0.23678  0.28772  1.0000
  H   H262      1.0  0.31903  0.24998  0.26205  1.0000
  H   H263      1.0  0.23665  0.32300  0.30352  1.0000
  C   C155      1.0  0.03838  0.34925  0.34195  1.0000
  C   C156      1.0  0.07810  0.31642  0.27212  1.0000
  C   C157      1.0  0.07246  0.37374  0.26124  1.0000
  H   H264      1.0  0.36000  0.04655  0.35965  1.0000
  C   C158      1.0  0.17902  0.34031  0.26382  1.0000
  H   H265      1.0  0.47362  0.16314  0.33683  1.0000
  C   C159      1.0  0.13593  0.38787  0.29232  1.0000
  H   H266      1.0  0.02399  0.27528  0.35032  1.0000
  H   H267      1.0  0.03453  0.33507  0.35178  1.0000
  C   C160      1.0  0.37662  0.04019  0.36657  1.0000
  H   H268      1.0  0.22847  0.16603  0.35265  1.0000
  H   H269      1.0  0.06385  0.27864  0.27893  1.0000
  H   H270      1.0  0.09877  0.35677  0.28493  1.0000
  H   H271      1.0  0.28524  0.04374  0.37750  1.0000
  C   C161      1.0  0.16026  0.48300  0.48400  1.0000
  H   H272      1.0  0.27633  0.27951  0.30304  1.0000
  H   H273      1.0  0.19077  0.39667  0.44358  1.0000
  H   H274      1.0  0.08928  0.31622  0.28281  1.0000
  C   C162      1.0  0.06699  0.35428  0.34148  1.0000
  H   H275      1.0  0.05918  0.32533  0.27448  1.0000
  H   H276      1.0  0.34988  0.26484  0.25953  1.0000
  N   N8        1.0  0.24366  0.25260  0.28262  1.0000
  C   C163      1.0  0.29703  0.19931  0.28436  1.0000
  H   H277      1.0  0.29609  0.06943  0.38844  1.0000
  H   H278      1.0  0.19197  0.24978  0.29780  1.0000
  H   H279      1.0  0.19526  0.16740  0.34826  1.0000
  H   H280      1.0  0.15123  0.37302  0.29306  1.0000
  H   H281      1.0  0.14467  0.40670  0.29353  1.0000
  H   H282      1.0  0.12196  0.38432  0.30220  1.0000
  C   C164      1.0  0.02297  0.37416  0.34437  1.0000
  H   H283      1.0  0.20509  0.15213  0.36644  1.0000
  H   H284      1.0  0.22407  0.29904  0.26806  1.0000
  H   H285      1.0  0.02388  0.48488  0.49734  1.0000
  H   H286      1.0  0.17435  0.05755  0.38519  1.0000
  C   C165      1.0  0.48353  0.17438  0.32710  1.0000
  H   H287      1.0  0.27686  0.10118  0.36967  1.0000
  C   C166      1.0  0.24057  0.08780  0.33012  1.0000
  H   H288      1.0  0.15917  0.38651  0.43985  1.0000
  H   H289      1.0  0.21726  0.05132  0.34985  1.0000
  H   H290      1.0  0.18899  0.45844  0.49445  1.0000
  H   H291      1.0  0.03030  0.38901  0.33563  1.0000
  H   H292      1.0  0.02156  0.29648  0.29354  1.0000
  H   H293      1.0  0.03842  0.48455  0.47240  1.0000
  H   H294      1.0  0.21941  0.05952  0.37700  1.0000
  H   H295      1.0  0.17244  0.34420  0.38071  1.0000
  H   H296      1.0  0.23318  0.26170  0.30611  1.0000
  H   H297      1.0  0.20378  0.09041  0.37426  1.0000
  C   C167      1.0  0.17985  0.05834  0.37257  1.0000
  H   H298      1.0  0.23293  0.04718  0.32653  1.0000
  C   C168      1.0  0.19442  0.24606  0.28525  1.0000
  H   H299      1.0  0.17479  0.22392  0.26886  1.0000
  C   C169      1.0  0.50363  0.12613  0.49561  1.0000
  C   C170      1.0  0.21299  0.13006  0.34606  1.0000
  H   H300      1.0  0.40985  0.17433  0.26697  1.0000
  H   H301      1.0  0.32834  0.00995  0.26159  1.0000
  H   H302      1.0  0.19115  0.26420  0.27847  1.0000
  C   C171      1.0  0.25145  0.31029  0.30885  1.0000
  C   C172      1.0  0.17334  0.47150  0.49669  1.0000
  H   H303      1.0  0.07771  0.33611  0.34013  1.0000
  H   H304      1.0  0.28390  0.24862  0.28717  1.0000
  H   H305      1.0  0.09247  0.27864  0.26677  1.0000
  H   H306      1.0  0.22133  0.28391  0.29197  1.0000
  H   H307      1.0  0.48503  0.13502  0.49449  1.0000
  H   H308      1.0  0.26371  0.22971  0.30017  1.0000
  H   H309      1.0  0.02862  0.38065  0.35580  1.0000
  C   C173      1.0  0.43038  0.16931  0.26665  1.0000
  C   C174      1.0  0.12291  0.38779  0.27671  1.0000
  H   H310      1.0  0.49994  0.17189  0.44180  1.0000
  H   H311      1.0  0.26609  0.05492  0.32585  1.0000
  H   H312      1.0  0.22313  0.21843  0.29056  1.0000
  C   C175      1.0  0.14001  0.49980  0.48717  1.0000
  H   H313      1.0  0.39439  0.04587  0.35997  1.0000
  H   H314      1.0  0.37573  0.05010  0.37762  1.0000
  C   C176      1.0  0.23573  0.11397  0.35250  1.0000
  C   C177      1.0  0.27330  0.21319  0.27821  1.0000
  N   N9        1.0  0.23780  0.08679  0.34773  1.0000
  C   C178      1.0  0.21436  0.07163  0.35250  1.0000
  C   C179      1.0  0.20572  0.07104  0.36991  1.0000
  H   H315      1.0  0.16498  0.06941  0.36613  1.0000
  C   C180      1.0  0.23827  0.27185  0.29473  1.0000
  H   H316      1.0  0.25978  0.05274  0.35451  1.0000
  C   C181      1.0  0.37630  0.01131  0.37014  1.0000
  H   H317      1.0  0.03405  0.34092  0.33084  1.0000
  H   H318      1.0  0.06196  0.36770  0.27230  1.0000
  H   H319      1.0  0.25250  0.04687  0.29991  1.0000
  H   H320      1.0  0.25300  0.25081  0.25800  1.0000
  H   H321      1.0  0.48121  0.04828  0.49441  1.0000
  H   H322      1.0  0.30125  0.18225  0.27763  1.0000
  C   C182      1.0  0.29112  0.06400  0.37666  1.0000
  N   N10       1.0  0.09704  0.35873  0.25969  1.0000
  H   H323      1.0  0.34778  0.23080  0.26284  1.0000
  H   H324      1.0  0.25379  0.08053  0.37931  1.0000
  H   H325      1.0  0.13754  0.39284  0.26745  1.0000
  H   H326      1.0  0.00905  0.41759  0.35948  1.0000
  H   H327      1.0  0.12725  0.34714  0.27513  1.0000
  C   C183      1.0  0.11133  0.36129  0.27445  1.0000
  C   C184      1.0  0.09243  0.33070  0.25818  1.0000
  C   C185      1.0  0.31632  0.01078  0.32962  1.0000
  H   H328      1.0  0.15797  0.49182  0.32928  1.0000
  H   H329      1.0  0.21270  0.27374  0.25688  1.0000
  Fe  Fe23      1.0  0.50453  0.09788  0.40683  1.0000
  C   C186      1.0  0.16620  0.31890  0.25955  1.0000
  C   C187      1.0  0.02892  0.50085  0.46594  1.0000
  H   H330      1.0  0.47447  0.09182  0.33382  1.0000
  H   H331      1.0  0.17189  0.48848  0.34809  1.0000
  H   H332      1.0  0.50420  0.16979  0.32741  1.0000
  C   C188      1.0  0.07391  0.28859  0.26878  1.0000
  H   H333      1.0  0.03437  0.49846  0.45348  1.0000
  C   C189      1.0  0.17433  0.49738  0.33608  1.0000
  H   H334      1.0  0.01499  0.46775  0.44305  1.0000
  C   C190      1.0  0.22977  0.28423  0.25993  1.0000
  H   H335      1.0  0.50262  0.14652  0.37402  1.0000
  C   C191      1.0  0.48945  0.05906  0.50367  1.0000
  H   H336      1.0  0.11094  0.32058  0.25637  1.0000
  C   C192      1.0  0.33868  0.24791  0.25705  1.0000
  H   H337      1.0  0.26841  0.27538  0.26683  1.0000
  H   H338      1.0  0.27733  0.21882  0.26574  1.0000
  C   C193      1.0  0.49481  0.09273  0.32984  1.0000
  H   H339      1.0  0.49666  0.10689  0.31976  1.0000
  C   C194      1.0  0.13319  0.50510  0.50274  1.0000
  H   H340      1.0  0.03180  0.41766  0.50356  1.0000
  H   H341      1.0  0.35865  0.00691  0.37720  1.0000
  H   H342      1.0  0.39300  0.00622  0.37725  1.0000
  Fe  Fe24      1.0  0.33254  0.08415  0.66772  1.0000
  S   S48       1.0  0.36641  0.08647  0.68258  1.0000
  S   S49       1.0  0.32801  0.04624  0.65649  1.0000
  Fe  Fe25      1.0  0.32147  0.14228  0.66857  1.0000
  S   S50       1.0  0.35577  0.14775  0.68288  1.0000
  S   S51       1.0  0.29977  0.17962  0.66230  1.0000
  Fe  Fe26      1.0  0.37661  0.12109  0.66715  1.0000
  S   S52       1.0  0.41850  0.12444  0.65977  1.0000
  Fe  Fe27      1.0  0.34246  0.11284  0.69678  1.0000
  S   S53       1.0  0.33789  0.10910  0.72317  1.0000
  S   S54       1.0  0.34369  0.11815  0.65162  1.0000
  S   S55       1.0  0.30730  0.10804  0.68314  1.0000
  C   C195      1.0  0.49013  0.04278  0.51898  1.0000
  S   S56       1.0  0.46102  0.12930  0.58929  1.0000
  Fe  Fe28      1.0  0.17453  0.26398  0.68237  1.0000
  S   S57       1.0  0.19754  0.29813  0.67426  1.0000
  S   S58       1.0  0.19010  0.22285  0.68330  1.0000
  Fe  Fe29      1.0  0.12673  0.29729  0.69040  1.0000
  S   S59       1.0  0.14741  0.33351  0.68335  1.0000
  S   S60       1.0  0.08638  0.30286  0.70071  1.0000
  Fe  Fe30      1.0  0.16208  0.31312  0.66258  1.0000
  S   S61       1.0  0.15614  0.32751  0.63740  1.0000
  Fe  Fe31      1.0  0.18067  0.31525  0.69582  1.0000
  S   S62       1.0  0.20598  0.33636  0.71139  1.0000
  S   S63       1.0  0.13989  0.27743  0.66915  1.0000
  S   S64       1.0  0.15910  0.28053  0.70447  1.0000
  Fe  Fe32      1.0  0.16652  0.46136  0.58930  1.0000
  S   S65       1.0  0.19166  0.42959  0.59977  1.0000
  C   C196      1.0  0.01080  0.30051  0.69210  1.0000
  S   S66       1.0  0.13288  0.45795  0.57422  1.0000
  H   H343      1.0  0.45562  0.27771  0.73096  1.0000
  C   C197      1.0  0.37912  0.01711  0.68900  1.0000
  H   H344      1.0  0.30240  0.14964  0.74189  1.0000
  H   H345      1.0  0.47781  0.03284  0.64469  1.0000
  C   C198      1.0  0.47637  0.23515  0.74760  1.0000
  C   C199      1.0  0.03330  0.27992  0.67119  1.0000
  C   C200      1.0  0.05680  0.28474  0.67773  1.0000
  C   C201      1.0  0.05740  0.29714  0.69164  1.0000
  C   C202      1.0  0.03429  0.30505  0.69875  1.0000
  H   H346      1.0  0.14634  0.41335  0.70855  1.0000
  H   H347      1.0  0.03305  0.26997  0.66055  1.0000
  H   H348      1.0  0.07440  0.27850  0.67215  1.0000
  H   H349      1.0  0.03456  0.31458  0.70952  1.0000
  H   H350      1.0  0.20358  0.21360  0.73351  1.0000
  C   C203      1.0  0.16390  0.35808  0.62870  1.0000
  C   C204      1.0  0.15084  0.36736  0.61549  1.0000
  C   C205      1.0  0.15814  0.39020  0.60718  1.0000
  C   C206      1.0  0.17909  0.40363  0.61170  1.0000
  C   C207      1.0  0.19198  0.39451  0.62502  1.0000
  C   C208      1.0  0.18412  0.37213  0.63367  1.0000
  H   H351      1.0  0.13535  0.35654  0.61146  1.0000
  H   H352      1.0  0.14846  0.39672  0.59679  1.0000
  H   H353      1.0  0.20839  0.40459  0.62850  1.0000
  H   H354      1.0  0.19447  0.36515  0.64373  1.0000
  C   C209      1.0  0.20111  0.33312  0.73184  1.0000
  C   C210      1.0  0.18789  0.31251  0.73907  1.0000
  C   C211      1.0  0.26099  0.13534  0.72274  1.0000
  C   C212      1.0  0.21017  0.35192  0.74104  1.0000
  H   H355      1.0  0.18151  0.29754  0.73217  1.0000
  H   H356      1.0  0.03577  0.37489  0.74013  1.0000
  H   H357      1.0  0.22065  0.36781  0.73556  1.0000
  H   H358      1.0  0.05220  0.49763  0.52506  1.0000
  C   C213      1.0  0.22136  0.21140  0.67858  1.0000
  C   C214      1.0  0.22638  0.18495  0.67967  1.0000
  C   C215      1.0  0.25047  0.17490  0.67522  1.0000
  C   C216      1.0  0.26990  0.19124  0.66960  1.0000
  C   C217      1.0  0.26505  0.21772  0.66884  1.0000
  C   C218      1.0  0.24102  0.22778  0.67339  1.0000
  H   H359      1.0  0.21132  0.17208  0.68364  1.0000
  H   H360      1.0  0.25376  0.15449  0.67568  1.0000
  H   H361      1.0  0.27992  0.23054  0.66448  1.0000
  H   H362      1.0  0.23757  0.24817  0.67258  1.0000
  C   C219      1.0  0.35578  0.12829  0.73476  1.0000
  C   C220      1.0  0.37303  0.14608  0.72805  1.0000
  C   C221      1.0  0.27883  0.15634  0.71516  1.0000
  H   H363      1.0  0.48790  0.22742  0.73776  1.0000
  H   H364      1.0  0.37605  0.14790  0.71553  1.0000
  H   H365      1.0  0.33882  0.05590  0.71027  1.0000
  H   H366      1.0  0.05141  0.39082  0.63440  1.0000
  C   C222      1.0  0.42943  0.12484  0.64004  1.0000
  C   C223      1.0  0.41320  0.13010  0.62768  1.0000
  C   C224      1.0  0.42305  0.13130  0.61217  1.0000
  C   C225      1.0  0.44912  0.12717  0.60889  1.0000
  C   C226      1.0  0.46515  0.12151  0.62127  1.0000
  C   C227      1.0  0.45538  0.12034  0.63674  1.0000
  H   H367      1.0  0.39315  0.13363  0.63007  1.0000
  H   H368      1.0  0.41042  0.13565  0.60269  1.0000
  H   H369      1.0  0.48506  0.11797  0.61895  1.0000
  H   H370      1.0  0.46799  0.11599  0.64622  1.0000
  H   H371      1.0  0.21682  0.49666  0.51928  1.0000
  H   H372      1.0  0.01060  0.31109  0.64736  1.0000
  H   H373      1.0  0.26292  0.11108  0.70306  1.0000
  H   H374      1.0  0.00707  0.38492  0.67029  1.0000
  H   H375      1.0  0.29877  0.33275  0.75333  1.0000
  H   H376      1.0  0.49800  0.05443  0.52795  1.0000
  C   C228      1.0  0.02796  0.41664  0.62085  1.0000
  C   C229      1.0  0.37686  0.02266  0.70654  1.0000
  H   H377      1.0  0.02288  0.36440  0.62088  1.0000
  N   N11       1.0  0.01268  0.35226  0.64492  1.0000
  H   H378      1.0  0.49284  0.17279  0.59088  1.0000
  H   H379      1.0  0.26718  0.29630  0.71529  1.0000
  H   H380      1.0  0.08763  0.36525  0.65552  1.0000
  S   S67       1.0  0.13763  0.50233  0.53474  1.0000
  H   H381      1.0  0.08343  0.47991  0.55348  1.0000
  C   C230      1.0  0.25954  0.28653  0.72626  1.0000
  C   C231      1.0  0.00914  0.32673  0.63814  1.0000
  H   H382      1.0  0.37142  0.00607  0.73582  1.0000
  C   C232      1.0  0.38288  0.15938  0.75385  1.0000
  H   H383      1.0  0.30518  0.03175  0.72936  1.0000
  C   C233      1.0  0.06418  0.50096  0.53508  1.0000
  C   C234      1.0  0.28933  0.16662  0.74190  1.0000
  H   H384      1.0  0.47776  0.18869  0.61635  1.0000
  C   C235      1.0  0.45715  0.18690  0.65704  1.0000
  H   H385      1.0  0.06303  0.34838  0.63420  1.0000
  H   H386      1.0  0.37356  0.05526  0.73131  1.0000
  H   H387      1.0  0.29590  0.07419  0.71638  1.0000
  H   H388      1.0  0.10901  0.36695  0.71484  1.0000
  H   H389      1.0  0.02592  0.34711  0.73077  1.0000
  H   H390      1.0  0.02977  0.39224  0.51859  1.0000
  C   C236      1.0  0.04574  0.46337  0.55164  1.0000
  H   H391      1.0  0.44680  0.17546  0.64894  1.0000
  C   C237      1.0  0.48217  0.19639  0.64932  1.0000
  H   H392      1.0  0.08043  0.46303  0.53614  1.0000
  N   N12       1.0  0.11405  0.35591  0.73919  1.0000
  H   H393      1.0  0.23859  0.28973  0.72683  1.0000
  C   C238      1.0  0.02531  0.48278  0.59542  1.0000
  H   H394      1.0  0.36502  0.02852  0.68219  1.0000
  C   C239      1.0  0.27185  0.29734  0.74023  1.0000
  C   C240      1.0  0.22632  0.47517  0.54030  1.0000
  H   H395      1.0  0.06879  0.35956  0.72115  1.0000
  H   H396      1.0  0.10181  0.41443  0.59045  1.0000
  C   C241      1.0  0.30495  0.03352  0.71647  1.0000
  N   N13       1.0  0.45099  0.03630  0.61643  1.0000
  H   H397      1.0  0.10119  0.33572  0.64928  1.0000
  C   C242      1.0  0.42678  0.05048  0.62113  1.0000
  C   C243      1.0  0.45185  0.03514  0.59889  1.0000
  C   C244      1.0  0.47418  0.05037  0.62078  1.0000
  C   C245      1.0  0.47848  0.05184  0.63838  1.0000
  H   H398      1.0  0.22323  0.22714  0.71766  1.0000
  C   C246      1.0  0.44978  0.06118  0.58938  1.0000
  C   C247      1.0  0.41443  0.04320  0.63745  1.0000
  C   C248      1.0  0.39209  0.06099  0.64128  1.0000
  H   H399      1.0  0.12488  0.50317  0.64867  1.0000
  H   H400      1.0  0.11559  0.40264  0.57256  1.0000
  C   C249      1.0  0.44877  0.05746  0.57193  1.0000
  H   H401      1.0  0.04874  0.44665  0.52171  1.0000
  C   C250      1.0  0.01460  0.37254  0.63165  1.0000
  H   H402      1.0  0.42992  0.07148  0.62035  1.0000
  H   H403      1.0  0.41149  0.04741  0.61283  1.0000
  H   H404      1.0  0.00799  0.42392  0.62058  1.0000
  C   C251      1.0  0.35467  0.01785  0.73211  1.0000
  H   H405      1.0  0.49164  0.04223  0.61518  1.0000
  H   H406      1.0  0.47342  0.07045  0.61596  1.0000
  H   H407      1.0  0.02177  0.46690  0.60375  1.0000
  H   H408      1.0  0.46393  0.06465  0.64356  1.0000
  H   H409      1.0  0.05911  0.31867  0.64547  1.0000
  H   H410      1.0  0.07193  0.41666  0.53888  1.0000
  H   H411      1.0  0.46664  0.07291  0.59107  1.0000
  H   H412      1.0  0.43251  0.07221  0.59281  1.0000
  H   H413      1.0  0.39974  0.17534  0.73227  1.0000
  H   H414      1.0  0.42817  0.04391  0.64681  1.0000
  H   H415      1.0  0.39847  0.08094  0.64150  1.0000
  H   H416      1.0  0.37704  0.06003  0.63261  1.0000
  H   H417      1.0  0.38368  0.05524  0.65297  1.0000
  H   H418      1.0  0.04080  0.36863  0.65918  1.0000
  H   H419      1.0  0.46064  0.17496  0.66789  1.0000
  H   H420      1.0  0.10141  0.38090  0.58725  1.0000
  H   H421      1.0  0.10670  0.27822  0.73196  1.0000
  C   C252      1.0  0.32078  0.01567  0.66539  1.0000
  H   H422      1.0  0.46623  0.04741  0.56774  1.0000
  H   H423      1.0  0.43175  0.04640  0.56941  1.0000
  H   H424      1.0  0.44760  0.07641  0.56548  1.0000
  H   H425      1.0  0.04436  0.39953  0.54501  1.0000
  C   C253      1.0  0.38644  0.16161  0.73756  1.0000
  C   C254      1.0  0.09982  0.40032  0.58146  1.0000
  N   N14       1.0  0.21130  0.24857  0.62717  1.0000
  C   C255      1.0  0.21235  0.27358  0.63486  1.0000
  C   C256      1.0  0.19192  0.23179  0.63600  1.0000
  C   C257      1.0  0.23708  0.23565  0.62880  1.0000
  C   C258      1.0  0.20548  0.25189  0.61006  1.0000
  C   C259      1.0  0.18839  0.27519  0.60493  1.0000
  C   C260      1.0  0.23457  0.29121  0.62896  1.0000
  C   C261      1.0  0.23932  0.20777  0.62384  1.0000
  C   C262      1.0  0.16385  0.24098  0.63551  1.0000
  C   C263      1.0  0.14666  0.22343  0.64594  1.0000
  C   C264      1.0  0.18005  0.27349  0.58820  1.0000
  C   C265      1.0  0.22907  0.31903  0.63229  1.0000
  C   C266      1.0  0.26714  0.19918  0.62208  1.0000
  H   H426      1.0  0.21436  0.26997  0.64765  1.0000
  H   H427      1.0  0.19421  0.28452  0.63384  1.0000
  H   H428      1.0  0.19189  0.21253  0.63136  1.0000
  H   H429      1.0  0.19707  0.22883  0.64845  1.0000
  H   H430      1.0  0.24299  0.23544  0.64109  1.0000
  H   H431      1.0  0.25190  0.24668  0.62185  1.0000
  H   H432      1.0  0.22335  0.25389  0.60273  1.0000
  H   H433      1.0  0.19657  0.23433  0.60627  1.0000
  H   H434      1.0  0.19897  0.29320  0.60536  1.0000
  H   H435      1.0  0.17105  0.27699  0.61249  1.0000
  H   H436      1.0  0.25220  0.28506  0.63497  1.0000
  H   H437      1.0  0.23845  0.29027  0.61624  1.0000
  H   H438      1.0  0.23014  0.20560  0.61260  1.0000
  H   H439      1.0  0.23018  0.19465  0.63294  1.0000
  H   H440      1.0  0.16139  0.26055  0.63947  1.0000
  H   H441      1.0  0.15698  0.24045  0.62349  1.0000
  H   H442      1.0  0.15243  0.22311  0.65824  1.0000
  H   H443      1.0  0.12666  0.23049  0.64545  1.0000
  H   H444      1.0  0.14757  0.20368  0.64200  1.0000
  H   H445      1.0  0.16822  0.25639  0.58725  1.0000
  H   H446      1.0  0.16851  0.29069  0.58476  1.0000
  H   H447      1.0  0.19689  0.27258  0.58004  1.0000
  H   H448      1.0  0.24583  0.33082  0.62868  1.0000
  H   H449      1.0  0.21260  0.32645  0.62559  1.0000
  H   H450      1.0  0.22485  0.32096  0.64491  1.0000
  H   H451      1.0  0.27717  0.20151  0.63303  1.0000
  H   H452      1.0  0.26819  0.17871  0.61953  1.0000
  H   H453      1.0  0.27702  0.21043  0.61237  1.0000
  H   H454      1.0  0.26371  0.26579  0.72587  1.0000
  H   H455      1.0  0.04044  0.47394  0.56210  1.0000
  H   H456      1.0  0.49091  0.20930  0.65731  1.0000
  C   C267      1.0  0.11960  0.37324  0.72485  1.0000
  H   H457      1.0  0.11073  0.32445  0.72435  1.0000
  H   H458      1.0  0.28903  0.02843  0.67948  1.0000
  H   H459      1.0  0.27111  0.15941  0.74717  1.0000
  H   H460      1.0  0.24562  0.14304  0.73028  1.0000
  C   C268      1.0  0.40553  0.02368  0.68205  1.0000
  H   H461      1.0  0.16048  0.38030  0.72828  1.0000
  C   C269      1.0  0.04038  0.40962  0.51444  1.0000
  C   C270      1.0  0.11799  0.28123  0.74235  1.0000
  H   H462      1.0  0.23608  0.47753  0.55135  1.0000
  C   C271      1.0  0.49645  0.19260  0.59385  1.0000
  C   C272      1.0  0.03093  0.39622  0.63414  1.0000
  C   C273      1.0  0.22349  0.21819  0.72973  1.0000
  C   C274      1.0  0.16635  0.47662  0.51225  1.0000
  H   H463      1.0  0.40677  0.02358  0.63773  1.0000
  N   N15       1.0  0.35158  0.01675  0.71478  1.0000
  H   H464      1.0  0.26831  0.31828  0.73937  1.0000
  H   H465      1.0  0.43636  0.02278  0.59529  1.0000
  N   N16       1.0  0.04782  0.43519  0.55604  1.0000
  C   C275      1.0  0.03615  0.35011  0.65457  1.0000
  H   H466      1.0  0.40910  0.04440  0.68252  1.0000
  H   H467      1.0  0.11256  0.39299  0.72663  1.0000
  H   H468      1.0  0.17167  0.39353  0.70098  1.0000
  N   N17       1.0  0.28625  0.17732  0.72535  1.0000
  H   H469      1.0  0.47747  0.20789  0.63860  1.0000
  H   H470      1.0  0.40671  0.01875  0.66968  1.0000
  C   C276      1.0  0.03880  0.42942  0.52675  1.0000
  H   H471      1.0  0.07264  0.38905  0.56525  1.0000
  C   C277      1.0  0.07407  0.40372  0.57391  1.0000
  H   H472      1.0  0.47754  0.07643  0.50532  1.0000
  H   H473      1.0  0.17655  0.46744  0.52178  1.0000
  H   H474      1.0  0.02578  0.40502  0.64520  1.0000
  C   C278      1.0  0.06049  0.33965  0.64622  1.0000
  H   H475      1.0  0.48021  0.18537  0.74768  1.0000
  C   C279      1.0  0.07023  0.47580  0.54417  1.0000
  H   H476      1.0  0.44481  0.20338  0.66004  1.0000
  H   H477      1.0  0.26865  0.05380  0.71707  1.0000
  C   C280      1.0  0.31183  0.18734  0.71943  1.0000
  C   C281      1.0  0.26735  0.19929  0.72432  1.0000
  C   C282      1.0  0.11989  0.32881  0.73527  1.0000
  C   C283      1.0  0.08643  0.35931  0.74411  1.0000
  C   C284      1.0  0.31445  0.19514  0.70174  1.0000
  Fe  Fe33      1.0  0.14670  0.49340  0.56062  1.0000
  Fe  Fe34      1.0  0.11396  0.48485  0.59042  1.0000
  C   C285      1.0  0.08434  0.34448  0.65517  1.0000
  C   C286      1.0  0.34031  0.20711  0.69762  1.0000
  C   C287      1.0  0.28816  0.05660  0.71193  1.0000
  H   H478      1.0  0.03624  0.34380  0.75054  1.0000
  H   H479      1.0  0.27016  0.16475  0.70437  1.0000
  H   H480      1.0  0.06979  0.44446  0.57569  1.0000
  H   H481      1.0  0.32701  0.17276  0.72197  1.0000
  H   H482      1.0  0.31685  0.20446  0.72561  1.0000
  H   H483      1.0  0.27429  0.21573  0.73043  1.0000
  H   H484      1.0  0.26556  0.20658  0.71199  1.0000
  C   C288      1.0  0.14789  0.37455  0.71910  1.0000
  C   C289      1.0  0.33216  0.03618  0.70894  1.0000
  S   S68       1.0  0.18238  0.49493  0.57451  1.0000
  H   H485      1.0  0.15450  0.35574  0.71527  1.0000
  H   H486      1.0  0.29976  0.20927  0.69794  1.0000
  H   H487      1.0  0.31281  0.17820  0.69481  1.0000
  H   H488      1.0  0.44880  0.00852  0.63627  1.0000
  C   C290      1.0  0.07061  0.43101  0.56616  1.0000
  H   H489      1.0  0.23084  0.23201  0.73766  1.0000
  H   H490      1.0  0.42855  0.26173  0.72408  1.0000
  S   S69       1.0  0.07554  0.47495  0.60116  1.0000
  H   H491      1.0  0.08257  0.33581  0.66727  1.0000
  H   H492      1.0  0.44040  0.22198  0.73840  1.0000
  C   C291      1.0  0.44840  0.25896  0.72792  1.0000
  H   H493      1.0  0.05940  0.40009  0.58338  1.0000
  H   H494      1.0  0.35603  0.19417  0.70158  1.0000
  H   H495      1.0  0.34245  0.21068  0.68477  1.0000
  H   H496      1.0  0.34181  0.22556  0.70314  1.0000
  H   H497      1.0  0.08850  0.43543  0.55928  1.0000
  H   H498      1.0  0.46020  0.25182  0.71807  1.0000
  H   H499      1.0  0.13950  0.38881  0.69543  1.0000
  C   C292      1.0  0.13031  0.36222  0.75248  1.0000
  C   C293      1.0  0.02459  0.42726  0.56589  1.0000
  C   C294      1.0  0.06677  0.34959  0.73287  1.0000
  H   H500      1.0  0.47012  0.03830  0.52262  1.0000
  H   H501      1.0  0.23898  0.18538  0.74233  1.0000
  H   H502      1.0  0.28692  0.05910  0.69908  1.0000
  C   C295      1.0  0.03757  0.49282  0.63759  1.0000
  C   C296      1.0  0.35815  0.04486  0.73802  1.0000
  C   C297      1.0  0.24838  0.12047  0.71049  1.0000
  H   H503      1.0  0.29607  0.14564  0.71106  1.0000
  H   H504      1.0  0.23630  0.13338  0.70304  1.0000
  H   H505      1.0  0.34029  0.05627  0.73692  1.0000
  H   H506      1.0  0.38135  0.04317  0.70726  1.0000
  C   C298      1.0  0.44881  0.23980  0.74203  1.0000
  C   C299      1.0  0.30035  0.01217  0.67614  1.0000
  H   H507      1.0  0.29256  0.29332  0.73916  1.0000
  H   H508      1.0  0.06907  0.32882  0.73148  1.0000
  H   H509      1.0  0.29570  0.01641  0.71241  1.0000
  S   S70       1.0  0.14641  0.48584  0.60638  1.0000
  H   H510      1.0  0.14048  0.32627  0.73255  1.0000
  C   C300      1.0  0.15142  0.39379  0.70517  1.0000
  H   H511      1.0  0.23613  0.10547  0.71633  1.0000
  H   H512      1.0  0.06054  0.40433  0.51172  1.0000
  H   H513      1.0  0.03253  0.33720  0.66518  1.0000
  C   C301      1.0  0.23976  0.19373  0.73018  1.0000
  H   H514      1.0  0.03341  0.40889  0.60945  1.0000
  H   H515      1.0  0.47006  0.02631  0.59475  1.0000
  C   C302      1.0  0.11275  0.30782  0.74811  1.0000
  H   H516      1.0  0.13852  0.27864  0.73926  1.0000
  C   C303      1.0  0.01018  0.28771  0.67834  1.0000
  H   H517      1.0  0.42047  0.01260  0.68841  1.0000
  C   C304      1.0  0.05132  0.41920  0.54205  1.0000
  Fe  Fe35      1.0  0.50252  0.12040  0.58297  1.0000
  H   H518      1.0  0.48101  0.20510  0.58908  1.0000
  H   H519      1.0  0.01708  0.49369  0.63488  1.0000
  H   H520      1.0  0.33011  0.03526  0.69620  1.0000
  H   H521      1.0  0.33819  0.00901  0.73878  1.0000
  C   C305      1.0  0.05018  0.49103  0.59210  1.0000
  H   H522      1.0  0.27233  0.12159  0.73013  1.0000
  C   C306      1.0  0.14631  0.49362  0.51541  1.0000
  H   H523      1.0  0.02376  0.43770  0.57684  1.0000
  C   C307      1.0  0.03954  0.35420  0.73902  1.0000
  H   H524      1.0  0.02987  0.46770  0.54376  1.0000
  H   H525      1.0  0.02479  0.32293  0.62947  1.0000
  H   H526      1.0  0.03932  0.48640  0.65006  1.0000
  H   H527      1.0  0.48419  0.25426  0.74905  1.0000
  H   H528      1.0  0.04060  0.43286  0.62261  1.0000
  C   C308      1.0  0.50077  0.17381  0.64621  1.0000
  H   H529      1.0  0.39265  0.01214  0.71250  1.0000
  H   H530      1.0  0.02570  0.40664  0.56955  1.0000
  C   C309      1.0  0.45074  0.00915  0.62337  1.0000
  H   H531      1.0  0.32000  0.18985  0.75021  1.0000
  H   H532      1.0  0.13572  0.40348  0.74696  1.0000
  H   H533      1.0  0.23085  0.18067  0.72238  1.0000
  H   H534      1.0  0.20674  0.46825  0.54314  1.0000
  H   H535      1.0  0.23684  0.46048  0.53376  1.0000
  H   H536      1.0  0.15050  0.35685  0.74998  1.0000
  H   H537      1.0  0.04717  0.47864  0.63025  1.0000
  H   H538      1.0  0.08188  0.37985  0.74537  1.0000
  H   H539      1.0  0.09232  0.30885  0.75169  1.0000
  H   H540      1.0  0.43633  0.24761  0.75132  1.0000
  H   H541      1.0  0.48964  0.15798  0.64198  1.0000
  H   H542      1.0  0.11258  0.26655  0.75167  1.0000
  C   C310      1.0  0.35218  0.12605  0.75106  1.0000
  H   H543      1.0  0.48125  0.01740  0.54481  1.0000
  C   C311      1.0  0.22560  0.50037  0.53043  1.0000
  H   H544      1.0  0.50323  0.12811  0.52076  1.0000
  H   H545      1.0  0.50044  0.21435  0.61370  1.0000
  H   H546      1.0  0.01855  0.43471  0.52865  1.0000
  C   C312      1.0  0.49690  0.19421  0.61151  1.0000
  H   H547      1.0  0.28831  0.20275  0.75367  1.0000
  C   C313      1.0  0.50451  0.06299  0.64101  1.0000
  C   C314      1.0  0.29994  0.18500  0.75344  1.0000
  Fe  Fe36      1.0  0.38997  0.15018  0.82412  1.0000
  S   S71       1.0  0.39471  0.18657  0.83611  1.0000
  S   S72       1.0  0.37796  0.11267  0.83708  1.0000
  Fe  Fe37      1.0  0.39705  0.17749  0.79169  1.0000
  S   S73       1.0  0.40271  0.21552  0.80160  1.0000
  S   S74       1.0  0.40024  0.17935  0.76524  1.0000
  Fe  Fe38      1.0  0.42762  0.19346  0.81868  1.0000
  S   S75       1.0  0.46550  0.20881  0.82620  1.0000
  Fe  Fe39      1.0  0.36946  0.20552  0.81787  1.0000
  S   S76       1.0  0.33264  0.22855  0.82288  1.0000
  S   S77       1.0  0.42415  0.15602  0.80770  1.0000
  S   S78       1.0  0.36259  0.16846  0.80694  1.0000
  N   N18       1.0  0.15342  0.46266  0.84876  1.0000
  S   S79       1.0  0.43362  0.04688  0.89115  1.0000
  H   H548      1.0  0.34372  0.25617  0.76049  1.0000
  Fe  Fe40      1.0  0.25205  0.35986  0.81427  1.0000
  S   S80       1.0  0.21808  0.33604  0.82125  1.0000
  S   S81       1.0  0.29284  0.34410  0.81227  1.0000
  Fe  Fe41      1.0  0.21870  0.40841  0.80736  1.0000
  S   S82       1.0  0.18245  0.38724  0.81331  1.0000
  S   S83       1.0  0.21394  0.44953  0.79753  1.0000
  Fe  Fe42      1.0  0.20330  0.37005  0.83373  1.0000
  S   S84       1.0  0.18759  0.37016  0.85865  1.0000
  Fe  Fe43      1.0  0.20045  0.35549  0.80012  1.0000
  S   S85       1.0  0.17979  0.33104  0.78402  1.0000
  S   S86       1.0  0.23892  0.39280  0.82852  1.0000
  S   S87       1.0  0.23501  0.37771  0.79249  1.0000
  Fe  Fe44      1.0  0.04863  0.36669  0.89674  1.0000
  H   H549      1.0  0.13271  0.42513  0.80986  1.0000
  S   S88       1.0  0.07285  0.34530  0.87922  1.0000
  Fe  Fe45      1.0  0.41845  0.01486  0.90807  1.0000
  C   C315      1.0  0.38933  0.02010  0.99592  1.0000
  Fe  Fe46      1.0  0.02985  0.41930  0.90447  1.0000
  S   S89       1.0  0.03742  0.46014  0.89696  1.0000
  H   H550      1.0  0.08251  0.34993  0.75590  1.0000
  S   S90       1.0  0.06238  0.39483  0.91288  1.0000
  C   C316      1.0  0.03763  0.37361  0.97512  1.0000
  H   H551      1.0  0.36624  0.02007  0.86030  1.0000
  C   C317      1.0  0.02311  0.44550  0.96245  1.0000
  N   N19       1.0  0.47924  0.21776  0.76212  1.0000
  H   H552      1.0  0.12414  0.30962  0.75858  1.0000
  H   H553      1.0  0.11004  0.39459  0.95816  1.0000
  H   H554      1.0  0.43164  0.02124  0.84051  1.0000
  C   C318      1.0  0.36469  0.04354  0.75521  1.0000
  C   C319      1.0  0.46042  0.01967  0.96859  1.0000
  C   C320      1.0  0.30436  0.25311  0.76947  1.0000
  H   H555      1.0  0.46620  0.21400  0.78636  1.0000
  C   C321      1.0  0.15502  0.36519  0.86355  1.0000
  C   C322      1.0  0.13938  0.35265  0.85380  1.0000
  C   C323      1.0  0.11414  0.34698  0.85869  1.0000
  C   C324      1.0  0.10415  0.35429  0.87317  1.0000
  C   C325      1.0  0.11967  0.36737  0.88275  1.0000
  C   C326      1.0  0.14505  0.37264  0.87799  1.0000
  H   H556      1.0  0.14689  0.34667  0.84270  1.0000
  H   H557      1.0  0.10230  0.33671  0.85126  1.0000
  H   H558      1.0  0.11227  0.37289  0.89398  1.0000
  H   H559      1.0  0.15707  0.38227  0.88562  1.0000
  C   C327      1.0  0.21679  0.47802  0.80736  1.0000
  C   C328      1.0  0.22890  0.47840  0.82154  1.0000
  H   H560      1.0  0.12629  0.48265  0.99098  1.0000
  H   H561      1.0  0.23669  0.46089  0.82680  1.0000
  H   H562      1.0  0.33888  0.11232  0.75635  1.0000
  C   C329      1.0  0.32215  0.26081  0.81953  1.0000
  C   C330      1.0  0.29691  0.26740  0.82391  1.0000
  C   C331      1.0  0.28763  0.29269  0.82169  1.0000
  C   C332      1.0  0.30350  0.31182  0.81506  1.0000
  C   C333      1.0  0.32871  0.30527  0.81063  1.0000
  C   C334      1.0  0.33798  0.27992  0.81278  1.0000
  H   H563      1.0  0.28449  0.25278  0.82912  1.0000
  H   H564      1.0  0.26822  0.29739  0.82508  1.0000
  H   H565      1.0  0.34123  0.31994  0.80558  1.0000
  H   H566      1.0  0.35744  0.27523  0.80941  1.0000
  C   C335      1.0  0.39344  0.09606  0.85279  1.0000
  C   C336      1.0  0.41964  0.09784  0.85469  1.0000
  C   C337      1.0  0.43155  0.08281  0.86657  1.0000
  C   C338      1.0  0.41741  0.06600  0.87677  1.0000
  C   C339      1.0  0.39114  0.06461  0.87508  1.0000
  C   C340      1.0  0.37932  0.07927  0.86301  1.0000
  H   H567      1.0  0.43079  0.11024  0.84672  1.0000
  H   H568      1.0  0.45186  0.08403  0.86777  1.0000
  H   H569      1.0  0.37995  0.05224  0.88306  1.0000
  H   H570      1.0  0.35905  0.07772  0.86164  1.0000
  C   C341      1.0  0.15597  0.45160  0.83291  1.0000
  C   C342      1.0  0.18226  0.31160  0.75520  1.0000
  H   H571      1.0  0.36284  0.13964  0.77313  1.0000
  H   H572      1.0  0.07328  0.47530  0.92891  1.0000
  H   H573      1.0  0.38399  0.00715  0.87678  1.0000
  H   H574      1.0  0.46851  0.26827  0.77067  1.0000
  H   H575      1.0  0.21856  0.28609  0.77794  1.0000
  C   C343      1.0  0.46332  0.22679  0.77575  1.0000
  C   C344      1.0  0.46889  0.25395  0.78065  1.0000
  C   C345      1.0  0.30006  0.28220  0.77077  1.0000
  H   H576      1.0  0.09574  0.47094  0.99807  1.0000
  H   H577      1.0  0.30170  0.48073  0.79196  1.0000
  H   H578      1.0  0.44959  0.19255  0.75581  1.0000
  H   H579      1.0  0.07291  0.42251  0.96156  1.0000
  H   H580      1.0  0.09758  0.38988  0.93927  1.0000
  H   H581      1.0  0.09822  0.50226  0.98808  1.0000
  C   C346      1.0  0.29443  0.49494  0.80015  1.0000
  C   C347      1.0  0.10234  0.47058  0.97286  1.0000
  H   H582      1.0  0.46575  0.17613  0.85591  1.0000
  S   S91       1.0  0.38543  0.01170  0.96464  1.0000
  H   H583      1.0  0.44267  0.22534  0.77358  1.0000
  C   C348      1.0  0.02075  0.48181  0.90832  1.0000
  H   H584      1.0  0.47883  0.13902  0.75601  1.0000
  H   H585      1.0  0.10072  0.47764  0.93990  1.0000
  H   H586      1.0  0.05789  0.28024  0.94764  1.0000
  C   C349      1.0  0.07383  0.46892  0.96931  1.0000
  H   H587      1.0  0.45961  0.17398  0.78146  1.0000
  H   H588      1.0  0.23085  0.44678  0.85458  1.0000
  H   H589      1.0  0.25640  0.25775  0.78207  1.0000
  C   C350      1.0  0.40459  0.04343  0.82727  1.0000
  C   C351      1.0  0.04431  0.29653  0.94606  1.0000
  H   H590      1.0  0.31163  0.33207  0.77237  1.0000
  H   H591      1.0  0.01231  0.27510  0.95528  1.0000
  C   C352      1.0  0.41064  0.02321  0.84020  1.0000
  H   H592      1.0  0.42997  0.26366  0.78804  1.0000
  H   H593      1.0  0.48544  0.17222  0.80434  1.0000
  H   H594      1.0  0.40404  0.03070  0.85138  1.0000
  C   C353      1.0  0.19018  0.33108  0.76427  1.0000
  C   C354      1.0  0.23152  0.50161  0.82869  1.0000
  C   C355      1.0  0.20710  0.50103  0.80053  1.0000
  H   H595      1.0  0.19990  0.28176  0.80454  1.0000
  H   H596      1.0  0.11702  0.46158  0.82508  1.0000
  C   C356      1.0  0.21927  0.27389  0.80206  1.0000
  H   H597      1.0  0.31196  0.29165  0.76127  1.0000
  H   H598      1.0  0.17130  0.29600  0.76062  1.0000
  H   H599      1.0  0.12575  0.49228  0.84217  1.0000
  C   C357      1.0  0.10574  0.48233  0.98847  1.0000
  C   C358      1.0  0.47270  0.17022  0.77143  1.0000
  S   S92       1.0  0.01812  0.39269  0.88686  1.0000
  H   H600      1.0  0.02574  0.44878  0.97489  1.0000
  H   H601      1.0  0.17143  0.50220  0.82900  1.0000
  H   H602      1.0  0.48776  0.25402  0.78601  1.0000
  H   H603      1.0  0.03430  0.46098  0.93935  1.0000
  H   H604      1.0  0.47725  0.04162  0.00111  1.0000
  H   H605      1.0  0.34060  0.02023  0.88462  1.0000
  N   N20       1.0  0.06780  0.46200  0.95310  1.0000
  H   H606      1.0  0.09197  0.44289  0.87923  1.0000
  C   C359      1.0  0.14414  0.49008  0.84801  1.0000
  C   C360      1.0  0.46562  0.14440  0.76568  1.0000
  H   H607      1.0  0.30473  0.37601  0.76081  1.0000
  H   H608      1.0  0.29745  0.24712  0.75826  1.0000
  H   H609      1.0  0.15776  0.44499  0.80100  1.0000
  H   H610      1.0  0.07113  0.43231  0.86491  1.0000
  C   C361      1.0  0.20470  0.35093  0.75720  1.0000
  H   H611      1.0  0.44903  0.06280  0.94911  1.0000
  C   C362      1.0  0.49675  0.20082  0.81933  1.0000
  H   H612      1.0  0.45836  0.14606  0.86641  1.0000
  H   H613      1.0  0.13026  0.39865  0.94079  1.0000
  C   C363      1.0  0.13578  0.44687  0.85961  1.0000
  H   H614      1.0  0.31138  0.15482  0.77046  1.0000
  Fe  Fe47      1.0  0.03392  0.37809  0.93087  1.0000
  H   H615      1.0  0.41476  0.06127  0.82917  1.0000
  H   H616      1.0  0.50075  0.07280  0.89307  1.0000
  H   H617      1.0  0.06312  0.42627  0.94208  1.0000
  H   H618      1.0  0.44146  0.01057  0.96979  1.0000
  H   H619      1.0  0.17523  0.45525  0.82745  1.0000
  H   H620      1.0  0.11756  0.44043  0.94976  1.0000
  H   H621      1.0  0.28674  0.37005  0.77879  1.0000
  H   H622      1.0  0.19768  0.50094  0.78956  1.0000
  H   H623      1.0  0.45416  0.28190  0.79637  1.0000
  H   H624      1.0  0.06417  0.48724  0.97204  1.0000
  H   H625      1.0  0.18096  0.42436  0.86868  1.0000
  H   H626      1.0  0.30812  0.18595  0.77799  1.0000
  N   N21       1.0  0.27282  0.29184  0.77046  1.0000
  H   H627      1.0  0.41076  0.03687  0.81567  1.0000
  H   H628      1.0  0.36658  0.06320  0.75908  1.0000
  H   H629      1.0  0.27135  0.32375  0.78537  1.0000
  C   C364      1.0  0.07570  0.43463  0.95054  1.0000
  H   H630      1.0  0.14008  0.49642  0.86000  1.0000
  H   H631      1.0  0.49062  0.15069  0.83585  1.0000
  S   S93       1.0  0.43619  0.00939  0.93146  1.0000
  S   S94       1.0  0.04956  0.37139  0.95550  1.0000
  H   H632      1.0  0.42068  0.05317  0.96032  1.0000
  C   C365      1.0  0.09129  0.43268  0.86832  1.0000
  C   C366      1.0  0.03928  0.46416  0.95155  1.0000
  C   C367      1.0  0.47006  0.19178  0.75841  1.0000
  N   N22       1.0  0.22928  0.30561  0.87194  1.0000
  C   C368      1.0  0.20677  0.29857  0.86274  1.0000
  C   C369      1.0  0.22109  0.32364  0.88437  1.0000
  C   C370      1.0  0.24780  0.31956  0.86068  1.0000
  C   C371      1.0  0.24282  0.28239  0.87900  1.0000
  C   C372      1.0  0.22653  0.26410  0.88989  1.0000
  C   C373      1.0  0.21212  0.27933  0.84999  1.0000
  C   C374      1.0  0.27112  0.33142  0.86798  1.0000
  C   C375      1.0  0.19400  0.32043  0.89203  1.0000
  C   C376      1.0  0.18978  0.33788  0.90550  1.0000
  C   C377      1.0  0.24131  0.23950  0.89416  1.0000
  C   C378      1.0  0.18778  0.27396  0.84165  1.0000
  C   C379      1.0  0.28826  0.34485  0.85541  1.0000
  H   H633      1.0  0.19807  0.31611  0.85708  1.0000
  H   H634      1.0  0.19137  0.29010  0.87044  1.0000
  H   H635      1.0  0.23503  0.32287  0.89383  1.0000
  H   H636      1.0  0.22127  0.34377  0.87945  1.0000
  H   H637      1.0  0.23774  0.33534  0.85401  1.0000
  H   H638      1.0  0.25578  0.30666  0.85191  1.0000
  H   H639      1.0  0.25215  0.27128  0.86968  1.0000
  H   H640      1.0  0.25870  0.28811  0.88614  1.0000
  H   H641      1.0  0.20883  0.25865  0.88443  1.0000
  H   H642      1.0  0.22162  0.27321  0.90093  1.0000
  H   H643      1.0  0.22619  0.28673  0.84101  1.0000
  H   H644      1.0  0.21935  0.26086  0.85517  1.0000
  H   H645      1.0  0.28296  0.31658  0.87408  1.0000
  H   H646      1.0  0.26511  0.34576  0.87638  1.0000
  H   H647      1.0  0.17940  0.32577  0.88337  1.0000
  H   H648      1.0  0.19041  0.30062  0.89655  1.0000
  H   H649      1.0  0.20306  0.33264  0.91496  1.0000
  H   H650      1.0  0.19265  0.35811  0.90136  1.0000
  H   H651      1.0  0.16995  0.33595  0.91030  1.0000
  H   H652      1.0  0.25912  0.24374  0.90000  1.0000
  H   H653      1.0  0.22949  0.22695  0.90228  1.0000
  H   H654      1.0  0.24616  0.22905  0.88356  1.0000
  H   H655      1.0  0.18037  0.29170  0.83558  1.0000
  H   H656      1.0  0.19184  0.25967  0.83286  1.0000
  H   H657      1.0  0.17291  0.26620  0.85007  1.0000
  H   H658      1.0  0.29628  0.33092  0.84726  1.0000
  H   H659      1.0  0.27751  0.35993  0.84869  1.0000
  H   H660      1.0  0.30433  0.35389  0.86088  1.0000
  H   H661      1.0  0.14219  0.42655  0.86043  1.0000
  C   C380      1.0  0.48820  0.14352  0.84822  1.0000
  H   H662      1.0  0.09912  0.46538  0.85309  1.0000
  C   C381      1.0  0.19147  0.43515  0.85905  1.0000
  C   C382      1.0  0.25847  0.27832  0.78403  1.0000
  C   C383      1.0  0.43950  0.06223  0.96088  1.0000
  H   H663      1.0  0.13639  0.45359  0.87165  1.0000
  H   H664      1.0  0.15474  0.43041  0.83421  1.0000
  H   H665      1.0  0.10426  0.43570  0.93129  1.0000
  H   H666      1.0  0.09796  0.41270  0.87057  1.0000
  H   H667      1.0  0.44559  0.04802  0.98433  1.0000
  C   C384      1.0  0.46361  0.15532  0.85481  1.0000
  H   H668      1.0  0.17841  0.47157  0.86714  1.0000
  C   C385      1.0  0.17928  0.46196  0.85591  1.0000
  H   H669      1.0  0.46562  0.01961  0.95601  1.0000
  H   H670      1.0  0.34938  0.03387  0.76248  1.0000
  H   H671      1.0  0.21766  0.25334  0.79996  1.0000
  H   H672      1.0  0.23997  0.29298  0.75603  1.0000
  C   C386      1.0  0.28871  0.36499  0.76645  1.0000
  H   H673      1.0  0.26938  0.27909  0.79480  1.0000
  H   H674      1.0  0.14147  0.38185  0.78078  1.0000
  C   C387      1.0  0.10751  0.44608  0.85523  1.0000
  H   H675      1.0  0.38302  0.03314  0.75699  1.0000
  C   C388      1.0  0.21898  0.43693  0.86397  1.0000
  C   C389      1.0  0.13690  0.46145  0.82047  1.0000
  H   H676      1.0  0.19322  0.47280  0.84817  1.0000
  C   C390      1.0  0.27175  0.32024  0.77272  1.0000
  H   H677      1.0  0.49337  0.10700  0.87319  1.0000
  H   H678      1.0  0.01365  0.33323  0.95911  1.0000
  H   H679      1.0  0.33540  0.22519  0.76914  1.0000
  H   H680      1.0  0.47392  0.05810  0.97316  1.0000
  H   H681      1.0  0.03780  0.29726  0.93389  1.0000
  C   C391      1.0  0.14697  0.39434  0.77034  1.0000
  H   H682      1.0  0.19157  0.42417  0.84844  1.0000
  H   H683      1.0  0.49240  0.16846  0.77551  1.0000
  H   H684      1.0  0.44788  0.15269  0.84683  1.0000
  C   C392      1.0  0.44930  0.26265  0.79284  1.0000
  H   H685      1.0  0.44923  0.24939  0.80340  1.0000
  C   C393      1.0  0.10315  0.42973  0.94394  1.0000
  C   C394      1.0  0.05402  0.36779  0.98747  1.0000
  H   H686      1.0  0.30865  0.28738  0.78180  1.0000
  H   H687      1.0  0.02966  0.29110  0.96948  1.0000
  H   H688      1.0  0.05450  0.31440  0.94793  1.0000
  H   H689      1.0  0.25367  0.32877  0.76826  1.0000
  H   H690      1.0  0.23114  0.30890  0.79028  1.0000
  H   H691      1.0  0.11091  0.45112  0.97381  1.0000
  H   H692      1.0  0.21985  0.44739  0.87477  1.0000
  C   C395      1.0  0.45590  0.04762  0.97283  1.0000
  H   H693      1.0  0.38428  0.03964  0.99247  1.0000
  H   H694      1.0  0.38386  0.04794  0.82741  1.0000
  H   H695      1.0  0.24119  0.50175  0.83957  1.0000
  H   H696      1.0  0.14574  0.41450  0.77354  1.0000
  C   C396      1.0  0.29428  0.33647  0.76564  1.0000
  H   H697      1.0  0.21077  0.36617  0.76401  1.0000
  H   H698      1.0  0.28005  0.16840  0.77431  1.0000
  C   C397      1.0  0.29979  0.17272  0.77003  1.0000
  H   H699      1.0  0.07365  0.36257  0.98487  1.0000
  C   C398      1.0  0.01237  0.38041  0.97873  1.0000
  H   H700      1.0  0.02828  0.42542  0.96042  1.0000
  C   C399      1.0  0.07976  0.47999  0.94061  1.0000
  C   C400      1.0  0.12943  0.39040  0.75692  1.0000
  H   H701      1.0  0.10578  0.43502  0.84475  1.0000
  H   H702      1.0  0.23091  0.27595  0.81241  1.0000
  C   C401      1.0  0.36569  0.14153  0.76059  1.0000
  H   H703      1.0  0.27333  0.49388  0.80090  1.0000
  H   H704      1.0  0.43629  0.08212  0.96427  1.0000
  C   C402      1.0  0.50125  0.18259  0.80834  1.0000
  C   C403      1.0  0.23116  0.28846  0.78776  1.0000
  H   H705      1.0  0.34023  0.25091  0.78149  1.0000
  C   C404      1.0  0.11064  0.40148  0.94567  1.0000
  H   H706      1.0  0.11305  0.48238  0.96382  1.0000
  H   H707      1.0  0.22697  0.41740  0.86627  1.0000
  H   H708      1.0  0.03219  0.48369  0.95385  1.0000
  H   H709      1.0  0.06591  0.45459  0.97816  1.0000
  H   H710      1.0  0.12496  0.45292  0.79748  1.0000
  H   H711      1.0  0.29461  0.24195  0.77924  1.0000
  H   H712      1.0  0.48591  0.12256  0.84837  1.0000
  H   H713      1.0  0.16705  0.39000  0.76683  1.0000
  H   H714      1.0  0.46685  0.12954  0.77540  1.0000
  C   C405      1.0  0.04523  0.36824  0.00320  1.0000
  H   H715      1.0  0.27102  0.37055  0.76034  1.0000
  H   H716      1.0  0.30203  0.48988  0.81183  1.0000
  H   H717      1.0  0.12478  0.35052  0.76326  1.0000
  C   C406      1.0  0.13821  0.44505  0.80637  1.0000
  C   C407      1.0  0.33265  0.24603  0.77016  1.0000
  H   H718      1.0  0.25859  0.26482  0.75499  1.0000
  H   H719      1.0  0.10989  0.39607  0.76077  1.0000
  H   H720      1.0  0.44581  0.14495  0.76160  1.0000
  C   C408      1.0  0.02174  0.29307  0.95769  1.0000
  S   S95       1.0  0.02232  0.34760  0.91512  1.0000
  C   C409      1.0  0.26000  0.28580  0.75575  1.0000
  H   H721      1.0  0.14152  0.48125  0.81618  1.0000
  Fe  Fe48      1.0  0.38814  0.97886  0.09458  1.0000
  S   S96       1.0  0.36281  0.95535  0.11170  1.0000
  C   C410      1.0  0.37585  0.82953  0.23591  1.0000
  S   S97       1.0  0.41763  0.96284  0.07841  1.0000
  Fe  Fe49      1.0  0.37648  0.77254  0.17992  1.0000
  S   S98       1.0  0.35058  0.80601  0.17398  1.0000
  S   S99       1.0  0.36682  0.73007  0.18335  1.0000
  Fe  Fe50      1.0  0.42093  0.80774  0.18737  1.0000
  S   S100      1.0  0.39754  0.84339  0.18262  1.0000
  S   S101      1.0  0.46050  0.81208  0.19685  1.0000
  Fe  Fe51      1.0  0.36561  0.82235  0.19546  1.0000
  S   S102      1.0  0.33981  0.83956  0.21385  1.0000
  Fe  Fe52      1.0  0.38506  0.82427  0.16156  1.0000
  S   S103      1.0  0.39052  0.84197  0.13675  1.0000
  S   S104      1.0  0.38970  0.78821  0.20194  1.0000
  S   S105      1.0  0.41006  0.78933  0.16585  1.0000
  Fe  Fe53      1.0  0.01765  0.60971  0.07194  1.0000
  H   H722      1.0  0.05288  0.54322  0.03004  1.0000
  Fe  Fe54      1.0  0.04797  0.62812  0.09879  1.0000
  S   S106      1.0  0.03668  0.59542  0.11540  1.0000
  S   S107      1.0  0.07561  0.65638  0.10727  1.0000
  Fe  Fe55      1.0  0.04431  0.57221  0.09484  1.0000
  S   S108      1.0  0.06662  0.53549  0.09705  1.0000
  S   S109      1.0  0.05840  0.60424  0.07860  1.0000
  C   C411      1.0  0.04926  0.71858  0.05568  1.0000
  Fe  Fe56      1.0  0.24327  0.63908  0.17021  1.0000
  S   S110      1.0  0.20157  0.64973  0.16926  1.0000
  S   S111      1.0  0.26692  0.67443  0.16283  1.0000
  Fe  Fe57      1.0  0.23071  0.58381  0.18163  1.0000
  S   S112      1.0  0.18875  0.59182  0.18198  1.0000
  S   S113      1.0  0.24087  0.54366  0.19141  1.0000
  Fe  Fe58      1.0  0.19595  0.61245  0.15869  1.0000
  S   S114      1.0  0.16971  0.60035  0.14009  1.0000
  Fe  Fe59      1.0  0.19778  0.62826  0.19252  1.0000
  S   S115      1.0  0.17180  0.64598  0.21060  1.0000
  S   S116      1.0  0.23792  0.60278  0.15766  1.0000
  S   S117      1.0  0.23941  0.61932  0.19417  1.0000
  H   H723      1.0  0.02401  0.66737  0.02381  1.0000
  C   C412      1.0  0.48592  0.71901  0.20863  1.0000
  H   H724      1.0  0.45224  0.95175  0.15135  1.0000
  H   H725      1.0  0.45519  0.85186  0.17156  1.0000
  H   H726      1.0  0.30826  0.89397  0.09807  1.0000
  C   C413      1.0  0.43652  0.94206  0.14597  1.0000
  C   C414      1.0  0.16408  0.65514  0.24144  1.0000
  C   C415      1.0  0.17941  0.64273  0.23044  1.0000
  C   C416      1.0  0.20082  0.62877  0.23537  1.0000
  C   C417      1.0  0.44008  0.73082  0.15923  1.0000
  H   H727      1.0  0.14743  0.66592  0.23773  1.0000
  H   H728      1.0  0.21257  0.61884  0.22703  1.0000
  H   H729      1.0  0.46045  0.68760  0.23055  1.0000
  C   C418      1.0  0.10231  0.64139  0.11615  1.0000
  C   C419      1.0  0.10641  0.61513  0.11544  1.0000
  C   C420      1.0  0.12742  0.60321  0.12259  1.0000
  C   C421      1.0  0.14431  0.61713  0.13087  1.0000
  C   C422      1.0  0.14063  0.64353  0.13133  1.0000
  C   C423      1.0  0.11971  0.65565  0.12395  1.0000
  H   H730      1.0  0.09361  0.60397  0.10916  1.0000
  H   H731      1.0  0.13073  0.58308  0.12151  1.0000
  H   H732      1.0  0.15430  0.65463  0.13695  1.0000
  H   H733      1.0  0.11704  0.67607  0.12424  1.0000
  H   H734      1.0  0.25084  0.73915  0.22204  1.0000
  H   H735      1.0  0.21032  0.72371  0.22365  1.0000
  H   H736      1.0  0.28940  0.71131  0.20082  1.0000
  H   H737      1.0  0.46989  0.74333  0.18168  1.0000
  H   H738      1.0  0.17263  0.53678  0.11437  1.0000
  C   C424      1.0  0.49290  0.79527  0.17310  1.0000
  C   C425      1.0  0.33852  0.71511  0.17797  1.0000
  C   C426      1.0  0.33427  0.68941  0.18292  1.0000
  C   C427      1.0  0.31239  0.67668  0.17862  1.0000
  C   C428      1.0  0.29450  0.68948  0.16921  1.0000
  C   C429      1.0  0.29874  0.71518  0.16433  1.0000
  C   C430      1.0  0.32046  0.72798  0.16876  1.0000
  H   H739      1.0  0.34815  0.67919  0.18998  1.0000
  H   H740      1.0  0.30968  0.65681  0.18225  1.0000
  H   H741      1.0  0.28522  0.72524  0.15692  1.0000
  H   H742      1.0  0.32345  0.74768  0.16478  1.0000
  C   C431      1.0  0.35095  0.83762  0.23295  1.0000
  C   C432      1.0  0.23547  0.69780  0.20096  1.0000
  S   S118      1.0  0.40568  0.97772  0.03624  1.0000
  C   C433      1.0  0.38752  0.89741  0.21549  1.0000
  H   H743      1.0  0.38861  0.82447  0.22641  1.0000
  H   H744      1.0  0.47733  0.82752  0.12778  1.0000
  H   H745      1.0  0.31550  0.85104  0.24313  1.0000
  C   C434      1.0  0.38257  0.87363  0.13020  1.0000
  C   C435      1.0  0.39054  0.88241  0.11506  1.0000
  C   C436      1.0  0.38509  0.90756  0.10941  1.0000
  C   C437      1.0  0.37102  0.92398  0.11871  1.0000
  C   C438      1.0  0.36243  0.91501  0.13370  1.0000
  C   C439      1.0  0.36859  0.89010  0.13956  1.0000
  H   H746      1.0  0.40088  0.86959  0.10765  1.0000
  H   H747      1.0  0.39133  0.91411  0.09776  1.0000
  H   H748      1.0  0.35116  0.92748  0.14089  1.0000
  H   H749      1.0  0.36210  0.88349  0.15117  1.0000
  H   H750      1.0  0.41796  0.97688  0.13644  1.0000
  C   C440      1.0  0.02031  0.51300  0.09762  1.0000
  H   H751      1.0  0.44940  0.95079  0.12199  1.0000
  H   H752      1.0  0.19716  0.73703  0.24997  1.0000
  H   H753      1.0  0.28586  0.91826  0.10390  1.0000
  C   C441      1.0  0.18925  0.52542  0.13692  1.0000
  H   H754      1.0  0.11517  0.65870  0.05330  1.0000
  N   N23       1.0  0.01591  0.53105  0.03940  1.0000
  H   H755      1.0  0.46597  0.87252  0.12948  1.0000
  C   C442      1.0  0.13092  0.53249  0.14190  1.0000
  C   C443      1.0  0.19130  0.53045  0.11897  1.0000
  H   H756      1.0  0.30204  0.93313  0.25174  1.0000
  H   H757      1.0  0.31952  0.99649  0.24382  1.0000
  H   H758      1.0  0.47061  0.99939  0.02740  1.0000
  C   C444      1.0  0.10685  0.53693  0.13260  1.0000
  C   C445      1.0  0.21032  0.55153  0.11439  1.0000
  H   H759      1.0  0.45644  0.89552  0.16125  1.0000
  H   H760      1.0  0.12493  0.53050  0.15442  1.0000
  H   H761      1.0  0.18353  0.54390  0.14166  1.0000
  H   H762      1.0  0.42150  0.73132  0.15346  1.0000
  H   H763      1.0  0.09190  0.55124  0.06389  1.0000
  C   C446      1.0  0.31250  0.89537  0.02399  1.0000
  H   H764      1.0  0.03081  0.55952  0.00932  1.0000
  H   H765      1.0  0.10597  0.64383  0.07208  1.0000
  H   H766      1.0  0.27530  0.66292  0.20273  1.0000
  H   H767      1.0  0.14276  0.54962  0.13978  1.0000
  H   H768      1.0  0.08588  0.68615  0.06797  1.0000
  H   H769      1.0  0.46120  0.83966  0.15267  1.0000
  C   C447      1.0  0.39990  0.98795  0.01646  1.0000
  H   H770      1.0  0.03851  0.51916  0.12843  1.0000
  H   H771      1.0  0.11179  0.54021  0.11997  1.0000
  H   H772      1.0  0.05319  0.71755  0.02523  1.0000
  H   H773      1.0  0.43585  0.77475  0.24413  1.0000
  H   H774      1.0  0.44676  0.76091  0.20143  1.0000
  C   C448      1.0  0.03794  0.76232  0.06502  1.0000
  H   H775      1.0  0.24902  0.53241  0.15863  1.0000
  H   H776      1.0  0.30887  0.90144  0.24568  1.0000
  H   H777      1.0  0.20422  0.56965  0.11952  1.0000
  H   H778      1.0  0.22957  0.54602  0.11846  1.0000
  H   H779      1.0  0.21146  0.55488  0.10151  1.0000
  H   H780      1.0  0.47999  0.92943  0.10639  1.0000
  C   C449      1.0  0.43093  0.77003  0.23221  1.0000
  H   H781      1.0  0.35083  0.96844  0.03306  1.0000
  H   H782      1.0  0.04570  0.54961  0.06512  1.0000
  H   H783      1.0  0.42199  0.73841  0.18141  1.0000
  C   C450      1.0  0.03973  0.54657  0.04017  1.0000
  H   H784      1.0  0.36607  0.77620  0.24270  1.0000
  H   H785      1.0  0.23911  0.65939  0.22310  1.0000
  C   C451      1.0  0.30080  0.74582  0.21035  1.0000
  H   H786      1.0  0.31308  0.75161  0.19998  1.0000
  H   H787      1.0  0.03032  0.52539  0.00844  1.0000
  H   H788      1.0  0.39673  0.95110  0.14163  1.0000
  C   C452      1.0  0.05560  0.54146  0.05490  1.0000
  C   C453      1.0  0.19832  0.71627  0.25323  1.0000
  H   H789      1.0  0.27274  0.71661  0.23006  1.0000
  C   C454      1.0  0.34963  0.95211  0.24707  1.0000
  H   H790      1.0  0.40186  0.91622  0.23465  1.0000
  H   H791      1.0  0.26975  0.73833  0.19597  1.0000
  H   H792      1.0  0.07102  0.65609  0.22471  1.0000
  C   C455      1.0  0.08156  0.55411  0.05287  1.0000
  H   H793      1.0  0.02233  0.77665  0.06627  1.0000
  H   H794      1.0  0.47125  0.91527  0.07981  1.0000
  H   H795      1.0  0.06252  0.66137  0.07025  1.0000
  C   C456      1.0  0.48941  0.92267  0.13714  1.0000
  H   H796      1.0  0.30954  0.96210  0.05927  1.0000
  C   C457      1.0  0.04041  0.61650  0.02445  1.0000
  N   N24       1.0  0.04314  0.69577  0.04671  1.0000
  C   C458      1.0  0.01427  0.61457  0.02794  1.0000
  C   C459      1.0  0.38446  0.82822  0.25120  1.0000
  C   C460      1.0  0.22139  0.72249  0.17619  1.0000
  H   H797      1.0  0.20876  0.73812  0.17161  1.0000
  H   H798      1.0  0.24121  0.72658  0.17198  1.0000
  H   H799      1.0  0.21551  0.70436  0.17152  1.0000
  N   N25       1.0  0.33868  0.93237  0.05825  1.0000
  C   C461      1.0  0.36673  0.93061  0.05404  1.0000
  C   C462      1.0  0.32993  0.95981  0.05568  1.0000
  C   C463      1.0  0.33535  0.92511  0.07550  1.0000
  C   C464      1.0  0.32290  0.91485  0.04931  1.0000
  C   C465      1.0  0.33230  0.90983  0.03240  1.0000
  C   C466      1.0  0.38010  0.90490  0.05879  1.0000
  C   C467      1.0  0.30818  0.92881  0.08280  1.0000
  C   C468      1.0  0.02152  0.68085  0.05473  1.0000
  N   N26       1.0  0.24281  0.69980  0.21764  1.0000
  H   H800      1.0  0.30430  0.94937  0.08438  1.0000
  C   C469      1.0  0.40625  0.90271  0.05056  1.0000
  C   C470      1.0  0.06671  0.67886  0.04628  1.0000
  H   H801      1.0  0.37702  0.94574  0.05965  1.0000
  H   H802      1.0  0.37054  0.93465  0.04138  1.0000
  H   H803      1.0  0.17162  0.53838  0.19318  1.0000
  H   H804      1.0  0.43150  0.85584  0.15696  1.0000
  H   H805      1.0  0.34854  0.93620  0.08226  1.0000
  H   H806      1.0  0.34068  0.90471  0.07797  1.0000
  H   H807      1.0  0.32146  0.89568  0.05557  1.0000
  H   H808      1.0  0.30294  0.92223  0.04882  1.0000
  H   H809      1.0  0.34999  0.89802  0.03251  1.0000
  H   H810      1.0  0.33650  0.92762  0.02531  1.0000
  H   H811      1.0  0.38309  0.90355  0.07152  1.0000
  H   H812      1.0  0.36854  0.88842  0.05602  1.0000
  H   H813      1.0  0.31711  0.96377  0.03171  1.0000
  H   H814      1.0  0.45251  0.71614  0.15392  1.0000
  H   H815      1.0  0.06671  0.72795  0.05044  1.0000
  H   H816      1.0  0.29348  0.92159  0.07535  1.0000
  C   C471      1.0  0.24457  0.51481  0.16528  1.0000
  C   C472      1.0  0.28663  0.63879  0.22231  1.0000
  C   C473      1.0  0.36082  0.90908  0.23925  1.0000
  C   C474      1.0  0.17374  0.52617  0.16949  1.0000
  C   C475      1.0  0.43062  0.66171  0.22687  1.0000
  H   H817      1.0  0.49397  0.75980  0.20331  1.0000
  H   H818      1.0  0.40434  0.90294  0.03773  1.0000
  H   H819      1.0  0.41843  0.91880  0.05331  1.0000
  H   H820      1.0  0.41572  0.88452  0.05453  1.0000
  H   H821      1.0  0.29151  0.64005  0.23469  1.0000
  H   H822      1.0  0.31991  0.89161  0.01207  1.0000
  C   C476      1.0  0.40184  0.96984  0.00504  1.0000
  C   C477      1.0  0.07757  0.66997  0.06230  1.0000
  H   H823      1.0  0.02108  0.74626  0.04570  1.0000
  H   H824      1.0  0.42868  0.70157  0.23032  1.0000
  C   C478      1.0  0.41399  0.96080  0.14507  1.0000
  H   H825      1.0  0.01207  0.73154  0.06468  1.0000
  H   H826      1.0  0.22402  0.68034  0.19987  1.0000
  C   C479      1.0  0.27823  0.66490  0.21528  1.0000
  H   H827      1.0  0.31919  0.92194  0.10693  1.0000
  H   H828      1.0  0.09635  0.55405  0.13654  1.0000
  H   H829      1.0  0.19795  0.51320  0.11312  1.0000
  H   H830      1.0  0.48695  0.96375  0.12997  1.0000
  H   H831      1.0  0.23858  0.71438  0.24828  1.0000
  C   C480      1.0  0.38395  0.91632  0.22826  1.0000
  N   N27       1.0  0.10367  0.64978  0.17945  1.0000
  C   C481      1.0  0.08723  0.65350  0.16546  1.0000
  C   C482      1.0  0.11987  0.62606  0.17764  1.0000
  C   C483      1.0  0.08669  0.64737  0.19399  1.0000
  C   C484      1.0  0.12090  0.67215  0.18075  1.0000
  C   C485      1.0  0.13723  0.68016  0.16597  1.0000
  C   C486      1.0  0.07125  0.67859  0.16425  1.0000
  C   C487      1.0  0.10031  0.63998  0.20939  1.0000
  C   C488      1.0  0.10512  0.60066  0.17788  1.0000
  C   C489      1.0  0.12329  0.57783  0.17702  1.0000
  C   C490      1.0  0.15397  0.70278  0.16882  1.0000
  C   C491      1.0  0.05685  0.68074  0.14909  1.0000
  C   C492      1.0  0.08127  0.63767  0.22325  1.0000
  H   H832      1.0  0.07335  0.63780  0.16535  1.0000
  H   H833      1.0  0.09893  0.65211  0.15449  1.0000
  H   H834      1.0  0.13100  0.62741  0.16636  1.0000
  H   H835      1.0  0.13457  0.62425  0.18667  1.0000
  H   H836      1.0  0.07130  0.63348  0.19268  1.0000
  H   H837      1.0  0.07657  0.66579  0.19583  1.0000
  H   H838      1.0  0.10989  0.68918  0.18443  1.0000
  H   H839      1.0  0.13457  0.66788  0.19014  1.0000
  H   H840      1.0  0.12531  0.68578  0.15592  1.0000
  H   H841      1.0  0.14997  0.66427  0.16272  1.0000
  H   H842      1.0  0.05699  0.67912  0.17407  1.0000
  H   H843      1.0  0.08335  0.69564  0.16435  1.0000
  H   H844      1.0  0.11418  0.65470  0.21192  1.0000
  H   H845      1.0  0.11058  0.62142  0.20886  1.0000
  H   H846      1.0  0.09312  0.59755  0.18867  1.0000
  H   H847      1.0  0.09284  0.60051  0.16767  1.0000
  H   H848      1.0  0.11229  0.56008  0.17653  1.0000
  H   H849      1.0  0.13586  0.57998  0.16637  1.0000
  H   H850      1.0  0.13506  0.57602  0.18749  1.0000
  H   H851      1.0  0.16617  0.70753  0.15825  1.0000
  H   H852      1.0  0.14206  0.71977  0.17141  1.0000
  H   H853      1.0  0.16653  0.69797  0.17872  1.0000
  H   H854      1.0  0.04506  0.69849  0.14857  1.0000
  H   H855      1.0  0.07041  0.68149  0.13885  1.0000
  H   H856      1.0  0.04413  0.66422  0.14835  1.0000
  H   H857      1.0  0.06731  0.62251  0.22165  1.0000
  H   H858      1.0  0.09160  0.63260  0.23408  1.0000
  H   H859      1.0  0.08235  0.68857  0.03922  1.0000
  N   N28       1.0  0.46629  0.91406  0.12908  1.0000
  H   H860      1.0  0.25244  0.69500  0.19319  1.0000
  C   C493      1.0  0.45748  0.88830  0.13609  1.0000
  C   C494      1.0  0.47406  0.91099  0.11220  1.0000
  C   C495      1.0  0.44480  0.93347  0.12963  1.0000
  C   C496      1.0  0.35124  0.76253  0.23999  1.0000
  H   H861      1.0  0.05358  0.61625  0.03382  1.0000
  C   C497      1.0  0.45325  0.90118  0.10185  1.0000
  C   C498      1.0  0.46377  0.88106  0.15334  1.0000
  C   C499      1.0  0.45221  0.85553  0.15891  1.0000
  H   H862      1.0  0.49515  0.70098  0.20494  1.0000
  C   C500      1.0  0.46388  0.89708  0.08540  1.0000
  H   H863      1.0  0.48505  0.92479  0.14972  1.0000
  C   C501      1.0  0.02813  0.73925  0.05719  1.0000
  H   H864      1.0  0.43656  0.88632  0.13497  1.0000
  H   H865      1.0  0.06963  0.62169  0.00620  1.0000
  C   C502      1.0  0.50136  0.94811  0.13059  1.0000
  H   H866      1.0  0.29239  0.76334  0.21518  1.0000
  C   C503      1.0  0.09902  0.65025  0.06041  1.0000
  H   H867      1.0  0.42743  0.92585  0.12472  1.0000
  H   H868      1.0  0.43021  0.92553  0.15365  1.0000
  Fe  Fe60      1.0  0.40575  0.99387  0.06058  1.0000
  H   H869      1.0  0.41181  0.66139  0.22140  1.0000
  H   H870      1.0  0.43756  0.91545  0.10069  1.0000
  H   H871      1.0  0.44533  0.88286  0.10675  1.0000
  H   H872      1.0  0.39196  0.87802  0.22066  1.0000
  C   C504      1.0  0.30529  0.91484  0.09889  1.0000
  H   H873      1.0  0.27135  0.62459  0.22168  1.0000
  H   H874      1.0  0.50114  0.80256  0.12842  1.0000
  C   C505      1.0  0.33198  0.97175  0.03875  1.0000
  S   S119      1.0  0.48168  0.97964  0.09538  1.0000
  H   H875      1.0  0.29409  0.67805  0.21671  1.0000
  H   H876      1.0  0.47940  0.88247  0.08570  1.0000
  H   H877      1.0  0.47603  0.79009  0.16729  1.0000
  N   N29       1.0  0.45910  0.72120  0.20293  1.0000
  C   C506      1.0  0.03696  0.51283  0.14097  1.0000
  C   C507      1.0  0.44553  0.69645  0.20703  1.0000
  C   C508      1.0  0.46108  0.72468  0.18533  1.0000
  C   C509      1.0  0.44418  0.74345  0.20927  1.0000
  C   C510      1.0  0.45063  0.75126  0.22583  1.0000
  H   H878      1.0  0.09418  0.52030  0.13424  1.0000
  C   C511      1.0  0.44213  0.68827  0.22457  1.0000
  C   C512      1.0  0.16832  0.52089  0.18696  1.0000
  H   H879      1.0  0.02236  0.68178  0.06761  1.0000
  H   H880      1.0  0.30830  0.87679  0.03037  1.0000
  Fe  Fe61      1.0  0.44323  0.99193  0.08704  1.0000
  H   H881      1.0  0.42581  0.69747  0.20275  1.0000
  H   H882      1.0  0.45541  0.68060  0.20106  1.0000
  H   H883      1.0  0.47386  0.70973  0.18046  1.0000
  H   H884      1.0  0.42338  0.73978  0.20918  1.0000
  H   H885      1.0  0.42784  0.65647  0.23952  1.0000
  H   H886      1.0  0.45172  0.73473  0.23437  1.0000
  H   H887      1.0  0.37004  0.89653  0.20867  1.0000
  H   H888      1.0  0.36645  0.96110  0.24086  1.0000
  H   H889      1.0  0.42706  0.70521  0.17783  1.0000
  H   H890      1.0  0.44900  0.74978  0.15707  1.0000
  C   C513      1.0  0.32767  0.00063  0.03833  1.0000
  H   H891      1.0  0.25837  0.67488  0.23611  1.0000
  H   H892      1.0  0.33485  0.95201  0.23813  1.0000
  H   H893      1.0  0.20879  0.52157  0.14111  1.0000
  H   H894      1.0  0.09315  0.54553  0.04342  1.0000
  C   C514      1.0  0.25366  0.67442  0.22364  1.0000
  H   H895      1.0  0.09219  0.63335  0.05473  1.0000
  H   H896      1.0  0.06283  0.66114  0.04038  1.0000
  H   H897      1.0  0.05883  0.52076  0.05746  1.0000
  H   H898      1.0  0.32283  0.73895  0.25183  1.0000
  C   C515      1.0  0.49751  0.82291  0.12474  1.0000
  C   C516      1.0  0.49046  0.80688  0.18731  1.0000
  H   H899      1.0  0.34060  0.97199  0.06326  1.0000
  H   H900      1.0  0.07928  0.57493  0.05007  1.0000
  C   C517      1.0  0.33478  0.84470  0.24536  1.0000
  H   H901      1.0  0.04823  0.52602  0.14749  1.0000
  H   H902      1.0  0.19927  0.71829  0.19769  1.0000
  H   H903      1.0  0.22594  0.73905  0.19813  1.0000
  H   H904      1.0  0.31297  0.73576  0.21911  1.0000
  H   H905      1.0  0.20390  0.69059  0.22488  1.0000
  H   H906      1.0  0.04475  0.75657  0.07682  1.0000
  C   C518      1.0  0.21963  0.72068  0.19400  1.0000
  H   H907      1.0  0.44849  0.89041  0.07822  1.0000
  H   H908      1.0  0.49094  0.89796  0.11139  1.0000
  H   H909      1.0  0.36294  0.88866  0.24323  1.0000
  H   H910      1.0  0.38105  0.93555  0.22246  1.0000
  C   C519      1.0  0.21868  0.70473  0.22720  1.0000
  C   C520      1.0  0.26126  0.72110  0.21959  1.0000
  H   H911      1.0  0.40355  0.90339  0.20739  1.0000
  C   C521      1.0  0.43574  0.72436  0.17669  1.0000
  C   C522      1.0  0.04613  0.51103  0.09336  1.0000
  C   C523      1.0  0.27998  0.72820  0.20562  1.0000
  H   H912      1.0  0.34398  0.90986  0.23177  1.0000
  H   H913      1.0  0.30371  0.63195  0.21571  1.0000
  H   H914      1.0  0.40992  0.96853  0.15665  1.0000
  H   H915      1.0  0.01673  0.51414  0.14509  1.0000
  H   H916      1.0  0.33893  0.77173  0.23096  1.0000
  H   H917      1.0  0.05375  0.77139  0.05788  1.0000
  H   H918      1.0  0.44347  0.64725  0.22168  1.0000
  H   H919      1.0  0.29462  0.90683  0.02294  1.0000
  H   H920      1.0  0.19323  0.53397  0.16792  1.0000
  C   C524      1.0  0.14524  0.50801  0.13726  1.0000
  C   C525      1.0  0.23962  0.51510  0.18137  1.0000
  C   C526      1.0  0.04947  0.61946  0.00877  1.0000
  H   H921      1.0  0.41166  0.76164  0.23282  1.0000
  H   H922      1.0  0.46932  0.76079  0.22547  1.0000
  H   H923      1.0  0.05366  0.71253  0.06792  1.0000
  H   H924      1.0  0.40652  0.95021  0.00847  1.0000
  H   H925      1.0  0.50038  0.82564  0.11188  1.0000
  C   C527      1.0  0.50382  0.74108  0.20278  1.0000
  H   H926      1.0  0.48465  0.87905  0.15465  1.0000
  H   H927      1.0  0.48609  0.71743  0.22153  1.0000
  H   H928      1.0  0.43074  0.78803  0.22474  1.0000
  H   H929      1.0  0.14527  0.50739  0.12434  1.0000
  H   H930      1.0  0.03489  0.56729  0.03938  1.0000
  C   C528      1.0  0.03570  0.68321  0.01859  1.0000
  H   H931      1.0  0.02018  0.71643  0.02941  1.0000
  C   C529      1.0  0.20721  0.62782  0.25114  1.0000
  S   S120      1.0  0.00781  0.63655  0.09109  1.0000
  C   C530      1.0  0.22144  0.70410  0.24514  1.0000
  H   H932      1.0  0.00954  0.52970  0.06451  1.0000
  H   H933      1.0  0.16046  0.54126  0.16527  1.0000
  H   H934      1.0  0.22295  0.68404  0.24996  1.0000
  H   H935      1.0  0.36081  0.74561  0.23511  1.0000
  H   H936      1.0  0.01328  0.52883  0.10408  1.0000
  H   H937      1.0  0.30560  0.78202  0.25167  1.0000
  C   C531      1.0  0.03783  0.70467  0.03008  1.0000
  H   H938      1.0  0.02371  0.66017  0.05275  1.0000
  H   H939      1.0  0.18049  0.70718  0.25006  1.0000
  H   H940      1.0  0.05491  0.67543  0.01554  1.0000
  H   H941      1.0  0.35217  0.00543  0.24636  1.0000
  H   H942      1.0  0.14827  0.51508  0.18925  1.0000
  C   C532      1.0  0.33482  0.99719  0.25234  1.0000
  H   H943      1.0  0.40374  0.82184  0.25339  1.0000
  N   N30       1.0  0.35624  0.92529  0.25300  1.0000
  C   C533      1.0  0.01820  0.54271  0.00964  1.0000
  H   H944      1.0  0.50468  0.90777  0.13661  1.0000
  H   H945      1.0  0.45745  0.00422  0.14817  1.0000
  H   H946      1.0  0.45874  0.00402  0.12720  1.0000
  S   S121      1.0  0.41491  0.00555  0.10473  1.0000
  H   H947      1.0  0.30872  0.00542  0.04360  1.0000
  H   H948      1.0  0.37499  0.93584  0.27357  1.0000
  S   S122      1.0  0.46538  0.83487  0.40293  1.0000
  H   H949      1.0  0.49758  0.93094  0.47476  1.0000
  Fe  Fe62      1.0  0.36554  0.86898  0.33515  1.0000
  S   S123      1.0  0.32383  0.87877  0.33862  1.0000
  S   S124      1.0  0.39722  0.88446  0.34919  1.0000
  Fe  Fe63      1.0  0.35735  0.85067  0.30223  1.0000
  S   S125      1.0  0.31561  0.85991  0.30305  1.0000
  S   S126      1.0  0.37989  0.83313  0.28260  1.0000
  Fe  Fe64      1.0  0.32662  0.89617  0.31402  1.0000
  S   S127      1.0  0.31684  0.93626  0.30397  1.0000
  Fe  Fe65      1.0  0.31629  0.84151  0.32740  1.0000
  S   S128      1.0  0.29185  0.80764  0.33667  1.0000
  S   S129      1.0  0.36829  0.88788  0.31105  1.0000
  S   S130      1.0  0.35813  0.83077  0.32599  1.0000
  S   S131      1.0  0.14437  0.52626  0.43090  1.0000
  S   S132      1.0  0.18762  0.53944  0.39223  1.0000
  Fe  Fe66      1.0  0.15655  0.66173  0.33219  1.0000
  S   S133      1.0  0.13891  0.70121  0.32865  1.0000
  S   S134      1.0  0.14427  0.63709  0.35391  1.0000
  Fe  Fe67      1.0  0.17717  0.66237  0.29856  1.0000
  S   S135      1.0  0.16034  0.70089  0.29254  1.0000
  S   S136      1.0  0.20082  0.63925  0.28175  1.0000
  Fe  Fe68      1.0  0.17570  0.71192  0.31533  1.0000
  S   S137      1.0  0.19426  0.75153  0.31282  1.0000
  Fe  Fe69      1.0  0.12527  0.68727  0.30629  1.0000
  S   S138      1.0  0.08589  0.69134  0.29598  1.0000
  S   S139      1.0  0.19434  0.67349  0.32075  1.0000
  S   S140      1.0  0.14118  0.64769  0.31032  1.0000
  C   C534      1.0  0.39138  0.97249  0.32673  1.0000
  C   C535      1.0  0.15523  0.57977  0.32680  1.0000
  C   C536      1.0  0.05624  0.69013  0.30661  1.0000
  C   C537      1.0  0.05465  0.68909  0.32292  1.0000
  C   C538      1.0  0.03066  0.68884  0.33085  1.0000
  H   H950      1.0  0.15886  0.59636  0.27429  1.0000
  C   C539      1.0  0.03358  0.69052  0.29839  1.0000
  H   H951      1.0  0.07191  0.68890  0.32939  1.0000
  H   H952      1.0  0.02966  0.68842  0.34345  1.0000
  H   H953      1.0  0.03461  0.69136  0.28578  1.0000
  C   C540      1.0  0.17595  0.56552  0.38034  1.0000
  C   C541      1.0  0.15029  0.56760  0.37669  1.0000
  C   C542      1.0  0.14141  0.58908  0.36779  1.0000
  C   C543      1.0  0.15782  0.60878  0.36254  1.0000
  C   C544      1.0  0.18363  0.60643  0.36578  1.0000
  C   C545      1.0  0.19269  0.58473  0.37451  1.0000
  H   H954      1.0  0.13728  0.55277  0.38085  1.0000
  H   H955      1.0  0.12168  0.59067  0.36490  1.0000
  H   H956      1.0  0.19637  0.62178  0.36213  1.0000
  H   H957      1.0  0.21259  0.58330  0.37727  1.0000
  C   C546      1.0  0.34352  0.84368  0.26065  1.0000
  H   H958      1.0  0.19284  0.61632  0.33216  1.0000
  H   H959      1.0  0.05152  0.61020  0.32423  1.0000
  H   H960      1.0  0.09434  0.58246  0.38437  1.0000
  C   C547      1.0  0.26524  0.79203  0.32935  1.0000
  C   C548      1.0  0.25988  0.76680  0.33486  1.0000
  C   C549      1.0  0.23855  0.75393  0.32982  1.0000
  C   C550      1.0  0.22195  0.76632  0.31938  1.0000
  C   C551      1.0  0.22739  0.79152  0.31383  1.0000
  C   C552      1.0  0.24895  0.80423  0.31866  1.0000
  H   H961      1.0  0.27221  0.75718  0.34320  1.0000
  H   H962      1.0  0.23468  0.73462  0.33425  1.0000
  H   H963      1.0  0.21461  0.80138  0.30585  1.0000
  H   H964      1.0  0.25252  0.82372  0.31450  1.0000
  H   H965      1.0  0.40567  0.93981  0.31436  1.0000
  C   C553      1.0  0.31042  0.96457  0.33012  1.0000
  C   C554      1.0  0.31751  0.96449  0.31428  1.0000
  H   H966      1.0  0.46487  0.98365  0.45552  1.0000
  H   H967      1.0  0.10685  0.57227  0.34171  1.0000
  H   H968      1.0  0.30496  0.94694  0.33643  1.0000
  C   C555      1.0  0.17032  0.65397  0.25723  1.0000
  H   H969      1.0  0.47902  0.95357  0.45136  1.0000
  H   H970      1.0  0.12783  0.58479  0.30835  1.0000
  H   H971      1.0  0.49327  0.89071  0.36370  1.0000
  C   C556      1.0  0.44508  0.84890  0.38876  1.0000
  C   C557      1.0  0.42633  0.83428  0.38241  1.0000
  C   C558      1.0  0.41095  0.84490  0.37048  1.0000
  C   C559      1.0  0.41438  0.87019  0.36483  1.0000
  C   C560      1.0  0.43282  0.88481  0.37140  1.0000
  C   C561      1.0  0.44810  0.87428  0.38327  1.0000
  H   H972      1.0  0.42383  0.81463  0.38664  1.0000
  H   H973      1.0  0.39667  0.83348  0.36560  1.0000
  H   H974      1.0  0.43567  0.90428  0.36706  1.0000
  H   H975      1.0  0.46237  0.88576  0.38811  1.0000
  H   H976      1.0  0.35524  0.97251  0.26838  1.0000
  H   H977      1.0  0.46604  0.95126  0.42451  1.0000
  H   H978      1.0  0.15615  0.61872  0.42138  1.0000
  H   H979      1.0  0.47715  0.80743  0.34482  1.0000
  H   H980      1.0  0.42261  0.88391  0.28129  1.0000
  H   H981      1.0  0.50294  0.93530  0.50306  1.0000
  N   N31       1.0  0.17847  0.56837  0.31896  1.0000
  H   H982      1.0  0.46894  0.97236  0.36447  1.0000
  C   C562      1.0  0.27324  0.80812  0.26886  1.0000
  H   H983      1.0  0.27067  0.84514  0.27910  1.0000
  H   H984      1.0  0.23972  0.72102  0.29855  1.0000
  H   H985      1.0  0.04398  0.56808  0.40150  1.0000
  H   H986      1.0  0.08156  0.61753  0.37048  1.0000
  C   C563      1.0  0.20778  0.60511  0.32607  1.0000
  H   H987      1.0  0.46610  0.94449  0.47638  1.0000
  H   H988      1.0  0.03497  0.53241  0.48138  1.0000
  C   C564      1.0  0.07299  0.60318  0.41977  1.0000
  H   H989      1.0  0.48133  0.98595  0.48181  1.0000
  H   H990      1.0  0.43006  0.91323  0.27014  1.0000
  C   C565      1.0  0.02301  0.52400  0.41822  1.0000
  C   C566      1.0  0.18136  0.57856  0.30212  1.0000
  C   C567      1.0  0.30952  0.98766  0.33766  1.0000
  H   H991      1.0  0.39728  0.88859  0.25782  1.0000
  C   C568      1.0  0.39143  0.89982  0.26789  1.0000
  H   H992      1.0  0.23646  0.63087  0.33304  1.0000
  H   H993      1.0  0.07549  0.50828  0.48059  1.0000
  C   C569      1.0  0.39304  0.95677  0.31233  1.0000
  H   H994      1.0  0.40087  0.96861  0.30218  1.0000
  N   N32       1.0  0.50472  0.97964  0.46114  1.0000
  C   C570      1.0  0.41505  0.90303  0.27736  1.0000
  C   C571      1.0  0.12826  0.59221  0.41385  1.0000
  C   C572      1.0  0.12935  0.57425  0.31988  1.0000
  H   H995      1.0  0.44955  0.85146  0.32633  1.0000
  C   C573      1.0  0.32394  0.98770  0.30616  1.0000
  H   H996      1.0  0.30334  0.98763  0.34980  1.0000
  C   C574      1.0  0.16971  0.57807  0.27370  1.0000
  H   H997      1.0  0.46781  0.97940  0.41156  1.0000
  H   H998      1.0  0.43664  0.79474  0.33222  1.0000
  H   H999      1.0  0.15649  0.60084  0.32646  1.0000
  H   H1000     1.0  0.45764  0.83051  0.35400  1.0000
  C   C575      1.0  0.06615  0.65558  0.36913  1.0000
  H   H1001     1.0  0.11430  0.63105  0.40927  1.0000
  C   C576      1.0  0.43175  0.81526  0.33001  1.0000
  H   H1002     1.0  0.44680  0.97507  0.38075  1.0000
  C   C577      1.0  0.25787  0.83026  0.27540  1.0000
  H   H1003     1.0  0.02997  0.59281  0.34859  1.0000
  H   H1004     1.0  0.49450  0.92431  0.33314  1.0000
  C   C578      1.0  0.30841  0.91368  0.25574  1.0000
  C   C579      1.0  0.28828  0.90297  0.26751  1.0000
  H   H1005     1.0  0.32281  0.96381  0.26591  1.0000
  H   H1006     1.0  0.41877  0.82153  0.33958  1.0000
  C   C580      1.0  0.23302  0.61002  0.33353  1.0000
  C   C581      1.0  0.16888  0.56329  0.28958  1.0000
  H   H1007     1.0  0.20943  0.61280  0.31379  1.0000
  N   N33       1.0  0.30674  0.77304  0.27669  1.0000
  C   C582      1.0  0.29334  0.79769  0.28048  1.0000
  C   C583      1.0  0.32721  0.76648  0.28831  1.0000
  H   H1008     1.0  0.15441  0.57384  0.33938  1.0000
  C   C584      1.0  0.28845  0.75134  0.27603  1.0000
  C   C585      1.0  0.27093  0.74563  0.29065  1.0000
  C   C586      1.0  0.45065  0.96525  0.36981  1.0000
  H   H1009     1.0  0.42834  0.99167  0.35605  1.0000
  C   C587      1.0  0.32219  0.77444  0.30527  1.0000
  C   C588      1.0  0.34247  0.76338  0.31613  1.0000
  C   C589      1.0  0.25125  0.72557  0.28766  1.0000
  C   C590      1.0  0.17791  0.53955  0.32003  1.0000
  H   H1010     1.0  0.24534  0.83893  0.26634  1.0000
  H   H1011     1.0  0.30764  0.81291  0.28125  1.0000
  H   H1012     1.0  0.28375  0.79611  0.29220  1.0000
  H   H1013     1.0  0.33156  0.74563  0.28887  1.0000
  H   H1014     1.0  0.12980  0.50892  0.47761  1.0000
  H   H1015     1.0  0.42147  0.81766  0.31894  1.0000
  H   H1016     1.0  0.16518  0.58465  0.48742  1.0000
  C   C591      1.0  0.10726  0.58337  0.33029  1.0000
  H   H1017     1.0  0.41068  0.97916  0.32888  1.0000
  H   H1018     1.0  0.26022  0.76281  0.29408  1.0000
  H   H1019     1.0  0.28229  0.73790  0.30051  1.0000
  C   C592      1.0  0.03675  0.62171  0.33027  1.0000
  H   H1020     1.0  0.12682  0.55361  0.31859  1.0000
  H   H1021     1.0  0.07876  0.51474  0.45972  1.0000
  C   C593      1.0  0.04179  0.52573  0.46999  1.0000
  H   H1022     1.0  0.32275  0.79554  0.30560  1.0000
  H   H1023     1.0  0.30345  0.76811  0.31012  1.0000
  H   H1024     1.0  0.36164  0.77012  0.31206  1.0000
  H   H1025     1.0  0.33846  0.76985  0.32806  1.0000
  H   H1026     1.0  0.34224  0.74221  0.31673  1.0000
  H   H1027     1.0  0.23812  0.73298  0.27858  1.0000
  H   H1028     1.0  0.04111  0.63044  0.42138  1.0000
  H   H1029     1.0  0.46741  0.92140  0.34671  1.0000
  S   S141      1.0  0.49023  0.89461  0.42381  1.0000
  H   H1030     1.0  0.19997  0.71366  0.26607  1.0000
  H   H1031     1.0  0.18969  0.58218  0.26986  1.0000
  H   H1032     1.0  0.26961  0.90248  0.26193  1.0000
  H   H1033     1.0  0.45283  0.94447  0.37273  1.0000
  Fe  Fe70      1.0  0.49720  0.85919  0.41069  1.0000
  N   N34       1.0  0.38001  0.96822  0.35677  1.0000
  C   C594      1.0  0.11205  0.61215  0.40428  1.0000
  C   C595      1.0  0.37976  0.95672  0.34103  1.0000
  C   C596      1.0  0.35730  0.95820  0.36642  1.0000
  C   C597      1.0  0.40364  0.96003  0.36529  1.0000
  H   H1034     1.0  0.50379  0.00323  0.39380  1.0000
  H   H1035     1.0  0.41022  0.91374  0.28785  1.0000
  C   C598      1.0  0.35474  0.92870  0.36810  1.0000
  H   H1036     1.0  0.25958  0.79324  0.26632  1.0000
  H   H1037     1.0  0.15840  0.66366  0.26560  1.0000
  H   H1038     1.0  0.46740  0.82527  0.31857  1.0000
  C   C599      1.0  0.33019  0.92106  0.37712  1.0000
  H   H1039     1.0  0.06678  0.53434  0.38718  1.0000
  H   H1040     1.0  0.03744  0.54436  0.37845  1.0000
  H   H1041     1.0  0.38928  0.93762  0.34157  1.0000
  H   H1042     1.0  0.50200  0.81245  0.45354  1.0000
  H   H1043     1.0  0.33940  0.96614  0.36145  1.0000
  H   H1044     1.0  0.35754  0.96464  0.37850  1.0000
  H   H1045     1.0  0.40167  0.96459  0.37775  1.0000
  H   H1046     1.0  0.40592  0.93893  0.36568  1.0000
  C   C600      1.0  0.08198  0.63458  0.37744  1.0000
  H   H1047     1.0  0.16201  0.53244  0.31349  1.0000
  H   H1048     1.0  0.19927  0.57110  0.34014  1.0000
  H   H1049     1.0  0.16437  0.60507  0.40300  1.0000
  H   H1050     1.0  0.37084  0.91973  0.37450  1.0000
  H   H1051     1.0  0.35417  0.92036  0.35658  1.0000
  H   H1052     1.0  0.19554  0.53185  0.31429  1.0000
  H   H1053     1.0  0.35918  0.00200  0.34877  1.0000
  C   C601      1.0  0.20152  0.57621  0.32742  1.0000
  C   C602      1.0  0.04747  0.51328  0.41870  1.0000
  H   H1054     1.0  0.16111  0.56663  0.26488  1.0000
  H   H1055     1.0  0.26064  0.70769  0.28400  1.0000
  H   H1056     1.0  0.37384  0.95031  0.30948  1.0000
  H   H1057     1.0  0.27626  0.75440  0.26577  1.0000
  H   H1058     1.0  0.08902  0.58051  0.32461  1.0000
  H   H1059     1.0  0.32896  0.89992  0.37818  1.0000
  H   H1060     1.0  0.32989  0.92818  0.38902  1.0000
  H   H1061     1.0  0.31335  0.92876  0.37086  1.0000
  H   H1062     1.0  0.33283  0.92356  0.27426  1.0000
  C   C603      1.0  0.17530  0.52638  0.33670  1.0000
  H   H1063     1.0  0.33942  0.89380  0.26682  1.0000
  C   C604      1.0  0.08216  0.58177  0.39512  1.0000
  C   C605      1.0  0.05689  0.55053  0.38089  1.0000
  H   H1064     1.0  0.32914  0.98792  0.29387  1.0000
  H   H1065     1.0  0.33097  0.84907  0.27015  1.0000
  H   H1066     1.0  0.09001  0.56547  0.40237  1.0000
  H   H1067     1.0  0.19166  0.53059  0.34385  1.0000
  H   H1068     1.0  0.08279  0.61583  0.42753  1.0000
  C   C606      1.0  0.37702  0.99690  0.35490  1.0000
  C   C607      1.0  0.36837  0.83532  0.26360  1.0000
  H   H1069     1.0  0.24899  0.60067  0.32713  1.0000
  H   H1070     1.0  0.39466  0.93773  0.25641  1.0000
  C   C608      1.0  0.07172  0.62861  0.39443  1.0000
  C   C609      1.0  0.04422  0.60942  0.42233  1.0000
  H   H1071     1.0  0.17944  0.54501  0.28822  1.0000
  H   H1072     1.0  0.34903  0.74659  0.26354  1.0000
  H   H1073     1.0  0.12041  0.58878  0.42593  1.0000
  H   H1074     1.0  0.04640  0.63464  0.33783  1.0000
  S   S142      1.0  0.07184  0.53011  0.42645  1.0000
  H   H1075     1.0  0.12148  0.61388  0.39250  1.0000
  H   H1076     1.0  0.21875  0.56563  0.32320  1.0000
  H   H1077     1.0  0.24568  0.82335  0.28554  1.0000
  N   N35       1.0  0.08413  0.60625  0.40327  1.0000
  H   H1078     1.0  0.16715  0.58601  0.42097  1.0000
  H   H1079     1.0  0.15749  0.53250  0.34282  1.0000
  H   H1080     1.0  0.04616  0.64957  0.36826  1.0000
  C   C610      1.0  0.34050  0.97056  0.25966  1.0000
  C   C611      1.0  0.00802  0.68945  0.32260  1.0000
  H   H1081     1.0  0.12918  0.57376  0.40823  1.0000
  C   C612      1.0  0.15562  0.60116  0.41484  1.0000
  H   H1082     1.0  0.44609  0.97888  0.42831  1.0000
  H   H1083     1.0  0.29360  0.88328  0.27171  1.0000
  H   H1084     1.0  0.35989  0.95314  0.33779  1.0000
  H   H1085     1.0  0.06729  0.55522  0.36962  1.0000
  C   C613      1.0  0.05531  0.57375  0.39080  1.0000
  C   C614      1.0  0.42920  0.97074  0.35846  1.0000
  H   H1086     1.0  0.10900  0.60400  0.33222  1.0000
  H   H1087     1.0  0.46384  0.87407  0.34640  1.0000
  H   H1088     1.0  0.20186  0.57952  0.29832  1.0000
  H   H1089     1.0  0.10177  0.64155  0.37733  1.0000
  H   H1090     1.0  0.06651  0.67342  0.37541  1.0000
  C   C615      1.0  0.00960  0.69010  0.30631  1.0000
  H   H1091     1.0  0.04522  0.58916  0.38403  1.0000
  H   H1092     1.0  0.07430  0.65969  0.35714  1.0000
  C   C616      1.0  0.49545  0.85961  0.50219  1.0000
  H   H1093     1.0  0.48973  0.84514  0.36983  1.0000
  H   H1094     1.0  0.23261  0.60273  0.34593  1.0000
  H   H1095     1.0  0.17410  0.59863  0.30089  1.0000
  H   H1096     1.0  0.02634  0.63337  0.32127  1.0000
  H   H1097     1.0  0.05093  0.62605  0.39381  1.0000
  H   H1098     1.0  0.07382  0.64621  0.40086  1.0000
  H   H1099     1.0  0.07670  0.58351  0.42479  1.0000
  C   C617      1.0  0.48564  0.94513  0.48081  1.0000
  H   H1100     1.0  0.14878  0.55882  0.29263  1.0000
  H   H1101     1.0  0.00813  0.63001  0.35724  1.0000
  C   C618      1.0  0.45575  0.83136  0.32876  1.0000
  Fe  Fe71      1.0  0.10882  0.50903  0.42287  1.0000
  H   H1102     1.0  0.01937  0.54275  0.42240  1.0000
  C   C619      1.0  0.33485  0.91388  0.26316  1.0000
  C   C620      1.0  0.37957  0.92607  0.26266  1.0000
  C   C621      1.0  0.48416  0.87243  0.34239  1.0000
  C   C622      1.0  0.48270  0.97442  0.45102  1.0000
  H   H1103     1.0  0.04561  0.60774  0.44772  1.0000
  Fe  Fe72      1.0  0.16101  0.51443  0.40787  1.0000
  C   C623      1.0  0.49642  0.97243  0.47783  1.0000
  C   C624      1.0  0.19206  0.64052  0.26210  1.0000
  H   H1104     1.0  0.34546  0.77593  0.28448  1.0000
  H   H1105     1.0  0.29906  0.73323  0.27411  1.0000
  C   C625      1.0  0.50165  0.86680  0.48643  1.0000
  H   H1106     1.0  0.01421  0.60510  0.44030  1.0000
  H   H1107     1.0  0.37770  0.88851  0.27541  1.0000
  C   C626      1.0  0.01853  0.60418  0.33995  1.0000
  C   C627      1.0  0.03453  0.59954  0.43854  1.0000
  C   C628      1.0  0.48376  0.93697  0.49817  1.0000
  C   C629      1.0  0.48609  0.98295  0.43351  1.0000
  C   C630      1.0  0.46514  0.97244  0.42397  1.0000
  H   H1108     1.0  0.33247  0.79389  0.26067  1.0000
  C   C631      1.0  0.47112  0.82784  0.34388  1.0000
  C   C632      1.0  0.07065  0.52200  0.47075  1.0000
  H   H1109     1.0  0.43453  0.96144  0.34753  1.0000
  H   H1110     1.0  0.03231  0.60111  0.41370  1.0000
  H   H1111     1.0  0.03825  0.54084  0.46069  1.0000
  H   H1112     1.0  0.49387  0.81255  0.47418  1.0000
  C   C633      1.0  0.31969  0.77725  0.26076  1.0000
  H   H1113     1.0  0.28625  0.91510  0.27765  1.0000
  H   H1114     1.0  0.07967  0.54049  0.47256  1.0000
  H   H1115     1.0  0.49667  0.93425  0.35275  1.0000
  H   H1116     1.0  0.03616  0.57839  0.43972  1.0000
  H   H1117     1.0  0.49155  0.78365  0.46414  1.0000
  C   C634      1.0  0.50437  0.84031  0.36075  1.0000
  C   C635      1.0  0.48848  0.91990  0.34551  1.0000
  H   H1118     1.0  0.48427  0.87849  0.32974  1.0000
  N   N36       1.0  0.49367  0.84508  0.34475  1.0000
  H   H1119     1.0  0.17601  0.55198  0.48655  1.0000
  C   C636      1.0  0.49772  0.89319  0.35097  1.0000
  H   H1120     1.0  0.01048  0.59086  0.33205  1.0000
  H   H1121     1.0  0.20463  0.57845  0.50158  1.0000
  H   H1122     1.0  0.14970  0.55997  0.49961  1.0000
  H   H1123     1.0  0.49764  0.79956  0.36668  1.0000
  H   H1124     1.0  0.49033  0.86023  0.47728  1.0000
  H   H1125     1.0  0.37905  0.98943  0.32390  1.0000
  H   H1126     1.0  0.28270  0.81552  0.25778  1.0000
  H   H1127     1.0  0.47483  0.91792  0.49980  1.0000
  C   C637      1.0  0.16833  0.56649  0.49444  1.0000
  H   H1128     1.0  0.48525  0.00406  0.43174  1.0000
  H   H1129     1.0  0.50504  0.84410  0.32035  1.0000
  H   H1130     1.0  0.39238  0.00552  0.34725  1.0000
  C   C638      1.0  0.50279  0.80121  0.46489  1.0000
  H   H1131     1.0  0.50455  0.97587  0.42883  1.0000
  H   H1132     1.0  0.22395  0.61720  0.25485  1.0000
  C   C639      1.0  0.33560  0.75443  0.25477  1.0000
  Fe  Fe73      1.0  0.33250  0.84743  0.69687  1.0000
  S   S143      1.0  0.29355  0.86211  0.69077  1.0000
  S   S144      1.0  0.33903  0.82139  0.71849  1.0000
  Fe  Fe74      1.0  0.35583  0.86389  0.66431  1.0000
  S   S145      1.0  0.31816  0.87942  0.65587  1.0000
  S   S146      1.0  0.39258  0.85584  0.65011  1.0000
  Fe  Fe75      1.0  0.31459  0.89620  0.67949  1.0000
  S   S147      1.0  0.29824  0.93530  0.68518  1.0000
  Fe  Fe76      1.0  0.30011  0.84416  0.66789  1.0000
  S   S148      1.0  0.27524  0.81643  0.65560  1.0000
  S   S149      1.0  0.35326  0.88244  0.68733  1.0000
  S   S150      1.0  0.33801  0.82774  0.67460  1.0000
  H   H1133     1.0  0.08723  0.64523  0.65821  1.0000
  H   H1134     1.0  0.24840  0.57055  0.54721  1.0000
  S   S151      1.0  0.46224  0.91677  0.59834  1.0000
  Fe  Fe77      1.0  0.16254  0.66490  0.69289  1.0000
  S   S152      1.0  0.14047  0.70008  0.69855  1.0000
  S   S153      1.0  0.19016  0.64631  0.71012  1.0000
  Fe  Fe78      1.0  0.14402  0.66724  0.65923  1.0000
  S   S154      1.0  0.12227  0.70425  0.66273  1.0000
  S   S155      1.0  0.13574  0.64888  0.63641  1.0000
  Fe  Fe79      1.0  0.15670  0.71653  0.67546  1.0000
  S   S156      1.0  0.17422  0.75584  0.67844  1.0000
  Fe  Fe80      1.0  0.10832  0.68480  0.68538  1.0000
  S   S157      1.0  0.06733  0.67852  0.69484  1.0000
  S   S158      1.0  0.17942  0.68130  0.67001  1.0000
  S   S159      1.0  0.12943  0.64783  0.68169  1.0000
  H   H1135     1.0  0.16557  0.54153  0.55218  1.0000
  H   H1136     1.0  0.05410  0.51438  0.54276  1.0000
  H   H1137     1.0  0.34999  0.99656  0.65201  1.0000
  H   H1138     1.0  0.25705  0.81414  0.61709  1.0000
  Fe  Fe81      1.0  0.15980  0.51932  0.59099  1.0000
  H   H1139     1.0  0.49332  0.00461  0.51105  1.0000
  S   S160      1.0  0.17936  0.55146  0.60246  1.0000
  C   C640      1.0  0.25847  0.83520  0.61527  1.0000
  C   C641      1.0  0.13178  0.52303  0.64861  1.0000
  H   H1140     1.0  0.23295  0.57659  0.52036  1.0000
  H   H1141     1.0  0.25431  0.84389  0.62658  1.0000
  H   H1142     1.0  0.01392  0.58684  0.61942  1.0000
  H   H1143     1.0  0.13877  0.57635  0.56207  1.0000
  C   C642      1.0  0.47269  0.96597  0.62798  1.0000
  H   H1144     1.0  0.08088  0.56521  0.58305  1.0000
  C   C643      1.0  0.28025  0.56573  0.53135  1.0000
  C   C644      1.0  0.14737  0.62073  0.62788  1.0000
  C   C645      1.0  0.16830  0.60672  0.63351  1.0000
  C   C646      1.0  0.17768  0.58542  0.62570  1.0000
  C   C647      1.0  0.16583  0.57739  0.61247  1.0000
  C   C648      1.0  0.14467  0.59120  0.60697  1.0000
  C   C649      1.0  0.13558  0.61275  0.61461  1.0000
  H   H1145     1.0  0.17772  0.61274  0.64361  1.0000
  H   H1146     1.0  0.19437  0.57521  0.62987  1.0000
  H   H1147     1.0  0.13598  0.58594  0.59647  1.0000
  H   H1148     1.0  0.11963  0.62368  0.61001  1.0000
  C   C650      1.0  0.01504  0.68107  0.69642  1.0000
  H   H1149     1.0  0.07972  0.53383  0.60583  1.0000
  C   C651      1.0  0.03731  0.69174  0.68937  1.0000
  C   C652      1.0  0.03495  0.71227  0.67832  1.0000
  C   C653      1.0  0.04615  0.64295  0.65755  1.0000
  H   H1150     1.0  0.12486  0.53055  0.62440  1.0000
  H   H1151     1.0  0.05188  0.72080  0.67286  1.0000
  C   C654      1.0  0.18196  0.64547  0.73030  1.0000
  C   C655      1.0  0.20017  0.63750  0.74122  1.0000
  C   C656      1.0  0.01007  0.60610  0.61386  1.0000
  C   C657      1.0  0.05458  0.51155  0.58128  1.0000
  C   C658      1.0  0.15758  0.65254  0.73563  1.0000
  H   H1152     1.0  0.21903  0.63188  0.73717  1.0000
  H   H1153     1.0  0.33816  0.98969  0.69908  1.0000
  H   H1154     1.0  0.14335  0.65856  0.72735  1.0000
  C   C659      1.0  0.25442  0.55707  0.53829  1.0000
  C   C660      1.0  0.24725  0.79970  0.66226  1.0000
  C   C661      1.0  0.23859  0.77992  0.65354  1.0000
  C   C662      1.0  0.21649  0.76616  0.65832  1.0000
  C   C663      1.0  0.20251  0.77221  0.67181  1.0000
  C   C664      1.0  0.21111  0.79210  0.68045  1.0000
  C   C665      1.0  0.23342  0.80559  0.67582  1.0000
  H   H1155     1.0  0.24901  0.77524  0.64299  1.0000
  H   H1156     1.0  0.21000  0.75119  0.65142  1.0000
  H   H1157     1.0  0.20039  0.79714  0.69083  1.0000
  H   H1158     1.0  0.23969  0.82081  0.68261  1.0000
  C   C666      1.0  0.30747  0.96589  0.67725  1.0000
  C   C667      1.0  0.32803  0.96935  0.66655  1.0000
  C   C668      1.0  0.29379  0.98745  0.68205  1.0000
  H   H1159     1.0  0.33868  0.95292  0.66273  1.0000
  H   H1160     1.0  0.27773  0.98495  0.69020  1.0000
  C   C669      1.0  0.41181  0.87361  0.63604  1.0000
  C   C670      1.0  0.43269  0.86126  0.62887  1.0000
  C   C671      1.0  0.44830  0.87420  0.61738  1.0000
  C   C672      1.0  0.44317  0.89974  0.61287  1.0000
  C   C673      1.0  0.42232  0.91216  0.62007  1.0000
  C   C674      1.0  0.40674  0.89921  0.63161  1.0000
  H   H1161     1.0  0.43684  0.84148  0.63223  1.0000
  H   H1162     1.0  0.46427  0.86438  0.61201  1.0000
  H   H1163     1.0  0.41804  0.93185  0.61660  1.0000
  H   H1164     1.0  0.39076  0.90896  0.63702  1.0000
  H   H1165     1.0  0.36296  0.96587  0.72880  1.0000
  C   C675      1.0  0.35144  0.85806  0.73863  1.0000
  C   C676      1.0  0.35133  0.83218  0.73568  1.0000
  C   C677      1.0  0.04922  0.51915  0.63431  1.0000
  H   H1166     1.0  0.34443  0.87211  0.73004  1.0000
  C   C678      1.0  0.02310  0.65850  0.65110  1.0000
  C   C679      1.0  0.16074  0.52206  0.64636  1.0000
  H   H1167     1.0  0.15084  0.70544  0.75209  1.0000
  N   N37       1.0  0.20854  0.54712  0.53082  1.0000
  H   H1168     1.0  0.06774  0.59166  0.67248  1.0000
  H   H1169     1.0  0.02848  0.66626  0.63918  1.0000
  H   H1170     1.0  0.02093  0.67561  0.65809  1.0000
  H   H1171     1.0  0.25726  0.53796  0.54424  1.0000
  H   H1172     1.0  0.27871  0.58524  0.52567  1.0000
  H   H1173     1.0  0.17014  0.57685  0.56970  1.0000
  S   S161      1.0  0.12545  0.52037  0.57626  1.0000
  H   H1174     1.0  0.01214  0.64551  0.61881  1.0000
  C   C680      1.0  0.15137  0.65136  0.75170  1.0000
  H   H1175     1.0  0.16119  0.59971  0.55415  1.0000
  H   H1176     1.0  0.08570  0.54046  0.66206  1.0000
  H   H1177     1.0  0.47940  0.84736  0.50505  1.0000
  C   C681      1.0  0.15916  0.57969  0.55891  1.0000
  H   H1178     1.0  0.47259  0.96752  0.64080  1.0000
  H   H1179     1.0  0.16641  0.51511  0.63476  1.0000
  C   C682      1.0  0.47438  0.99232  0.61945  1.0000
  H   H1180     1.0  0.10840  0.55163  0.60422  1.0000
  H   H1181     1.0  0.01663  0.66532  0.70506  1.0000
  H   H1182     1.0  0.47856  0.98672  0.53735  1.0000
  C   C683      1.0  0.16839  0.56105  0.54687  1.0000
  S   S162      1.0  0.50242  0.85687  0.53387  1.0000
  H   H1183     1.0  0.19086  0.51319  0.54138  1.0000
  C   C684      1.0  0.03419  0.52396  0.57387  1.0000
  H   H1184     1.0  0.20728  0.56428  0.55308  1.0000
  H   H1185     1.0  0.25345  0.77830  0.75124  1.0000
  H   H1186     1.0  0.33263  0.93879  0.71526  1.0000
  H   H1187     1.0  0.00804  0.61795  0.67067  1.0000
  C   C685      1.0  0.23446  0.55666  0.52546  1.0000
  H   H1188     1.0  0.28760  0.55236  0.52266  1.0000
  C   C686      1.0  0.33448  0.99411  0.66056  1.0000
  C   C687      1.0  0.11956  0.53984  0.63536  1.0000
  C   C688      1.0  0.18689  0.57067  0.50728  1.0000
  C   C689      1.0  0.35208  0.94301  0.71040  1.0000
  H   H1189     1.0  0.36068  0.79411  0.74460  1.0000
  H   H1190     1.0  0.15604  0.56383  0.53671  1.0000
  H   H1191     1.0  0.05481  0.57163  0.59648  1.0000
  H   H1192     1.0  0.07361  0.51789  0.57855  1.0000
  C   C690      1.0  0.49200  0.99945  0.54278  1.0000
  N   N38       1.0  0.24990  0.72115  0.69693  1.0000
  C   C691      1.0  0.22802  0.73028  0.70713  1.0000
  C   C692      1.0  0.26683  0.74330  0.69163  1.0000
  C   C693      1.0  0.23876  0.71065  0.68270  1.0000
  C   C694      1.0  0.26494  0.69978  0.70494  1.0000
  C   C695      1.0  0.27680  0.70546  0.72049  1.0000
  C   C696      1.0  0.20839  0.70993  0.71297  1.0000
  C   C697      1.0  0.25775  0.70577  0.66885  1.0000
  C   C698      1.0  0.27026  0.76446  0.70322  1.0000
  C   C699      1.0  0.29180  0.78236  0.69773  1.0000
  C   C700      1.0  0.28845  0.68125  0.72824  1.0000
  C   C701      1.0  0.18749  0.72154  0.72324  1.0000
  C   C702      1.0  0.24449  0.69346  0.65577  1.0000
  H   H1193     1.0  0.21744  0.74592  0.70069  1.0000
  H   H1194     1.0  0.23477  0.73887  0.71763  1.0000
  H   H1195     1.0  0.28601  0.73622  0.68779  1.0000
  H   H1196     1.0  0.25894  0.75378  0.68119  1.0000
  H   H1197     1.0  0.22353  0.72363  0.67808  1.0000
  H   H1198     1.0  0.22918  0.69220  0.68585  1.0000
  H   H1199     1.0  0.25304  0.68246  0.70699  1.0000
  H   H1200     1.0  0.28105  0.69374  0.69722  1.0000
  H   H1201     1.0  0.26243  0.71296  0.72885  1.0000
  H   H1202     1.0  0.29243  0.71927  0.71831  1.0000
  H   H1203     1.0  0.19896  0.70202  0.70306  1.0000
  H   H1204     1.0  0.21755  0.69415  0.71999  1.0000
  H   H1205     1.0  0.27356  0.69285  0.67254  1.0000
  H   H1206     1.0  0.26598  0.72387  0.66377  1.0000
  H   H1207     1.0  0.25250  0.77618  0.70404  1.0000
  H   H1208     1.0  0.27439  0.75675  0.71510  1.0000
  H   H1209     1.0  0.31045  0.77210  0.69791  1.0000
  H   H1210     1.0  0.28872  0.79057  0.68574  1.0000
  H   H1211     1.0  0.29250  0.79833  0.70557  1.0000
  H   H1212     1.0  0.30353  0.67322  0.72048  1.0000
  H   H1213     1.0  0.35179  0.94382  0.69747  1.0000
  H   H1214     1.0  0.27358  0.66670  0.73090  1.0000
  H   H1215     1.0  0.17695  0.73677  0.71648  1.0000
  H   H1216     1.0  0.17383  0.70648  0.72732  1.0000
  H   H1217     1.0  0.19562  0.72963  0.73353  1.0000
  H   H1218     1.0  0.23698  0.67451  0.65992  1.0000
  H   H1219     1.0  0.22855  0.70581  0.65148  1.0000
  H   H1220     1.0  0.25826  0.69076  0.64587  1.0000
  N   N39       1.0  0.33312  0.83539  0.61399  1.0000
  C   C703      1.0  0.34996  0.82675  0.62719  1.0000
  C   C704      1.0  0.33779  0.86327  0.60968  1.0000
  C   C705      1.0  0.30587  0.83321  0.62014  1.0000
  C   C706      1.0  0.33683  0.81954  0.59997  1.0000
  C   C707      1.0  0.36398  0.80833  0.59678  1.0000
  C   C708      1.0  0.34478  0.79959  0.63470  1.0000
  C   C709      1.0  0.28496  0.84274  0.60880  1.0000
  C   C710      1.0  0.36454  0.87032  0.60283  1.0000
  C   C711      1.0  0.36697  0.89921  0.60007  1.0000
  C   C712      1.0  0.36643  0.79778  0.58061  1.0000
  C   C713      1.0  0.36791  0.78848  0.64314  1.0000
  H   H1221     1.0  0.34766  0.84002  0.63676  1.0000
  H   H1222     1.0  0.37039  0.82790  0.62358  1.0000
  H   H1223     1.0  0.32452  0.87066  0.60068  1.0000
  H   H1224     1.0  0.33386  0.87468  0.62006  1.0000
  H   H1225     1.0  0.30308  0.84388  0.63090  1.0000
  H   H1226     1.0  0.30139  0.81301  0.62368  1.0000
  H   H1227     1.0  0.32395  0.80284  0.60097  1.0000
  H   H1228     1.0  0.33100  0.83084  0.58927  1.0000
  H   H1229     1.0  0.36812  0.79239  0.60541  1.0000
  H   H1230     1.0  0.37910  0.82251  0.59756  1.0000
  H   H1231     1.0  0.32868  0.80050  0.64342  1.0000
  H   H1232     1.0  0.33947  0.78617  0.62596  1.0000
  H   H1233     1.0  0.28787  0.83464  0.59725  1.0000
  H   H1234     1.0  0.28486  0.86386  0.60722  1.0000
  H   H1235     1.0  0.37976  0.86360  0.61071  1.0000
  H   H1236     1.0  0.36778  0.86213  0.59132  1.0000
  H   H1237     1.0  0.38637  0.90378  0.59526  1.0000
  H   H1238     1.0  0.35290  0.90688  0.59160  1.0000
  H   H1239     1.0  0.36393  0.90873  0.61119  1.0000
  H   H1240     1.0  0.38572  0.78924  0.57885  1.0000
  H   H1241     1.0  0.35212  0.78277  0.57943  1.0000
  H   H1242     1.0  0.36378  0.81330  0.57142  1.0000
  H   H1243     1.0  0.37373  0.80131  0.65212  1.0000
  H   H1244     1.0  0.36313  0.76967  0.64901  1.0000
  H   H1245     1.0  0.38418  0.78588  0.63475  1.0000
  H   H1246     1.0  0.24386  0.84211  0.60697  1.0000
  H   H1247     1.0  0.36505  0.92714  0.71427  1.0000
  H   H1248     1.0  0.46212  0.96683  0.56284  1.0000
  C   C714      1.0  0.49744  0.98798  0.55944  1.0000
  H   H1249     1.0  0.07109  0.67569  0.65724  1.0000
  C   C715      1.0  0.36143  0.96818  0.71595  1.0000
  C   C716      1.0  0.34280  0.99048  0.71154  1.0000
  C   C717      1.0  0.19255  0.54527  0.51675  1.0000
  H   H1250     1.0  0.09328  0.57307  0.68138  1.0000
  C   C718      1.0  0.19679  0.56538  0.54204  1.0000
  H   H1251     1.0  0.17412  0.53622  0.52017  1.0000
  H   H1252     1.0  0.04695  0.62347  0.65327  1.0000
  H   H1253     1.0  0.20182  0.53238  0.50838  1.0000
  C   C719      1.0  0.47277  0.98142  0.56866  1.0000
  H   H1254     1.0  0.21826  0.52217  0.55084  1.0000
  H   H1255     1.0  0.02262  0.60879  0.60323  1.0000
  H   H1256     1.0  0.38074  0.97135  0.71067  1.0000
  C   C720      1.0  0.01060  0.72198  0.67448  1.0000
  H   H1257     1.0  0.37611  0.99669  0.68719  1.0000
  H   H1258     1.0  0.32463  0.98598  0.71809  1.0000
  H   H1259     1.0  0.09829  0.60563  0.67451  1.0000
  C   C721      1.0  0.36044  0.81412  0.74692  1.0000
  H   H1260     1.0  0.12737  0.53049  0.66020  1.0000
  H   H1261     1.0  0.24244  0.54543  0.51579  1.0000
  H   H1262     1.0  0.03765  0.53995  0.56557  1.0000
  Fe  Fe82      1.0  0.49631  0.89920  0.58528  1.0000
  C   C722      1.0  0.07118  0.65617  0.65293  1.0000
  H   H1263     1.0  0.04467  0.64125  0.67050  1.0000
  H   H1264     1.0  0.08317  0.59096  0.59579  1.0000
  H   H1265     1.0  0.07445  0.65736  0.64007  1.0000
  H   H1266     1.0  0.46055  0.99866  0.56989  1.0000
  N   N40       1.0  0.09113  0.54375  0.63688  1.0000
  H   H1267     1.0  0.48931  0.95402  0.62446  1.0000
  H   H1268     1.0  0.27090  0.75036  0.74523  1.0000
  C   C723      1.0  0.08348  0.55492  0.65217  1.0000
  C   C724      1.0  0.08288  0.56204  0.62376  1.0000
  C   C725      1.0  0.08772  0.55287  0.60708  1.0000
  C   C726      1.0  0.09760  0.57931  0.65609  1.0000
  H   H1269     1.0  0.47735  0.97328  0.58048  1.0000
  H   H1270     1.0  0.29716  0.68577  0.73929  1.0000
  C   C727      1.0  0.07588  0.57140  0.59491  1.0000
  C   C728      1.0  0.08857  0.58784  0.67208  1.0000
  H   H1271     1.0  0.04477  0.52577  0.62219  1.0000
  H   H1272     1.0  0.03568  0.62530  0.62778  1.0000
  H   H1273     1.0  0.45518  0.95623  0.62488  1.0000
  H   H1274     1.0  0.12932  0.55848  0.63423  1.0000
  H   H1275     1.0  0.16876  0.54128  0.64732  1.0000
  H   H1276     1.0  0.06289  0.56008  0.65246  1.0000
  H   H1277     1.0  0.06233  0.56712  0.62527  1.0000
  H   H1278     1.0  0.09306  0.58037  0.62401  1.0000
  H   H1279     1.0  0.47590  0.98922  0.60682  1.0000
  H   H1280     1.0  0.43363  0.99928  0.61956  1.0000
  H   H1281     1.0  0.09395  0.59531  0.64739  1.0000
  H   H1282     1.0  0.11846  0.57602  0.65649  1.0000
  C   C729      1.0  0.21024  0.52101  0.53911  1.0000
  H   H1283     1.0  0.19875  0.58549  0.53733  1.0000
  H   H1284     1.0  0.29412  0.56607  0.54077  1.0000
  H   H1285     1.0  0.03945  0.53220  0.64229  1.0000
  H   H1286     1.0  0.49212  0.00112  0.62298  1.0000
  H   H1287     1.0  0.23069  0.72821  0.75345  1.0000
  C   C730      1.0  0.01523  0.62677  0.62506  1.0000
  C   C731      1.0  0.36035  0.86570  0.75284  1.0000
  H   H1288     1.0  0.00903  0.73803  0.66605  1.0000
  H   H1289     1.0  0.24557  0.50607  0.52786  1.0000
  C   C732      1.0  0.07849  0.51825  0.63634  1.0000
  H   H1290     1.0  0.17826  0.58520  0.51476  1.0000
  C   C733      1.0  0.00941  0.51539  0.57695  1.0000
  H   H1291     1.0  0.16902  0.50889  0.65548  1.0000
  H   H1292     1.0  0.08212  0.50992  0.53050  1.0000
  S   S163      1.0  0.50485  0.85832  0.58044  1.0000
  H   H1293     1.0  0.47197  0.95079  0.50468  1.0000
  H   H1294     1.0  0.08721  0.50714  0.62683  1.0000
  H   H1295     1.0  0.11771  0.51837  0.50496  1.0000
  H   H1296     1.0  0.08208  0.50629  0.64719  1.0000
  Fe  Fe83      1.0  0.39055  0.82989  0.80184  1.0000
  S   S164      1.0  0.39544  0.78731  0.80176  1.0000
  S   S165      1.0  0.37962  0.85785  0.78198  1.0000
  Fe  Fe84      1.0  0.40392  0.83170  0.83620  1.0000
  S   S166      1.0  0.40926  0.78892  0.83868  1.0000
  S   S167      1.0  0.41822  0.85707  0.85463  1.0000
  Fe  Fe85      1.0  0.43069  0.79329  0.81546  1.0000
  S   S168      1.0  0.46853  0.77313  0.80962  1.0000
  Fe  Fe86      1.0  0.37350  0.78635  0.82486  1.0000
  S   S169      1.0  0.33847  0.76211  0.83294  1.0000
  S   S170      1.0  0.42711  0.83580  0.81370  1.0000
  S   S171      1.0  0.36687  0.82916  0.82421  1.0000
  H   H1297     1.0  0.49687  0.76986  0.85109  1.0000
  Fe  Fe87      1.0  0.44334  0.96895  0.92567  1.0000
  S   S172      1.0  0.40679  0.95421  0.93670  1.0000
  S   S173      1.0  0.48078  0.94896  0.92950  1.0000
  Fe  Fe88      1.0  0.39158  0.96359  0.91278  1.0000
  S   S174      1.0  0.36730  0.93747  0.89947  1.0000
  C   C734      1.0  0.49840  0.80071  0.88258  1.0000
  H   H1298     1.0  0.23051  0.67439  0.75769  1.0000
  S   S175      1.0  0.42901  0.97521  0.90170  1.0000
  Fe  Fe89      1.0  0.21277  0.59413  0.82453  1.0000
  S   S176      1.0  0.17197  0.60752  0.82329  1.0000
  S   S177      1.0  0.22596  0.55325  0.83137  1.0000
  Fe  Fe90      1.0  0.23429  0.64899  0.81947  1.0000
  S   S178      1.0  0.19473  0.66602  0.81807  1.0000
  S   S179      1.0  0.27241  0.66847  0.81198  1.0000
  Fe  Fe91      1.0  0.18326  0.63854  0.83833  1.0000
  S   S180      1.0  0.15702  0.65325  0.85776  1.0000
  Fe  Fe92      1.0  0.18592  0.63387  0.80319  1.0000
  S   S181      1.0  0.16069  0.64316  0.78270  1.0000
  S   S182      1.0  0.22361  0.62388  0.84092  1.0000
  S   S183      1.0  0.22579  0.61820  0.80324  1.0000
  Fe  Fe93      1.0  0.02879  0.61645  0.95344  1.0000
  S   S184      1.0  0.04357  0.57946  0.94440  1.0000
  H   H1299     1.0  0.24988  0.73435  0.80029  1.0000
  H   H1300     1.0  0.30382  0.87199  0.81240  1.0000
  H   H1301     1.0  0.28467  0.62234  0.83443  1.0000
  C   C735      1.0  0.44669  0.97304  0.85380  1.0000
  Fe  Fe94      1.0  0.04866  0.60066  0.92090  1.0000
  S   S185      1.0  0.08040  0.58866  0.90376  1.0000
  S   S186      1.0  0.03668  0.63843  0.93013  1.0000
  H   H1302     1.0  0.47621  0.90167  0.89291  1.0000
  C   C736      1.0  0.14955  0.53510  0.83555  1.0000
  H   H1303     1.0  0.49475  0.88449  0.84892  1.0000
  C   C737      1.0  0.03266  0.61991  0.99635  1.0000
  N   N41       1.0  0.39798  0.97713  0.85068  1.0000
  H   H1304     1.0  0.25285  0.80253  0.81302  1.0000
  H   H1305     1.0  0.06073  0.65958  0.87919  1.0000
  C   C738      1.0  0.03203  0.55708  0.87623  1.0000
  H   H1306     1.0  0.47734  0.98304  0.00049  1.0000
  H   H1307     1.0  0.21530  0.84000  0.78764  1.0000
  C   C739      1.0  0.49000  0.86463  0.84653  1.0000
  C   C740      1.0  0.22263  0.74352  0.81840  1.0000
  H   H1308     1.0  0.31849  0.85228  0.77990  1.0000
  H   H1309     1.0  0.41667  0.79777  0.91724  1.0000
  C   C741      1.0  0.30254  0.80572  0.78557  1.0000
  H   H1310     1.0  0.20149  0.54166  0.80252  1.0000
  C   C742      1.0  0.13521  0.63505  0.87010  1.0000
  C   C743      1.0  0.12070  0.64728  0.88163  1.0000
  C   C744      1.0  0.10370  0.63349  0.89195  1.0000
  C   C745      1.0  0.10086  0.60726  0.89077  1.0000
  C   C746      1.0  0.11508  0.59509  0.87910  1.0000
  C   C747      1.0  0.13213  0.60886  0.86880  1.0000
  H   H1311     1.0  0.12298  0.66749  0.88278  1.0000
  H   H1312     1.0  0.09325  0.64307  0.90101  1.0000
  H   H1313     1.0  0.11315  0.57480  0.87812  1.0000
  H   H1314     1.0  0.14314  0.59917  0.86002  1.0000
  H   H1315     1.0  0.19422  0.71811  0.79812  1.0000
  H   H1316     1.0  0.13448  0.53263  0.82709  1.0000
  H   H1317     1.0  0.49576  0.78635  0.89253  1.0000
  C   C748      1.0  0.24599  0.68095  0.76474  1.0000
  H   H1318     1.0  0.04977  0.67588  0.85217  1.0000
  C   C749      1.0  0.39761  0.97676  0.98919  1.0000
  H   H1319     1.0  0.50423  0.84866  0.86810  1.0000
  H   H1320     1.0  0.21599  0.75277  0.76379  1.0000
  C   C750      1.0  0.32022  0.73628  0.82663  1.0000
  C   C751      1.0  0.29795  0.72885  0.83527  1.0000
  C   C752      1.0  0.28300  0.70844  0.83095  1.0000
  C   C753      1.0  0.29011  0.69495  0.81789  1.0000
  C   C754      1.0  0.31225  0.70249  0.80916  1.0000
  C   C755      1.0  0.32720  0.72292  0.81349  1.0000
  H   H1321     1.0  0.29240  0.73871  0.84557  1.0000
  H   H1322     1.0  0.26622  0.70287  0.83791  1.0000
  H   H1323     1.0  0.31816  0.69221  0.79909  1.0000
  H   H1324     1.0  0.34442  0.72797  0.80684  1.0000
  H   H1325     1.0  0.04494  0.64024  0.89458  1.0000
  C   C756      1.0  0.07478  0.50890  0.94241  1.0000
  H   H1326     1.0  0.22087  0.76395  0.81441  1.0000
  C   C757      1.0  0.25064  0.82072  0.78069  1.0000
  H   H1327     1.0  0.29462  0.52562  0.78257  1.0000
  C   C758      1.0  0.25511  0.74686  0.76907  1.0000
  H   H1328     1.0  0.20440  0.74828  0.79003  1.0000
  C   C759      1.0  0.30641  0.87434  0.79953  1.0000
  C   C760      1.0  0.14750  0.71408  0.76344  1.0000
  C   C761      1.0  0.40321  0.87945  0.86673  1.0000
  C   C762      1.0  0.37693  0.88413  0.86711  1.0000
  C   C763      1.0  0.36614  0.90195  0.87718  1.0000
  C   C764      1.0  0.38148  0.91526  0.88691  1.0000
  C   C765      1.0  0.40777  0.91075  0.88635  1.0000
  C   C766      1.0  0.41850  0.89294  0.87634  1.0000
  H   H1329     1.0  0.36492  0.87385  0.85979  1.0000
  H   H1330     1.0  0.34578  0.90531  0.87754  1.0000
  H   H1331     1.0  0.41976  0.92068  0.89384  1.0000
  H   H1332     1.0  0.43878  0.88944  0.87614  1.0000
  H   H1333     1.0  0.20409  0.73680  0.82360  1.0000
  H   H1334     1.0  0.32175  0.91226  0.80071  1.0000
  H   H1335     1.0  0.05430  0.51384  0.94174  1.0000
  H   H1336     1.0  0.44984  0.95204  0.85392  1.0000
  C   C767      1.0  0.46216  0.93352  0.97199  1.0000
  C   C768      1.0  0.16277  0.50963  0.83978  1.0000
  C   C769      1.0  0.49985  0.77970  0.81536  1.0000
  H   H1337     1.0  0.49247  0.81376  0.85082  1.0000
  C   C770      1.0  0.45668  0.96176  0.97412  1.0000
  H   H1338     1.0  0.41667  0.94903  0.83654  1.0000
  C   C771      1.0  0.27253  0.79825  0.81658  1.0000
  H   H1339     1.0  0.03546  0.53969  0.86970  1.0000
  H   H1340     1.0  0.25776  0.69454  0.75734  1.0000
  S   S187      1.0  0.37966  0.00392  0.91806  1.0000
  H   H1341     1.0  0.03812  0.66119  0.83540  1.0000
  C   C772      1.0  0.26288  0.65779  0.76902  1.0000
  H   H1342     1.0  0.22841  0.85078  0.76862  1.0000
  H   H1343     1.0  0.16667  0.73585  0.77941  1.0000
  H   H1344     1.0  0.32731  0.99897  0.87150  1.0000
  H   H1345     1.0  0.33130  0.84179  0.79804  1.0000
  H   H1346     1.0  0.40926  0.99006  0.82694  1.0000
  H   H1347     1.0  0.18622  0.69058  0.77828  1.0000
  H   H1348     1.0  0.37118  0.95895  0.82615  1.0000
  H   H1349     1.0  0.47605  0.73482  0.83919  1.0000
  H   H1350     1.0  0.05235  0.68314  0.90274  1.0000
  C   C773      1.0  0.26892  0.83922  0.78798  1.0000
  C   C774      1.0  0.49967  0.99339  0.91599  1.0000
  S   S188      1.0  0.00928  0.59152  0.91389  1.0000
  H   H1351     1.0  0.28814  0.79051  0.78610  1.0000
  C   C775      1.0  0.38244  0.91936  0.82612  1.0000
  H   H1352     1.0  0.32587  0.78555  0.80329  1.0000
  H   H1353     1.0  0.34498  0.98636  0.88800  1.0000
  C   C776      1.0  0.02072  0.65112  0.87480  1.0000
  C   C777      1.0  0.22180  0.52463  0.82187  1.0000
  H   H1354     1.0  0.25933  0.81430  0.76959  1.0000
  H   H1355     1.0  0.33138  0.89665  0.78327  1.0000
  C   C778      1.0  0.36970  0.82178  0.76100  1.0000
  C   C779      1.0  0.31340  0.84840  0.79253  1.0000
  H   H1356     1.0  0.03514  0.70881  0.99763  1.0000
  H   H1357     1.0  0.28182  0.83744  0.81799  1.0000
  C   C780      1.0  0.22530  0.83387  0.77685  1.0000
  H   H1358     1.0  0.47182  0.93075  0.96053  1.0000
  H   H1359     1.0  0.23690  0.74156  0.82760  1.0000
  H   H1360     1.0  0.36264  0.59606  0.77634  1.0000
  H   H1361     1.0  0.35232  0.76082  0.78486  1.0000
  H   H1362     1.0  0.40144  0.93594  0.85394  1.0000
  H   H1363     1.0  0.27332  0.85382  0.77830  1.0000
  H   H1364     1.0  0.45921  0.83269  0.88783  1.0000
  C   C781      1.0  0.39855  0.99719  0.83726  1.0000
  N   N42       1.0  0.47959  0.00429  0.97794  1.0000
  H   H1365     1.0  0.29050  0.78938  0.83881  1.0000
  H   H1366     1.0  0.27943  0.66350  0.77561  1.0000
  C   C782      1.0  0.42002  0.97886  0.86126  1.0000
  H   H1367     1.0  0.34375  0.80556  0.78935  1.0000
  C   C783      1.0  0.37338  0.97886  0.86025  1.0000
  H   H1368     1.0  0.25264  0.69869  0.78579  1.0000
  H   H1369     1.0  0.44396  0.92301  0.97253  1.0000
  H   H1370     1.0  0.44823  0.73804  0.85180  1.0000
  C   C784      1.0  0.04248  0.65636  0.88581  1.0000
  H   H1371     1.0  0.17838  0.51355  0.84763  1.0000
  C   C785      1.0  0.32751  0.79244  0.79089  1.0000
  C   C786      1.0  0.19370  0.70672  0.77052  1.0000
  C   C787      1.0  0.03672  0.68020  0.89473  1.0000
  C   C788      1.0  0.33379  0.76937  0.78135  1.0000
  H   H1372     1.0  0.08019  0.68044  0.82981  1.0000
  H   H1373     1.0  0.39812  0.92280  0.81726  1.0000
  H   H1374     1.0  0.46925  0.93524  0.89099  1.0000
  C   C789      1.0  0.27122  0.79332  0.83431  1.0000
  H   H1375     1.0  0.04492  0.60634  0.88148  1.0000
  H   H1376     1.0  0.36021  0.88572  0.75512  1.0000
  H   H1377     1.0  0.47837  0.72761  0.85985  1.0000
  H   H1378     1.0  0.36533  0.91375  0.82007  1.0000
  H   H1379     1.0  0.37218  0.96250  0.86908  1.0000
  C   C790      1.0  0.32750  0.89369  0.79604  1.0000
  H   H1380     1.0  0.14107  0.54345  0.84616  1.0000
  H   H1381     1.0  0.35674  0.97727  0.85280  1.0000
  S   S189      1.0  0.04486  0.62619  0.97687  1.0000
  H   H1382     1.0  0.04698  0.55789  0.88496  1.0000
  C   C791      1.0  0.37645  0.94341  0.83481  1.0000
  H   H1383     1.0  0.01363  0.54859  0.98467  1.0000
  H   H1384     1.0  0.09373  0.66102  0.84549  1.0000
  C   C792      1.0  0.34381  0.00208  0.87881  1.0000
  C   C793      1.0  0.16951  0.64350  0.76263  1.0000
  H   H1385     1.0  0.49205  0.81775  0.82228  1.0000
  H   H1386     1.0  0.34523  0.88692  0.80168  1.0000
  C   C794      1.0  0.04967  0.63369  0.85407  1.0000
  H   H1387     1.0  0.02345  0.67729  0.99530  1.0000
  C   C795      1.0  0.05229  0.65958  0.84464  1.0000
  N   N43       1.0  0.47458  0.80318  0.87332  1.0000
  C   C796      1.0  0.08903  0.52495  0.92955  1.0000
  C   C797      1.0  0.46610  0.77728  0.86879  1.0000
  C   C798      1.0  0.45359  0.81419  0.88350  1.0000
  C   C799      1.0  0.48611  0.84876  0.86191  1.0000
  H   H1388     1.0  0.44779  0.96288  0.98591  1.0000
  H   H1389     1.0  0.30538  0.81191  0.77298  1.0000
  C   C800      1.0  0.44505  0.79746  0.89822  1.0000
  H   H1390     1.0  0.01138  0.60264  0.88170  1.0000
  H   H1391     1.0  0.02731  0.54139  0.92058  1.0000
  C   C801      1.0  0.42243  0.80988  0.90670  1.0000
  H   H1392     1.0  0.46012  0.82239  0.85249  1.0000
  H   H1393     1.0  0.44258  0.96857  0.96543  1.0000
  H   H1394     1.0  0.47093  0.76223  0.87794  1.0000
  H   H1395     1.0  0.44495  0.77696  0.86809  1.0000
  H   H1396     1.0  0.43639  0.81835  0.87651  1.0000
  C   C802      1.0  0.17163  0.72661  0.76843  1.0000
  H   H1397     1.0  0.39875  0.96248  0.98064  1.0000
  H   H1398     1.0  0.05171  0.61885  0.84540  1.0000
  C   C803      1.0  0.03284  0.58077  0.86496  1.0000
  H   H1399     1.0  0.28476  0.77111  0.75833  1.0000
  H   H1400     1.0  0.27965  0.78050  0.81144  1.0000
  H   H1401     1.0  0.10991  0.52193  0.93032  1.0000
  C   C804      1.0  0.48175  0.91987  0.88651  1.0000
  H   H1402     1.0  0.14113  0.69903  0.77233  1.0000
  C   C805      1.0  0.39939  0.95093  0.84428  1.0000
  H   H1403     1.0  0.47859  0.91863  0.87388  1.0000
  N   N44       1.0  0.29333  0.82808  0.79459  1.0000
  H   H1404     1.0  0.30876  0.81701  0.81709  1.0000
  H   H1405     1.0  0.47129  0.85876  0.86881  1.0000
  H   H1406     1.0  0.43909  0.77826  0.89523  1.0000
  C   C806      1.0  0.47603  0.76818  0.85281  1.0000
  C   C807      1.0  0.47802  0.82119  0.85906  1.0000
  H   H1407     1.0  0.46068  0.79514  0.90653  1.0000
  H   H1408     1.0  0.40591  0.81200  0.89899  1.0000
  N   N45       1.0  0.29541  0.56928  0.79976  1.0000
  C   C808      1.0  0.32262  0.57547  0.79514  1.0000
  C   C809      1.0  0.29413  0.54178  0.80591  1.0000
  C   C810      1.0  0.27930  0.57410  0.78566  1.0000
  C   C811      1.0  0.28540  0.58593  0.81240  1.0000
  C   C812      1.0  0.30200  0.58685  0.82692  1.0000
  C   C813      1.0  0.32754  0.60377  0.78972  1.0000
  C   C814      1.0  0.25241  0.56229  0.78687  1.0000
  H   H1409     1.0  0.19730  0.69883  0.75892  1.0000
  H   H1410     1.0  0.37723  0.80772  0.76937  1.0000
  C   C815      1.0  0.28903  0.60274  0.83930  1.0000
  C   C816      1.0  0.35578  0.60811  0.78586  1.0000
  C   C817      1.0  0.23672  0.57103  0.77287  1.0000
  H   H1411     1.0  0.32936  0.56389  0.78534  1.0000
  H   H1412     1.0  0.33541  0.56985  0.80484  1.0000
  H   H1413     1.0  0.30648  0.53825  0.81603  1.0000
  H   H1414     1.0  0.27460  0.53728  0.81067  1.0000
  H   H1415     1.0  0.28915  0.56714  0.77501  1.0000
  H   H1416     1.0  0.27659  0.59499  0.78307  1.0000
  H   H1417     1.0  0.28231  0.60595  0.80773  1.0000
  H   H1418     1.0  0.26625  0.57960  0.81668  1.0000
  H   H1419     1.0  0.32067  0.59560  0.82377  1.0000
  H   H1420     1.0  0.30538  0.56757  0.83247  1.0000
  H   H1421     1.0  0.31695  0.60927  0.77907  1.0000
  H   H1422     1.0  0.32160  0.61691  0.79884  1.0000
  H   H1423     1.0  0.24195  0.56768  0.79759  1.0000
  H   H1424     1.0  0.25357  0.54116  0.78721  1.0000
  C   C818      1.0  0.36942  0.84758  0.76408  1.0000
  H   H1425     1.0  0.01868  0.67803  0.90179  1.0000
  H   H1426     1.0  0.25926  0.77652  0.83758  1.0000
  H   H1427     1.0  0.30176  0.60415  0.84921  1.0000
  C   C819      1.0  0.00664  0.61711  0.99986  1.0000
  H   H1428     1.0  0.27116  0.59350  0.84382  1.0000
  H   H1429     1.0  0.35876  0.62844  0.78197  1.0000
  H   H1430     1.0  0.36718  0.60363  0.79633  1.0000
  C   C820      1.0  0.22906  0.73599  0.76521  1.0000
  H   H1431     1.0  0.21745  0.56265  0.77424  1.0000
  H   H1432     1.0  0.23451  0.59211  0.77200  1.0000
  H   H1433     1.0  0.48674  0.97929  0.85733  1.0000
  H   H1434     1.0  0.23370  0.70761  0.80978  1.0000
  H   H1435     1.0  0.25189  0.64331  0.77624  1.0000
  C   C821      1.0  0.21083  0.72811  0.79221  1.0000
  C   C822      1.0  0.23114  0.72747  0.80487  1.0000
  H   H1436     1.0  0.32373  0.52146  0.79269  1.0000
  H   H1437     1.0  0.00879  0.61828  0.84273  1.0000
  H   H1438     1.0  0.22593  0.67873  0.78738  1.0000
  H   H1439     1.0  0.42752  0.82900  0.91038  1.0000
  H   H1440     1.0  0.25252  0.75966  0.77881  1.0000
  C   C823      1.0  0.07872  0.66189  0.83668  1.0000
  C   C824      1.0  0.23556  0.69363  0.77956  1.0000
  H   H1441     1.0  0.04728  0.51187  0.90239  1.0000
  N   N46       1.0  0.21789  0.71636  0.77693  1.0000
  H   H1442     1.0  0.16373  0.54864  0.83008  1.0000
  H   H1443     1.0  0.08228  0.64634  0.82864  1.0000
  H   H1444     1.0  0.38799  0.90328  0.83436  1.0000
  H   H1445     1.0  0.26912  0.73165  0.77235  1.0000
  H   H1446     1.0  0.06665  0.63074  0.86140  1.0000
  C   C825      1.0  0.46798  0.98423  0.86278  1.0000
  C   C826      1.0  0.28995  0.82103  0.81182  1.0000
  H   H1447     1.0  0.35974  0.93915  0.84279  1.0000
  H   H1448     1.0  0.31892  0.75467  0.78342  1.0000
  H   H1449     1.0  0.05187  0.58097  0.85891  1.0000
  H   H1450     1.0  0.48577  0.97874  0.95912  1.0000
  H   H1451     1.0  0.26277  0.81005  0.84002  1.0000
  H   H1452     1.0  0.08315  0.52007  0.91786  1.0000
  H   H1453     1.0  0.42059  0.99780  0.86628  1.0000
  H   H1454     1.0  0.24650  0.80363  0.78844  1.0000
  H   H1455     1.0  0.50207  0.81889  0.88804  1.0000
  H   H1456     1.0  0.08475  0.54550  0.93081  1.0000
  H   H1457     1.0  0.44987  0.00185  0.99620  1.0000
  C   C827      1.0  0.01894  0.52303  0.91947  1.0000
  C   C828      1.0  0.46919  0.74043  0.85089  1.0000
  H   H1458     1.0  0.28871  0.88281  0.79469  1.0000
  H   H1459     1.0  0.01667  0.66949  0.86825  1.0000
  C   C829      1.0  0.20935  0.52419  0.80781  1.0000
  H   H1460     1.0  0.41737  0.96501  0.87149  1.0000
  H   H1461     1.0  0.47434  0.92531  0.98136  1.0000
  H   H1462     1.0  0.24592  0.56467  0.76191  1.0000
  C   C830      1.0  0.30266  0.52168  0.79420  1.0000
  H   H1463     1.0  0.25792  0.84964  0.79698  1.0000
  H   H1464     1.0  0.47232  0.86515  0.83981  1.0000
  H   H1465     1.0  0.46744  0.97646  0.87508  1.0000
  C   C831      1.0  0.02849  0.60543  0.87385  1.0000
  H   H1466     1.0  0.20802  0.63039  0.76568  1.0000
  C   C832      1.0  0.03042  0.50621  0.90925  1.0000
  H   H1467     1.0  0.33530  0.77513  0.76871  1.0000
  H   H1468     1.0  0.49708  0.96676  0.97747  1.0000
  H   H1469     1.0  0.44838  0.98070  0.84151  1.0000
  H   H1470     1.0  0.03521  0.69732  0.88656  1.0000
  H   H1471     1.0  0.01317  0.55554  0.88242  1.0000
  H   H1472     1.0  0.48052  0.99793  0.91251  1.0000
  H   H1473     1.0  0.47781  0.82335  0.78829  1.0000
  H   H1474     1.0  0.46693  0.77991  0.84333  1.0000
  Fe  Fe95      1.0  0.39844  0.99537  0.94129  1.0000
  C   C833      1.0  0.19399  0.63658  0.75735  1.0000
  C   C834      1.0  0.49128  0.82838  0.77835  1.0000
  C   C835      1.0  0.39146  0.00200  0.98447  1.0000
  C   C836      1.0  0.36849  0.00359  0.86885  1.0000
  C   C837      1.0  0.47108  0.00180  0.99503  1.0000
  H   H1475     1.0  0.08144  0.51483  0.95370  1.0000
  C   C838      1.0  0.48122  0.97784  0.97190  1.0000
  C   C839      1.0  0.02381  0.69300  0.00338  1.0000
  H   H1476     1.0  0.01818  0.57866  0.85622  1.0000
  H   H1477     1.0  0.48945  0.84917  0.77535  1.0000
  H   H1478     1.0  0.37891  0.00108  0.83318  1.0000
  H   H1479     1.0  0.13199  0.72858  0.76214  1.0000
  H   H1480     1.0  0.27003  0.64890  0.75830  1.0000
  N   N47       1.0  0.02550  0.62990  0.86390  1.0000
  H   H1481     1.0  0.48584  0.81766  0.76827  1.0000
  H   H1482     1.0  0.21293  0.82042  0.77128  1.0000
  H   H1483     1.0  0.17678  0.74167  0.75931  1.0000
  H   H1484     1.0  0.13234  0.65660  0.75568  1.0000
  C   C840      1.0  0.26665  0.76262  0.75510  1.0000
  H   H1485     1.0  0.46604  0.00536  0.86261  1.0000
  C   C841      1.0  0.88685  0.40432  0.22543  1.0000
  H   H1486     1.0  0.94656  0.46158  0.10784  1.0000
  S   S190      1.0  0.64512  0.04645  0.06530  1.0000
  C   C842      1.0  0.84284  0.47620  0.23004  1.0000
  H   H1487     1.0  0.54334  0.21588  0.13144  1.0000
  H   H1488     1.0  0.57112  0.15550  0.25223  1.0000
  Fe  Fe96      1.0  0.65883  0.03293  0.08900  1.0000
  S   S191      1.0  0.68312  0.05580  0.10439  1.0000
  H   H1489     1.0  0.92282  0.47510  0.09490  1.0000
  Fe  Fe97      1.0  0.67998  0.21594  0.17089  1.0000
  S   S192      1.0  0.68653  0.17349  0.17018  1.0000
  S   S193      1.0  0.71335  0.23989  0.16041  1.0000
  Fe  Fe98      1.0  0.62360  0.20794  0.18177  1.0000
  S   S194      1.0  0.62704  0.16542  0.18189  1.0000
  S   S195      1.0  0.58555  0.22772  0.18713  1.0000
  Fe  Fe99      1.0  0.66447  0.17075  0.19310  1.0000
  S   S196      1.0  0.67813  0.14218  0.21193  1.0000
  Fe  Fe100     1.0  0.64879  0.17176  0.15902  1.0000
  S   S197      1.0  0.63650  0.15257  0.13741  1.0000
  S   S198      1.0  0.65990  0.21318  0.19460  1.0000
  S   S199      1.0  0.64326  0.21438  0.15828  1.0000
  H   H1490     1.0  0.80104  0.19984  0.12094  1.0000
  C   C843      1.0  0.60054  0.22534  0.23224  1.0000
  S   S200      1.0  0.98065  0.33586  0.10523  1.0000
  Fe  Fe101     1.0  0.86035  0.35414  0.19394  1.0000
  S   S201      1.0  0.82403  0.37453  0.19970  1.0000
  S   S202      1.0  0.88448  0.33510  0.21278  1.0000
  Fe  Fe102     1.0  0.85682  0.36854  0.15896  1.0000
  S   S203      1.0  0.81927  0.38944  0.16266  1.0000
  S   S204      1.0  0.87435  0.37428  0.13438  1.0000
  Fe  Fe103     1.0  0.83779  0.40619  0.18281  1.0000
  S   S205      1.0  0.84521  0.44655  0.18997  1.0000
  Fe  Fe104     1.0  0.80888  0.35546  0.17910  1.0000
  S   S206      1.0  0.77071  0.33579  0.18509  1.0000
  S   S207      1.0  0.87539  0.38663  0.17835  1.0000
  S   S208      1.0  0.84515  0.33359  0.17407  1.0000
  C   C844      1.0  0.87567  0.33607  0.23278  1.0000
  C   C845      1.0  0.89286  0.32695  0.24401  1.0000
  C   C846      1.0  0.55783  0.19282  0.22694  1.0000
  C   C847      1.0  0.85156  0.34470  0.23769  1.0000
  H   H1491     1.0  0.91150  0.32007  0.24032  1.0000
  C   C848      1.0  0.56540  0.15730  0.14511  1.0000
  H   H1492     1.0  0.83806  0.35140  0.22919  1.0000
  C   C849      1.0  0.81077  0.47979  0.17494  1.0000
  C   C850      1.0  0.83181  0.47687  0.18440  1.0000
  H   H1493     1.0  0.80220  0.46316  0.17063  1.0000
  C   C851      1.0  0.77586  0.33431  0.22831  1.0000
  C   C852      1.0  0.95195  0.34794  0.11378  1.0000
  C   C853      1.0  0.93765  0.36731  0.10616  1.0000
  C   C854      1.0  0.91418  0.37539  0.11279  1.0000
  C   C855      1.0  0.90492  0.36460  0.12723  1.0000
  C   C856      1.0  0.91960  0.34586  0.13512  1.0000
  C   C857      1.0  0.94286  0.33739  0.12833  1.0000
  H   H1494     1.0  0.94433  0.37556  0.09495  1.0000
  H   H1495     1.0  0.90292  0.38977  0.10652  1.0000
  H   H1496     1.0  0.91267  0.33729  0.14619  1.0000
  H   H1497     1.0  0.95375  0.32238  0.13430  1.0000
  H   H1498     1.0  0.95923  0.31128  0.02090  1.0000
  C   C858      1.0  0.52441  0.16702  0.13336  1.0000
  C   C859      1.0  0.72906  0.26649  0.16756  1.0000
  C   C860      1.0  0.72194  0.27667  0.18178  1.0000
  C   C861      1.0  0.73484  0.29785  0.18687  1.0000
  C   C862      1.0  0.75527  0.30900  0.17798  1.0000
  C   C863      1.0  0.76249  0.29873  0.16381  1.0000
  C   C864      1.0  0.74941  0.27771  0.15863  1.0000
  H   H1499     1.0  0.70629  0.26842  0.18877  1.0000
  H   H1500     1.0  0.72883  0.30575  0.19776  1.0000
  H   H1501     1.0  0.77797  0.30717  0.15675  1.0000
  H   H1502     1.0  0.75510  0.27012  0.14760  1.0000
  C   C865      1.0  0.67958  0.14981  0.23162  1.0000
  H   H1503     1.0  0.98524  0.39032  0.12053  1.0000
  H   H1504     1.0  0.53429  0.16205  0.21935  1.0000
  H   H1505     1.0  0.81577  0.23531  0.22550  1.0000
  C   C866      1.0  0.67334  0.17424  0.23630  1.0000
  S   S209      1.0  0.57148  0.04968  0.06951  1.0000
  H   H1506     1.0  0.61188  0.12287  0.20392  1.0000
  H   H1507     1.0  0.66847  0.18919  0.22769  1.0000
  C   C867      1.0  0.55579  0.21376  0.18396  1.0000
  C   C868      1.0  0.55362  0.18744  0.18298  1.0000
  C   C869      1.0  0.52980  0.17679  0.18059  1.0000
  C   C870      1.0  0.60378  0.19767  0.22697  1.0000
  C   C871      1.0  0.53370  0.22919  0.18294  1.0000
  H   H1508     1.0  0.57032  0.17527  0.18397  1.0000
  H   H1509     1.0  0.53509  0.24956  0.18387  1.0000
  C   C872      1.0  0.66942  0.08191  0.11407  1.0000
  C   C873      1.0  0.64621  0.09297  0.10964  1.0000
  C   C874      1.0  0.63639  0.11447  0.11701  1.0000
  C   C875      1.0  0.64936  0.12485  0.12908  1.0000
  C   C876      1.0  0.67230  0.11348  0.13376  1.0000
  C   C877      1.0  0.68242  0.09228  0.12616  1.0000
  H   H1510     1.0  0.63607  0.08526  0.10032  1.0000
  H   H1511     1.0  0.61868  0.12314  0.11325  1.0000
  H   H1512     1.0  0.68229  0.12107  0.14315  1.0000
  H   H1513     1.0  0.70036  0.08382  0.12970  1.0000
  C   C878      1.0  0.80847  0.27520  0.19923  1.0000
  H   H1514     1.0  0.64034  0.22978  0.23783  1.0000
  H   H1515     1.0  0.55364  0.20992  0.23369  1.0000
  H   H1516     1.0  0.87164  0.39263  0.22101  1.0000
  N   N48       1.0  0.55191  0.17522  0.13361  1.0000
  H   H1517     1.0  0.55983  0.20018  0.21457  1.0000
  H   H1518     1.0  0.57345  0.03340  0.00800  1.0000
  N   N49       1.0  0.88497  0.46583  0.13976  1.0000
  C   C879      1.0  0.86600  0.44524  0.13758  1.0000
  C   C880      1.0  0.90106  0.45756  0.15341  1.0000
  H   H1519     1.0  0.79955  0.44446  0.23469  1.0000
  C   C881      1.0  0.90144  0.47219  0.12525  1.0000
  C   C882      1.0  0.90757  0.45027  0.11423  1.0000
  C   C883      1.0  0.84481  0.45255  0.12596  1.0000
  H   H1520     1.0  0.59773  0.11808  0.15599  1.0000
  C   C884      1.0  0.91827  0.43366  0.15149  1.0000
  C   C885      1.0  0.93256  0.42666  0.16634  1.0000
  H   H1521     1.0  0.76539  0.41307  0.23662  1.0000
  C   C886      1.0  0.83220  0.42895  0.12037  1.0000
  H   H1522     1.0  0.85865  0.49692  0.13405  1.0000
  H   H1523     1.0  0.85626  0.43927  0.14895  1.0000
  H   H1524     1.0  0.87566  0.42766  0.13383  1.0000
  C   C887      1.0  0.99684  0.42931  0.12379  1.0000
  H   H1525     1.0  0.88864  0.45413  0.16413  1.0000
  C   C888      1.0  0.55164  0.00770  0.08563  1.0000
  C   C889      1.0  0.67337  0.17930  0.25218  1.0000
  H   H1526     1.0  0.80992  0.49688  0.23939  1.0000
  H   H1527     1.0  0.55719  0.15933  0.15701  1.0000
  H   H1528     1.0  0.89047  0.44572  0.10782  1.0000
  H   H1529     1.0  0.91376  0.43240  0.12054  1.0000
  H   H1530     1.0  0.82981  0.46415  0.13180  1.0000
  H   H1531     1.0  0.85237  0.46402  0.11561  1.0000
  C   C890      1.0  0.52752  0.09200  0.10862  1.0000
  H   H1532     1.0  0.77754  0.20863  0.23569  1.0000
  H   H1533     1.0  0.90711  0.41683  0.14887  1.0000
  H   H1534     1.0  0.93294  0.43757  0.14211  1.0000
  H   H1535     1.0  0.94545  0.44225  0.16893  1.0000
  H   H1536     1.0  0.91898  0.42302  0.17637  1.0000
  H   H1537     1.0  0.94412  0.40903  0.16479  1.0000
  C   C891      1.0  0.82931  0.50090  0.23437  1.0000
  C   C892      1.0  0.80430  0.42480  0.23924  1.0000
  H   H1538     1.0  0.70893  0.11652  0.09723  1.0000
  H   H1539     1.0  0.82413  0.41707  0.13043  1.0000
  H   H1540     1.0  0.81656  0.43481  0.11254  1.0000
  H   H1541     1.0  0.84625  0.41726  0.11382  1.0000
  H   H1542     1.0  0.56965  0.14248  0.22666  1.0000
  C   C893      1.0  0.57929  0.24068  0.14386  1.0000
  H   H1543     1.0  0.62230  0.19000  0.23096  1.0000
  H   H1544     1.0  0.92407  0.41769  0.21673  1.0000
  C   C894      1.0  0.54658  0.03036  0.07682  1.0000
  H   H1545     1.0  0.62951  0.10578  0.21882  1.0000
  C   C895      1.0  0.78003  0.30656  0.22433  1.0000
  H   H1546     1.0  0.52838  0.15642  0.17971  1.0000
  H   H1547     1.0  0.86244  0.46592  0.25118  1.0000
  H   H1548     1.0  0.85370  0.28864  0.23854  1.0000
  C   C896      1.0  0.68646  0.13070  0.24289  1.0000
  H   H1549     1.0  0.86154  0.48151  0.22443  1.0000
  H   H1550     1.0  0.85599  0.48473  0.15374  1.0000
  H   H1551     1.0  0.91426  0.47291  0.15598  1.0000
  H   H1552     1.0  0.62712  0.15103  0.22394  1.0000
  C   C897      1.0  0.55498  0.08192  0.10834  1.0000
  C   C898      1.0  0.84698  0.45777  0.24457  1.0000
  H   H1553     1.0  0.91983  0.48022  0.12852  1.0000
  H   H1554     1.0  0.70842  0.13894  0.08040  1.0000
  H   H1555     1.0  0.56632  0.24497  0.15389  1.0000
  H   H1556     1.0  0.57751  0.09197  0.15232  1.0000
  S   S210      1.0  0.98602  0.38430  0.06744  1.0000
  H   H1557     1.0  0.69142  0.11178  0.23934  1.0000
  C   C899      1.0  0.78494  0.40704  0.23296  1.0000
  C   C900      1.0  0.92854  0.45783  0.10211  1.0000
  C   C901      1.0  0.61159  0.11664  0.21648  1.0000
  H   H1558     1.0  0.64122  0.22357  0.12121  1.0000
  H   H1559     1.0  0.84689  0.25528  0.24071  1.0000
  H   H1560     1.0  0.89446  0.27887  0.22400  1.0000
  C   C902      1.0  0.56529  0.17307  0.11789  1.0000
  H   H1561     1.0  0.59858  0.24734  0.14630  1.0000
  H   H1562     1.0  0.87150  0.44115  0.21878  1.0000
  H   H1563     1.0  0.63235  0.24167  0.21835  1.0000
  H   H1564     1.0  0.57269  0.25141  0.13319  1.0000
  C   C903      1.0  0.84434  0.27174  0.21651  1.0000
  H   H1565     1.0  0.65911  0.04226  0.01988  1.0000
  C   C904      1.0  0.85596  0.27034  0.23292  1.0000
  C   C905      1.0  0.87623  0.43075  0.22997  1.0000
  H   H1566     1.0  0.57594  0.12494  0.13090  1.0000
  H   H1567     1.0  0.69906  0.04140  0.24787  1.0000
  H   H1568     1.0  0.52299  0.09862  0.09652  1.0000
  C   C906      1.0  0.77667  0.24451  0.22145  1.0000
  C   C907      1.0  0.81836  0.25223  0.19004  1.0000
  H   H1569     1.0  0.73534  0.11767  0.08330  1.0000
  C   C908      1.0  0.80377  0.24963  0.17523  1.0000
  C   C909      1.0  0.88450  0.26435  0.23185  1.0000
  H   H1570     1.0  0.77780  0.23477  0.21034  1.0000
  H   H1571     1.0  0.83869  0.25504  0.18642  1.0000
  H   H1572     1.0  0.81695  0.23402  0.19723  1.0000
  C   C910      1.0  0.66180  0.22745  0.11911  1.0000
  C   C911      1.0  0.76507  0.22578  0.23395  1.0000
  C   C912      1.0  0.72073  0.12945  0.08932  1.0000
  H   H1573     1.0  0.80595  0.26709  0.16737  1.0000
  H   H1574     1.0  0.81142  0.23313  0.16897  1.0000
  H   H1575     1.0  0.78326  0.24642  0.17812  1.0000
  H   H1576     1.0  0.74626  0.21952  0.23024  1.0000
  H   H1577     1.0  0.58840  0.20249  0.15219  1.0000
  H   H1578     1.0  0.85929  0.49680  0.19691  1.0000
  C   C913      1.0  0.50961  0.19259  0.22575  1.0000
  H   H1579     1.0  0.51760  0.05524  0.06709  1.0000
  H   H1580     1.0  0.75527  0.33806  0.23065  1.0000
  C   C914      1.0  0.87008  0.48946  0.14402  1.0000
  C   C915      1.0  0.83183  0.41726  0.23399  1.0000
  H   H1581     1.0  0.56198  0.15403  0.11341  1.0000
  H   H1582     1.0  0.78228  0.34735  0.21835  1.0000
  H   H1583     1.0  0.66464  0.23644  0.10716  1.0000
  H   H1584     1.0  0.85368  0.28763  0.20933  1.0000
  N   N50       1.0  0.85339  0.43046  0.24121  1.0000
  H   H1585     1.0  0.89258  0.26469  0.24358  1.0000
  H   H1586     1.0  0.78649  0.33849  0.23874  1.0000
  H   H1587     1.0  0.78756  0.27683  0.19813  1.0000
  H   H1588     1.0  0.91431  0.38821  0.20919  1.0000
  H   H1589     1.0  0.58479  0.16026  0.21068  1.0000
  H   H1590     1.0  0.76980  0.30384  0.21358  1.0000
  H   H1591     1.0  0.90006  0.41796  0.20217  1.0000
  H   H1592     1.0  0.76319  0.26073  0.21985  1.0000
  C   C916      1.0  0.60271  0.06611  0.02141  1.0000
  H   H1593     1.0  0.83148  0.46726  0.22130  1.0000
  C   C917      1.0  0.52148  0.03773  0.07394  1.0000
  H   H1594     1.0  0.98536  0.48794  0.03455  1.0000
  H   H1595     1.0  0.85085  0.25388  0.21122  1.0000
  H   H1596     1.0  0.77135  0.29437  0.23405  1.0000
  N   N51       1.0  0.81568  0.27459  0.21609  1.0000
  C   C918      1.0  0.55322  0.20178  0.13931  1.0000
  H   H1597     1.0  0.53775  0.18987  0.10160  1.0000
  C   C919      1.0  0.90763  0.40734  0.21259  1.0000
  H   H1598     1.0  0.70909  0.21924  0.10764  1.0000
  N   N52       1.0  0.72309  0.18382  0.11868  1.0000
  C   C920      1.0  0.74974  0.19279  0.11443  1.0000
  C   C921      1.0  0.71376  0.16672  0.10658  1.0000
  C   C922      1.0  0.70601  0.20728  0.11870  1.0000
  C   C923      1.0  0.72126  0.17051  0.13472  1.0000
  C   C924      1.0  0.73893  0.14694  0.13758  1.0000
  C   C925      1.0  0.76145  0.21088  0.12580  1.0000
  C   C926      1.0  0.67703  0.20245  0.12088  1.0000
  C   C927      1.0  0.73369  0.14919  0.09856  1.0000
  H   H1599     1.0  0.80254  0.25748  0.23838  1.0000
  C   C928      1.0  0.73840  0.13762  0.15477  1.0000
  C   C929      1.0  0.78889  0.21736  0.12079  1.0000
  H   H1600     1.0  0.54259  0.20262  0.15072  1.0000
  H   H1601     1.0  0.75013  0.20282  0.10262  1.0000
  H   H1602     1.0  0.76328  0.17654  0.11342  1.0000
  H   H1603     1.0  0.69803  0.15450  0.11169  1.0000
  H   H1604     1.0  0.70523  0.17837  0.09676  1.0000
  Fe  Fe105     1.0  0.65408  0.00674  0.05789  1.0000
  H   H1605     1.0  0.71072  0.21949  0.12829  1.0000
  H   H1606     1.0  0.72448  0.18423  0.14380  1.0000
  H   H1607     1.0  0.70161  0.16360  0.13730  1.0000
  H   H1608     1.0  0.75899  0.15114  0.13416  1.0000
  H   H1609     1.0  0.73232  0.13094  0.13100  1.0000
  H   H1610     1.0  0.75068  0.22921  0.12605  1.0000
  H   H1611     1.0  0.76172  0.20197  0.13782  1.0000
  H   H1612     1.0  0.67274  0.19378  0.13271  1.0000
  H   H1613     1.0  0.67002  0.18960  0.11228  1.0000
  H   H1614     1.0  0.74608  0.16087  0.09026  1.0000
  H   H1615     1.0  0.74610  0.13878  0.10695  1.0000
  H   H1616     1.0  0.81797  0.31569  0.21499  1.0000
  H   H1617     1.0  0.81603  0.30149  0.23427  1.0000
  Fe  Fe106     1.0  0.60835  0.02975  0.07475  1.0000
  H   H1618     1.0  0.75173  0.12113  0.15647  1.0000
  H   H1619     1.0  0.74434  0.15296  0.16214  1.0000
  H   H1620     1.0  0.71905  0.13125  0.15866  1.0000
  H   H1621     1.0  0.78972  0.22694  0.10890  1.0000
  H   H1622     1.0  0.79663  0.23053  0.12900  1.0000
  H   H1623     1.0  0.61601  0.03065  0.03203  1.0000
  C   C930      1.0  0.58062  0.17411  0.24951  1.0000
  H   H1624     1.0  0.66771  0.24094  0.12772  1.0000
  C   C931      1.0  0.53360  0.17629  0.22840  1.0000
  C   C932      1.0  0.55767  0.19279  0.10474  1.0000
  H   H1625     1.0  0.89555  0.39362  0.23546  1.0000
  C   C933      1.0  0.65988  0.02854  0.01100  1.0000
  H   H1626     1.0  0.67403  0.01623  0.14506  1.0000
  H   H1627     1.0  0.57243  0.17016  0.08581  1.0000
  H   H1628     1.0  0.83272  0.42075  0.22106  1.0000
  H   H1629     1.0  0.55999  0.21263  0.10808  1.0000
  S   S211      1.0  0.99113  0.45135  0.08002  1.0000
  H   H1630     1.0  0.55680  0.06464  0.10155  1.0000
  C   C934      1.0  0.58553  0.15570  0.22350  1.0000
  H   H1631     1.0  0.61680  0.06696  0.01146  1.0000
  H   H1632     1.0  0.52675  0.10873  0.11581  1.0000
  H   H1633     1.0  0.89213  0.44136  0.23467  1.0000
  H   H1634     1.0  0.81580  0.29277  0.19277  1.0000
  H   H1635     1.0  0.65000  0.02252  0.13094  1.0000
  H   H1636     1.0  0.53175  0.16617  0.24009  1.0000
  H   H1637     1.0  0.58671  0.23609  0.22477  1.0000
  H   H1638     1.0  0.88811  0.24518  0.22738  1.0000
  C   C935      1.0  0.80357  0.25285  0.22590  1.0000
  C   C936      1.0  0.62556  0.23976  0.23074  1.0000
  H   H1639     1.0  0.60977  0.13184  0.23886  1.0000
  H   H1640     1.0  0.93221  0.44201  0.09426  1.0000
  H   H1641     1.0  0.83401  0.39625  0.23604  1.0000
  H   H1642     1.0  0.59527  0.10379  0.21919  1.0000
  H   H1643     1.0  0.56125  0.07708  0.12037  1.0000
  C   C937      1.0  0.80871  0.30006  0.22245  1.0000
  N   N53       1.0  0.58235  0.17992  0.23204  1.0000
  H   H1644     1.0  0.60614  0.19908  0.21401  1.0000
  H   H1645     1.0  0.96170  0.41442  0.11579  1.0000
  H   H1646     1.0  0.56784  0.09665  0.10277  1.0000
  C   C938      1.0  0.59798  0.03851  0.02731  1.0000
  C   C939      1.0  0.60990  0.13961  0.22659  1.0000
  C   C940      1.0  0.58021  0.21203  0.14159  1.0000
  H   H1647     1.0  0.51720  0.06155  0.12557  1.0000
  Fe  Fe107     1.0  0.00306  0.35908  0.08629  1.0000
  H   H1648     1.0  0.58632  0.17385  0.11898  1.0000
  H   H1649     1.0  0.62257  0.25922  0.23490  1.0000
  C   C941      1.0  0.58890  0.02237  0.01403  1.0000
  H   H1650     1.0  0.58468  0.07552  0.01769  1.0000
  H   H1651     1.0  0.58379  0.03912  0.03712  1.0000
  H   H1652     1.0  0.80159  0.42413  0.25206  1.0000
  H   H1653     1.0  0.51093  0.20322  0.21417  1.0000
  C   C942      1.0  0.97670  0.40863  0.12410  1.0000
  H   H1654     1.0  0.59324  0.20880  0.13145  1.0000
  H   H1655     1.0  0.59326  0.22553  0.24450  1.0000
  C   C943      1.0  0.56509  0.12855  0.14189  1.0000
  H   H1656     1.0  0.78628  0.40779  0.22001  1.0000
  H   H1657     1.0  0.62116  0.16237  0.25269  1.0000
  H   H1658     1.0  0.54539  0.12172  0.14105  1.0000
  H   H1659     1.0  0.96772  0.40552  0.13593  1.0000
  H   H1660     1.0  0.76218  0.23500  0.24517  1.0000
  C   C944      1.0  0.57436  0.18960  0.09001  1.0000
  H   H1661     1.0  0.58572  0.16233  0.14569  1.0000
  C   C945      1.0  0.57762  0.11240  0.15496  1.0000
  H   H1662     1.0  0.61030  0.07677  0.03095  1.0000
  H   H1663     1.0  0.59467  0.19284  0.09234  1.0000
  H   H1664     1.0  0.56717  0.11467  0.16627  1.0000
  S   S212      1.0  0.62114  0.01863  0.09886  1.0000
  H   H1665     1.0  0.56843  0.20373  0.08066  1.0000
  H   H1666     1.0  0.89248  0.48770  0.11779  1.0000
  H   H1667     1.0  0.78827  0.38713  0.23761  1.0000
  H   H1668     1.0  0.98703  0.44707  0.12722  1.0000
  C   C946      1.0  0.50988  0.21855  0.18025  1.0000
  H   H1669     1.0  0.51804  0.15833  0.14501  1.0000
  C   C947      1.0  0.84276  0.49876  0.18982  1.0000
  C   C948      1.0  0.50793  0.19227  0.17883  1.0000
  H   H1670     1.0  0.86703  0.39622  0.25390  1.0000
  C   C949      1.0  0.50878  0.07100  0.11499  1.0000
  H   H1671     1.0  0.00036  0.44540  0.02719  1.0000
  H   H1672     1.0  0.98349  0.49593  0.09689  1.0000
  C   C950      1.0  0.97501  0.30957  0.01205  1.0000
  C   C951      1.0  0.80059  0.50436  0.17120  1.0000
  C   C952      1.0  0.00350  0.49436  0.09364  1.0000
  H   H1673     1.0  0.52246  0.15181  0.12506  1.0000
  H   H1674     1.0  0.98446  0.29065  0.01405  1.0000
  H   H1675     1.0  0.97696  0.50147  0.05841  1.0000
  H   H1676     1.0  0.00409  0.43263  0.11162  1.0000
  C   C953      1.0  0.84473  0.34424  0.25367  1.0000
  H   H1677     1.0  0.98894  0.32473  0.01374  1.0000
  C   C954      1.0  0.66103  0.00715  0.13723  1.0000
  H   H1678     1.0  0.54922  0.01647  0.03052  1.0000
  H   H1679     1.0  0.60523  0.02167  0.00543  1.0000
  H   H1680     1.0  0.50915  0.05596  0.10639  1.0000
  H   H1681     1.0  0.82976  0.45900  0.25232  1.0000
  H   H1682     1.0  0.50912  0.20000  0.11897  1.0000
  H   H1683     1.0  0.50682  0.20638  0.23497  1.0000
  Fe  Fe108     1.0  0.54691  0.06980  0.42481  1.0000
  S   S213      1.0  0.56675  0.03223  0.42892  1.0000
  Fe  Fe109     1.0  0.55555  0.12361  0.41140  1.0000
  H   H1684     1.0  0.99540  0.36101  0.36860  1.0000
  S   S214      1.0  0.58336  0.15018  0.39794  1.0000
  C   C955      1.0  0.58028  0.12189  0.34432  1.0000
  H   H1685     1.0  0.77670  0.27428  0.27142  1.0000
  S   S215      1.0  0.56080  0.10466  0.43528  1.0000
  S   S216      1.0  0.54526  0.08778  0.40078  1.0000
  Fe  Fe110     1.0  0.74652  0.13832  0.32049  1.0000
  S   S217      1.0  0.70723  0.15563  0.32430  1.0000
  S   S218      1.0  0.78758  0.15292  0.32111  1.0000
  Fe  Fe111     1.0  0.72453  0.08851  0.30887  1.0000
  S   S219      1.0  0.68414  0.10283  0.31095  1.0000
  S   S220      1.0  0.73711  0.05103  0.29842  1.0000
  Fe  Fe112     1.0  0.69881  0.14054  0.30102  1.0000
  S   S221      1.0  0.67868  0.16688  0.28335  1.0000
  Fe  Fe113     1.0  0.69506  0.11653  0.33406  1.0000
  S   S222      1.0  0.66965  0.10092  0.35448  1.0000
  S   S223      1.0  0.73822  0.12530  0.29675  1.0000
  S   S224      1.0  0.73512  0.10040  0.33231  1.0000
  Fe  Fe114     1.0  0.94453  0.48134  0.40994  1.0000
  S   S225      1.0  0.92071  0.45318  0.42423  1.0000
  S   S226      1.0  0.98277  0.46819  0.40079  1.0000
  H   H1686     1.0  0.98575  0.39936  0.39678  1.0000
  C   C956      1.0  0.54848  0.06057  0.36289  1.0000
  Fe  Fe115     1.0  0.88935  0.46801  0.40902  1.0000
  S   S227      1.0  0.86382  0.44030  0.39773  1.0000
  H   H1687     1.0  0.87472  0.26285  0.27405  1.0000
  Fe  Fe116     1.0  0.87770  0.27852  0.32993  1.0000
  S   S228      1.0  0.86177  0.31871  0.32816  1.0000
  S   S229      1.0  0.84843  0.25000  0.34102  1.0000
  Fe  Fe117     1.0  0.92931  0.29618  0.31483  1.0000
  S   S230      1.0  0.91520  0.33664  0.31115  1.0000
  S   S231      1.0  0.96977  0.29031  0.30473  1.0000
  Fe  Fe118     1.0  0.89959  0.33172  0.33584  1.0000
  S   S232      1.0  0.91397  0.36155  0.35162  1.0000
  Fe  Fe119     1.0  0.87888  0.32001  0.30377  1.0000
  S   S233      1.0  0.85227  0.33437  0.28478  1.0000
  S   S234      1.0  0.91463  0.29143  0.33976  1.0000
  S   S235      1.0  0.89384  0.27976  0.30529  1.0000
  H   H1688     1.0  0.96475  0.36233  0.40922  1.0000
  C   C957      1.0  0.53248  0.01687  0.40836  1.0000
  H   H1689     1.0  0.76592  0.00712  0.29020  1.0000
  C   C958      1.0  0.88984  0.36294  0.42826  1.0000
  H   H1690     1.0  0.98234  0.27941  0.33749  1.0000
  H   H1691     1.0  0.71271  0.02640  0.32684  1.0000
  C   C959      1.0  0.86189  0.33503  0.26488  1.0000
  H   H1692     1.0  0.89936  0.31919  0.26856  1.0000
  C   C960      1.0  0.89872  0.38488  0.36298  1.0000
  C   C961      1.0  0.91406  0.40202  0.37015  1.0000
  C   C962      1.0  0.90341  0.41982  0.38019  1.0000
  C   C963      1.0  0.87723  0.42023  0.38359  1.0000
  C   C964      1.0  0.86170  0.40343  0.37620  1.0000
  C   C965      1.0  0.87235  0.38601  0.36578  1.0000
  H   H1693     1.0  0.93438  0.40135  0.36808  1.0000
  H   H1694     1.0  0.91553  0.43284  0.38563  1.0000
  H   H1695     1.0  0.84138  0.40372  0.37868  1.0000
  H   H1696     1.0  0.86025  0.37307  0.36027  1.0000
  H   H1697     1.0  0.60510  0.21320  0.47686  1.0000
  C   C966      1.0  0.60980  0.21044  0.46439  1.0000
  H   H1698     1.0  0.99607  0.46530  0.49660  1.0000
  C   C967      1.0  0.73895  0.01986  0.30762  1.0000
  C   C968      1.0  0.80303  0.18154  0.32557  1.0000
  C   C969      1.0  0.79156  0.19956  0.33503  1.0000
  C   C970      1.0  0.80551  0.22069  0.33931  1.0000
  C   C971      1.0  0.83084  0.22458  0.33384  1.0000
  C   C972      1.0  0.84194  0.20710  0.32387  1.0000
  C   C973      1.0  0.82824  0.18562  0.31993  1.0000
  H   H1699     1.0  0.77230  0.19669  0.33958  1.0000
  H   H1700     1.0  0.79676  0.23386  0.34716  1.0000
  H   H1701     1.0  0.86149  0.20951  0.31975  1.0000
  H   H1702     1.0  0.83743  0.17182  0.31267  1.0000
  C   C974      1.0  0.98349  0.35824  0.35841  1.0000
  H   H1703     1.0  0.88161  0.23070  0.28135  1.0000
  H   H1704     1.0  0.87863  0.42516  0.26042  1.0000
  H   H1705     1.0  0.83225  0.08893  0.30338  1.0000
  C   C975      1.0  0.59719  0.10999  0.33138  1.0000
  C   C976      1.0  0.80008  0.09809  0.28951  1.0000
  C   C977      1.0  0.88484  0.49715  0.48733  1.0000
  C   C978      1.0  0.60763  0.13666  0.38598  1.0000
  C   C979      1.0  0.62212  0.15240  0.37532  1.0000
  C   C980      1.0  0.64117  0.14190  0.36548  1.0000
  C   C981      1.0  0.64598  0.11557  0.36634  1.0000
  C   C982      1.0  0.63151  0.09993  0.37704  1.0000
  C   C983      1.0  0.61245  0.11037  0.38677  1.0000
  H   H1706     1.0  0.61860  0.17277  0.37465  1.0000
  H   H1707     1.0  0.65226  0.15417  0.35736  1.0000
  H   H1708     1.0  0.63522  0.07959  0.37789  1.0000
  H   H1709     1.0  0.60171  0.09805  0.39503  1.0000
  H   H1710     1.0  0.83903  0.40617  0.43276  1.0000
  H   H1711     1.0  0.77292  0.02221  0.34107  1.0000
  C   C984      1.0  0.72477  0.01251  0.32124  1.0000
  C   C985      1.0  0.85106  0.38931  0.43624  1.0000
  H   H1712     1.0  0.59306  0.12605  0.35385  1.0000
  C   C986      1.0  0.56164  0.03705  0.37052  1.0000
  C   C987      1.0  0.54138  0.10757  0.48382  1.0000
  H   H1713     1.0  0.69191  0.02333  0.28241  1.0000
  C   C988      1.0  0.52849  0.19570  0.45116  1.0000
  H   H1714     1.0  0.62048  0.16334  0.28117  1.0000
  N   N54       1.0  0.91087  0.35690  0.41652  1.0000
  H   H1715     1.0  0.51506  0.17818  0.37031  1.0000
  H   H1716     1.0  0.83880  0.39970  0.29402  1.0000
  H   H1717     1.0  0.62771  0.13755  0.33167  1.0000
  H   H1718     1.0  0.93807  0.32606  0.41326  1.0000
  C   C989      1.0  0.87604  0.50172  0.50268  1.0000
  H   H1719     1.0  0.83880  0.37225  0.43742  1.0000
  H   H1720     1.0  0.56018  0.11975  0.37392  1.0000
  H   H1721     1.0  0.86174  0.23604  0.26484  1.0000
  C   C990      1.0  0.92695  0.38046  0.41379  1.0000
  C   C991      1.0  0.88370  0.32678  0.40120  1.0000
  H   H1722     1.0  0.83133  0.43184  0.27189  1.0000
  C   C992      1.0  0.00277  0.48496  0.49787  1.0000
  C   C993      1.0  0.87165  0.32455  0.38545  1.0000
  C   C994      1.0  0.50966  0.00796  0.45937  1.0000
  H   H1723     1.0  0.98448  0.31951  0.38234  1.0000
  H   H1724     1.0  0.63938  0.23878  0.46414  1.0000
  C   C995      1.0  0.87220  0.38604  0.42381  1.0000
  H   H1725     1.0  0.96800  0.35403  0.30014  1.0000
  H   H1726     1.0  0.81471  0.01304  0.34744  1.0000
  H   H1727     1.0  0.63141  0.13458  0.42729  1.0000
  C   C996      1.0  0.97928  0.32920  0.35760  1.0000
  C   C997      1.0  0.55146  0.17707  0.44888  1.0000
  H   H1728     1.0  0.57123  0.04206  0.38120  1.0000
  H   H1729     1.0  0.58191  0.08320  0.36611  1.0000
  H   H1730     1.0  0.91605  0.39612  0.40769  1.0000
  H   H1731     1.0  0.93192  0.38780  0.42518  1.0000
  H   H1732     1.0  0.66826  0.19815  0.25577  1.0000
  H   H1733     1.0  0.62808  0.23316  0.44515  1.0000
  H   H1734     1.0  0.91622  0.34740  0.39243  1.0000
  H   H1735     1.0  0.97898  0.45114  0.36769  1.0000
  C   C998      1.0  0.68007  0.16012  0.26346  1.0000
  H   H1736     1.0  0.55610  0.16028  0.36064  1.0000
  C   C999      1.0  0.55168  0.10375  0.49873  1.0000
  C   C1000     1.0  0.90049  0.35067  0.40109  1.0000
  H   H1737     1.0  0.96437  0.36604  0.36171  1.0000
  C   C1001     1.0  0.55375  0.01030  0.41715  1.0000
  C   C1002     1.0  0.98841  0.41464  0.35823  1.0000
  C   C1003     1.0  0.60412  0.15698  0.44043  1.0000
  H   H1738     1.0  0.58545  0.10199  0.32246  1.0000
  H   H1739     1.0  0.58165  0.13910  0.45968  1.0000
  C   C1004     1.0  0.93292  0.29164  0.43697  1.0000
  H   H1740     1.0  0.74957  0.32704  0.27992  1.0000
  C   C1005     1.0  0.92769  0.33539  0.42298  1.0000
  Fe  Fe120     1.0  0.91087  0.48537  0.43981  1.0000
  H   H1741     1.0  0.52812  0.01208  0.48174  1.0000
  N   N55       1.0  0.55792  0.10630  0.35080  1.0000
  H   H1742     1.0  0.61322  0.19331  0.25886  1.0000
  H   H1743     1.0  0.86293  0.38361  0.41264  1.0000
  C   C1006     1.0  0.90849  0.48520  0.48474  1.0000
  H   H1744     1.0  0.54569  0.16464  0.47729  1.0000
  H   H1745     1.0  0.89560  0.30936  0.40335  1.0000
  H   H1746     1.0  0.57916  0.07116  0.34741  1.0000
  H   H1747     1.0  0.79658  0.11705  0.29431  1.0000
  C   C1007     1.0  0.95218  0.37743  0.40398  1.0000
  H   H1748     1.0  0.89733  0.30704  0.42909  1.0000
  H   H1749     1.0  0.92351  0.27722  0.44514  1.0000
  C   C1008     1.0  0.59156  0.15756  0.45704  1.0000
  C   C1009     1.0  0.99896  0.28844  0.31464  1.0000
  H   H1750     1.0  0.96258  0.39932  0.34211  1.0000
  H   H1751     1.0  0.59633  0.14245  0.27530  1.0000
  H   H1752     1.0  0.97257  0.46944  0.46905  1.0000
  H   H1753     1.0  0.95053  0.29786  0.44229  1.0000
  H   H1754     1.0  0.85787  0.34047  0.38321  1.0000
  H   H1755     1.0  0.76421  0.23378  0.27626  1.0000
  H   H1756     1.0  0.95641  0.41759  0.39645  1.0000
  H   H1757     1.0  0.53009  0.15128  0.34933  1.0000
  H   H1758     1.0  0.94269  0.34303  0.43018  1.0000
  H   H1759     1.0  0.62699  0.12061  0.31414  1.0000
  C   C1010     1.0  0.56821  0.08064  0.35676  1.0000
  H   H1760     1.0  0.67054  0.04573  0.26000  1.0000
  H   H1761     1.0  0.87724  0.34642  0.43085  1.0000
  H   H1762     1.0  0.88972  0.36722  0.39591  1.0000
  H   H1763     1.0  0.88643  0.32476  0.37586  1.0000
  H   H1764     1.0  0.57361  0.14079  0.33937  1.0000
  H   H1765     1.0  0.97073  0.40841  0.41475  1.0000
  H   H1766     1.0  0.54507  0.08709  0.33107  1.0000
  C   C1011     1.0  0.62374  0.13526  0.43949  1.0000
  H   H1767     1.0  0.60735  0.15715  0.46522  1.0000
  H   H1768     1.0  0.82605  0.35100  0.25736  1.0000
  H   H1769     1.0  0.88299  0.40405  0.42285  1.0000
  H   H1770     1.0  0.86570  0.38719  0.28320  1.0000
  C   C1012     1.0  0.96709  0.40220  0.40294  1.0000
  H   H1771     1.0  0.60391  0.14561  0.31739  1.0000
  H   H1772     1.0  0.86582  0.41962  0.28899  1.0000
  H   H1773     1.0  0.69208  0.12096  0.26735  1.0000
  H   H1774     1.0  0.95473  0.43942  0.35589  1.0000
  H   H1775     1.0  0.86799  0.32725  0.41012  1.0000
  C   C1013     1.0  0.76585  0.32579  0.27138  1.0000
  H   H1776     1.0  0.73392  0.03163  0.35640  1.0000
  C   C1014     1.0  0.86138  0.41621  0.25607  1.0000
  H   H1777     1.0  0.59915  0.17556  0.48838  1.0000
  H   H1778     1.0  0.52962  0.10971  0.36969  1.0000
  C   C1015     1.0  0.82647  0.01415  0.33647  1.0000
  H   H1779     1.0  0.81201  0.10079  0.27863  1.0000
  H   H1780     1.0  0.99300  0.37016  0.28875  1.0000
  H   H1781     1.0  0.54393  0.15732  0.45005  1.0000
  H   H1782     1.0  0.60880  0.25148  0.45850  1.0000
  H   H1783     1.0  0.89826  0.36678  0.43958  1.0000
  H   H1784     1.0  0.53988  0.12045  0.32959  1.0000
  H   H1785     1.0  0.86123  0.30634  0.38548  1.0000
  H   H1786     1.0  0.57587  0.02879  0.36230  1.0000
  H   H1787     1.0  0.53770  0.05409  0.35305  1.0000
  H   H1788     1.0  0.79671  0.22321  0.27346  1.0000
  H   H1789     1.0  0.60957  0.09459  0.33654  1.0000
  C   C1016     1.0  0.85371  0.40448  0.28486  1.0000
  H   H1790     1.0  0.95172  0.32587  0.37714  1.0000
  N   N56       1.0  0.99435  0.37266  0.34390  1.0000
  H   H1791     1.0  0.76168  0.03476  0.36778  1.0000
  H   H1792     1.0  0.57050  0.09533  0.49983  1.0000
  C   C1017     1.0  0.75123  0.04305  0.35763  1.0000
  H   H1793     1.0  0.54975  0.01101  0.46488  1.0000
  C   C1018     1.0  0.88600  0.32638  0.26001  1.0000
  C   C1019     1.0  0.61494  0.12974  0.32318  1.0000
  H   H1794     1.0  0.75820  0.19794  0.29719  1.0000
  H   H1795     1.0  0.64620  0.02121  0.35410  1.0000
  H   H1796     1.0  0.81844  0.25932  0.26927  1.0000
  H   H1797     1.0  0.55225  0.10208  0.47360  1.0000
  H   H1798     1.0  0.63979  0.13830  0.44717  1.0000
  C   C1020     1.0  0.99266  0.47281  0.46504  1.0000
  H   H1799     1.0  0.53482  0.06810  0.37163  1.0000
  C   C1021     1.0  0.50776  0.19134  0.43968  1.0000
  C   C1022     1.0  0.58525  0.20505  0.45587  1.0000
  H   H1800     1.0  0.79018  0.18699  0.29229  1.0000
  H   H1801     1.0  0.58972  0.15396  0.43169  1.0000
  H   H1802     1.0  0.55810  0.18017  0.43647  1.0000
  H   H1803     1.0  0.99169  0.41137  0.33356  1.0000
  H   H1804     1.0  0.77214  0.34545  0.26786  1.0000
  C   C1023     1.0  0.51071  0.10039  0.34325  1.0000
  H   H1805     1.0  0.90947  0.32207  0.44533  1.0000
  N   N57       1.0  0.80988  0.06004  0.32953  1.0000
  C   C1024     1.0  0.81559  0.03373  0.32409  1.0000
  C   C1025     1.0  0.79740  0.07571  0.31655  1.0000
  C   C1026     1.0  0.83442  0.07186  0.33377  1.0000
  C   C1027     1.0  0.79196  0.05902  0.34370  1.0000
  C   C1028     1.0  0.76795  0.04248  0.34272  1.0000
  H   H1806     1.0  0.98359  0.45259  0.34679  1.0000
  C   C1029     1.0  0.83276  0.10068  0.33688  1.0000
  C   C1030     1.0  0.81376  0.08024  0.30125  1.0000
  C   C1031     1.0  0.98358  0.39957  0.34365  1.0000
  C   C1032     1.0  0.53185  0.04708  0.46793  1.0000
  H   H1807     1.0  0.51537  0.19377  0.42746  1.0000
  C   C1033     1.0  0.85802  0.11018  0.34234  1.0000
  H   H1808     1.0  0.82995  0.03463  0.31425  1.0000
  H   H1809     1.0  0.79834  0.02567  0.31918  1.0000
  H   H1810     1.0  0.77984  0.06639  0.31325  1.0000
  H   H1811     1.0  0.79079  0.09455  0.32055  1.0000
  H   H1812     1.0  0.84953  0.06928  0.32456  1.0000
  H   H1813     1.0  0.84189  0.06176  0.34445  1.0000
  H   H1814     1.0  0.80206  0.05215  0.35434  1.0000
  H   H1815     1.0  0.78503  0.07856  0.34616  1.0000
  C   C1034     1.0  0.69897  0.01983  0.27040  1.0000
  H   H1816     1.0  0.75634  0.04956  0.33287  1.0000
  H   H1817     1.0  0.99690  0.31918  0.35397  1.0000
  H   H1818     1.0  0.72004  0.01877  0.27034  1.0000
  H   H1819     1.0  0.81792  0.10452  0.34598  1.0000
  H   H1820     1.0  0.82821  0.11234  0.32612  1.0000
  H   H1821     1.0  0.58267  0.14611  0.48856  1.0000
  H   H1822     1.0  0.81742  0.06203  0.29562  1.0000
  C   C1035     1.0  0.51728  0.11888  0.48214  1.0000
  H   H1823     1.0  0.98082  0.40448  0.36903  1.0000
  H   H1824     1.0  0.82710  0.39920  0.26710  1.0000
  H   H1825     1.0  0.61493  0.11661  0.44295  1.0000
  H   H1826     1.0  0.75945  0.31669  0.26091  1.0000
  H   H1827     1.0  0.85924  0.39257  0.44766  1.0000
  C   C1036     1.0  0.92322  0.47817  0.49773  1.0000
  H   H1828     1.0  0.58771  0.17395  0.28155  1.0000
  C   C1037     1.0  0.99186  0.50372  0.48510  1.0000
  H   H1829     1.0  0.86312  0.10001  0.35353  1.0000
  H   H1830     1.0  0.87346  0.10736  0.33341  1.0000
  H   H1831     1.0  0.85627  0.13091  0.34419  1.0000
  N   N58       1.0  0.79956  0.26628  0.29157  1.0000
  C   C1038     1.0  0.78806  0.24062  0.29599  1.0000
  C   C1039     1.0  0.80671  0.27830  0.30627  1.0000
  C   C1040     1.0  0.78031  0.28248  0.28274  1.0000
  C   C1041     1.0  0.82327  0.26377  0.28128  1.0000
  C   C1042     1.0  0.84333  0.24382  0.28720  1.0000
  C   C1043     1.0  0.78080  0.22480  0.28218  1.0000
  C   C1044     1.0  0.78785  0.31059  0.27870  1.0000
  C   C1045     1.0  0.78425  0.28576  0.31741  1.0000
  C   C1046     1.0  0.79362  0.29978  0.33110  1.0000
  C   C1047     1.0  0.86672  0.24344  0.27612  1.0000
  C   C1048     1.0  0.77333  0.19773  0.28782  1.0000
  H   H1832     1.0  0.62637  0.02957  0.37079  1.0000
  H   H1833     1.0  0.77025  0.24285  0.30320  1.0000
  H   H1834     1.0  0.80082  0.22889  0.30369  1.0000
  H   H1835     1.0  0.81914  0.26514  0.31326  1.0000
  H   H1836     1.0  0.81864  0.29541  0.30352  1.0000
  H   H1837     1.0  0.76151  0.28216  0.28914  1.0000
  C   C1049     1.0  0.53927  0.10353  0.33806  1.0000
  H   H1838     1.0  0.93805  0.28251  0.42594  1.0000
  H   H1839     1.0  0.83316  0.28239  0.27980  1.0000
  H   H1840     1.0  0.83556  0.22427  0.28810  1.0000
  H   H1841     1.0  0.84975  0.24827  0.29884  1.0000
  Fe  Fe121     1.0  0.51924  0.11275  0.43979  1.0000
  H   H1842     1.0  0.66045  0.03173  0.37125  1.0000
  C   C1050     1.0  0.54643  0.11989  0.36440  1.0000
  H   H1843     1.0  0.79306  0.32039  0.28915  1.0000
  H   H1844     1.0  0.77035  0.29864  0.31141  1.0000
  H   H1845     1.0  0.77422  0.26850  0.32233  1.0000
  H   H1846     1.0  0.80299  0.31782  0.32686  1.0000
  H   H1847     1.0  0.77727  0.30450  0.33901  1.0000
  H   H1848     1.0  0.80728  0.28766  0.33788  1.0000
  S   S236      1.0  0.92057  0.47810  0.46572  1.0000
  H   H1849     1.0  0.51968  0.19308  0.46307  1.0000
  H   H1850     1.0  0.80428  0.31139  0.27021  1.0000
  H   H1851     1.0  0.55464  0.19651  0.47959  1.0000
  H   H1852     1.0  0.52921  0.15671  0.38476  1.0000
  H   H1853     1.0  0.76605  0.18753  0.27800  1.0000
  H   H1854     1.0  0.98285  0.47883  0.44022  1.0000
  H   H1855     1.0  0.53753  0.05396  0.45587  1.0000
  C   C1051     1.0  0.53886  0.14828  0.36082  1.0000
  C   C1052     1.0  0.91481  0.31431  0.43390  1.0000
  C   C1053     1.0  0.56233  0.17761  0.47630  1.0000
  C   C1054     1.0  0.69155  0.04322  0.26001  1.0000
  C   C1055     1.0  0.60222  0.16267  0.27511  1.0000
  H   H1856     1.0  0.94129  0.46848  0.49597  1.0000
  H   H1857     1.0  0.61413  0.17498  0.43704  1.0000
  C   C1056     1.0  0.98844  0.35907  0.29987  1.0000
  H   H1858     1.0  0.94845  0.37268  0.39190  1.0000
  C   C1057     1.0  0.52025  0.15793  0.37326  1.0000
  H   H1859     1.0  0.57171  0.22071  0.45872  1.0000
  H   H1860     1.0  0.74513  0.06289  0.35987  1.0000
  H   H1861     1.0  0.54625  0.05361  0.47587  1.0000
  N   N59       1.0  0.57321  0.17946  0.45970  1.0000
  H   H1862     1.0  0.78167  0.08986  0.28658  1.0000
  H   H1863     1.0  0.97068  0.50279  0.48622  1.0000
  H   H1864     1.0  0.84603  0.01948  0.33929  1.0000
  C   C1058     1.0  0.97015  0.31711  0.37340  1.0000
  H   H1865     1.0  0.96726  0.29639  0.37238  1.0000
  H   H1866     1.0  0.56812  0.18835  0.25527  1.0000
  C   C1059     1.0  0.68687  0.13585  0.25875  1.0000
  H   H1867     1.0  0.54726  0.02232  0.37390  1.0000
  H   H1868     1.0  0.62416  0.19490  0.46342  1.0000
  C   C1060     1.0  0.62218  0.23499  0.45758  1.0000
  H   H1869     1.0  0.52445  0.03593  0.40831  1.0000
  C   C1061     1.0  0.84129  0.41363  0.26968  1.0000
  H   H1870     1.0  0.58925  0.20797  0.44308  1.0000
  H   H1871     1.0  0.96471  0.35979  0.32965  1.0000
  H   H1872     1.0  0.53441  0.21582  0.44915  1.0000
  S   S237      1.0  0.51469  0.13517  0.41654  1.0000
  H   H1873     1.0  0.96441  0.32569  0.34917  1.0000
  H   H1874     1.0  0.96634  0.43664  0.44944  1.0000
  H   H1875     1.0  0.99271  0.34076  0.32899  1.0000
  C   C1062     1.0  0.58007  0.16704  0.48930  1.0000
  S   S238      1.0  0.91407  0.49415  0.39364  1.0000
  C   C1063     1.0  0.99507  0.46615  0.44766  1.0000
  C   C1064     1.0  0.97560  0.44101  0.35700  1.0000
  S   S239      1.0  0.87700  0.49834  0.42563  1.0000
  N   N60       1.0  0.00039  0.49943  0.46849  1.0000
  C   C1065     1.0  0.64465  0.02049  0.36704  1.0000
  H   H1876     1.0  0.51313  0.05577  0.47113  1.0000
  H   H1877     1.0  0.50893  0.06522  0.49991  1.0000
  C   C1066     1.0  0.99424  0.37480  0.31363  1.0000
  H   H1878     1.0  0.69979  0.06054  0.26452  1.0000
  H   H1879     1.0  0.99858  0.42502  0.45257  1.0000
  C   C1067     1.0  0.60595  0.17369  0.25834  1.0000
  C   C1068     1.0  0.99984  0.28270  0.33071  1.0000
  C   C1069     1.0  0.98591  0.36085  0.32939  1.0000
  H   H1880     1.0  0.98886  0.43479  0.43320  1.0000
  C   C1070     1.0  0.98668  0.43890  0.44569  1.0000
  C   C1071     1.0  0.53092  0.01797  0.46925  1.0000
  H   H1881     1.0  0.51550  0.01384  0.44711  1.0000
  H   H1882     1.0  0.98371  0.39320  0.31196  1.0000
  H   H1883     1.0  0.50782  0.08587  0.35297  1.0000
  H   H1884     1.0  0.00011  0.34128  0.30019  1.0000
  H   H1885     1.0  0.00420  0.45820  0.47167  1.0000
  H   H1886     1.0  0.87315  0.50251  0.47754  1.0000
  S   S240      1.0  0.50553  0.07642  0.43043  1.0000
  Fe  Fe122     1.0  0.69549  0.12445  0.66080  1.0000
  S   S241      1.0  0.73837  0.12030  0.66113  1.0000
  S   S242      1.0  0.67506  0.11288  0.63940  1.0000
  Fe  Fe123     1.0  0.69146  0.12714  0.69650  1.0000
  S   S243      1.0  0.73338  0.12191  0.69909  1.0000
  S   S244      1.0  0.66291  0.13030  0.71672  1.0000
  Fe  Fe124     1.0  0.73717  0.15089  0.67867  1.0000
  S   S245      1.0  0.75980  0.18669  0.68353  1.0000
  Fe  Fe125     1.0  0.73070  0.09203  0.68151  1.0000
  S   S246      1.0  0.75017  0.05284  0.68316  1.0000
  S   S247      1.0  0.69455  0.15708  0.67675  1.0000
  S   S248      1.0  0.68849  0.09522  0.68056  1.0000
  Fe  Fe126     1.0  0.55877  0.13267  0.58674  1.0000
  S   S249      1.0  0.53007  0.11053  0.60154  1.0000
  S   S250      1.0  0.58313  0.15906  0.59979  1.0000
  Fe  Fe127     1.0  0.54170  0.11048  0.55647  1.0000
  H   H1887     1.0  0.55326  0.09371  0.64493  1.0000
  H   H1888     1.0  0.60669  0.10847  0.60256  1.0000
  Fe  Fe128     1.0  0.54146  0.07799  0.58732  1.0000
  H   H1889     1.0  0.65546  0.06738  0.65937  1.0000
  S   S251      1.0  0.53015  0.14587  0.56883  1.0000
  S   S252      1.0  0.57237  0.09909  0.57362  1.0000
  Fe  Fe129     1.0  0.88453  0.27806  0.67426  1.0000
  S   S253      1.0  0.87049  0.31149  0.68742  1.0000
  S   S254      1.0  0.86033  0.24940  0.66230  1.0000
  Fe  Fe130     1.0  0.94119  0.29259  0.67790  1.0000
  S   S255      1.0  0.93073  0.32659  0.69153  1.0000
  S   S256      1.0  0.98121  0.28169  0.66932  1.0000
  Fe  Fe131     1.0  0.90161  0.30093  0.70397  1.0000
  S   S257      1.0  0.89567  0.29379  0.73017  1.0000
  Fe  Fe132     1.0  0.90079  0.33418  0.67365  1.0000
  S   S258      1.0  0.89153  0.37401  0.66329  1.0000
  S   S259      1.0  0.91425  0.26614  0.69152  1.0000
  S   S260      1.0  0.91272  0.30166  0.65935  1.0000
  Fe  Fe133     1.0  0.91796  0.46638  0.58728  1.0000
  S   S261      1.0  0.92560  0.42531  0.59677  1.0000
  S   S262      1.0  0.93538  0.47675  0.56328  1.0000
  H   H1890     1.0  0.92620  0.47762  0.52285  1.0000
  H   H1891     1.0  0.65901  0.03489  0.59490  1.0000
  C   C1072     1.0  0.90314  0.38858  0.64529  1.0000
  C   C1073     1.0  0.89485  0.41348  0.64090  1.0000
  C   C1074     1.0  0.90208  0.42525  0.62627  1.0000
  C   C1075     1.0  0.91761  0.41214  0.61580  1.0000
  C   C1076     1.0  0.92640  0.38739  0.62032  1.0000
  C   C1077     1.0  0.91938  0.37572  0.63503  1.0000
  H   H1892     1.0  0.88240  0.42364  0.64877  1.0000
  H   H1893     1.0  0.89521  0.44429  0.62297  1.0000
  H   H1894     1.0  0.93845  0.37712  0.61230  1.0000
  H   H1895     1.0  0.92608  0.35665  0.63831  1.0000
  C   C1078     1.0  0.86080  0.35890  0.74373  1.0000
  C   C1079     1.0  0.87324  0.34086  0.73456  1.0000
  C   C1080     1.0  0.87885  0.31646  0.74105  1.0000
  H   H1896     1.0  0.66475  0.04532  0.74294  1.0000
  H   H1897     1.0  0.85676  0.37785  0.73868  1.0000
  H   H1898     1.0  0.87876  0.34595  0.72254  1.0000
  H   H1899     1.0  0.97618  0.43754  0.57952  1.0000
  H   H1900     1.0  0.64264  0.09125  0.61804  1.0000
  H   H1901     1.0  0.61115  0.07663  0.66630  1.0000
  C   C1081     1.0  0.51387  0.12215  0.51056  1.0000
  H   H1902     1.0  0.66170  0.19707  0.74142  1.0000
  H   H1903     1.0  0.70725  0.19012  0.74569  1.0000
  H   H1904     1.0  0.58203  0.03569  0.57812  1.0000
  C   C1082     1.0  0.78791  0.20355  0.67725  1.0000
  C   C1083     1.0  0.80576  0.19442  0.66637  1.0000
  C   C1084     1.0  0.82783  0.20857  0.66203  1.0000
  C   C1085     1.0  0.83255  0.23189  0.66858  1.0000
  C   C1086     1.0  0.81460  0.24103  0.67938  1.0000
  C   C1087     1.0  0.79254  0.22697  0.68370  1.0000
  H   H1905     1.0  0.80251  0.17650  0.66125  1.0000
  H   H1906     1.0  0.84135  0.20135  0.65352  1.0000
  H   H1907     1.0  0.81748  0.25916  0.68422  1.0000
  H   H1908     1.0  0.77880  0.23438  0.69201  1.0000
  C   C1088     1.0  0.67263  0.13474  0.73577  1.0000
  C   C1089     1.0  0.69835  0.13506  0.73933  1.0000
  C   C1090     1.0  0.61759  0.05637  0.66626  1.0000
  C   C1091     1.0  0.54447  0.16000  0.63958  1.0000
  H   H1909     1.0  0.70935  0.04180  0.61983  1.0000
  H   H1910     1.0  0.98583  0.48791  0.59000  1.0000
  H   H1911     1.0  0.71283  0.13296  0.73025  1.0000
  N   N61       1.0  0.52362  0.17916  0.63535  1.0000
  C   C1092     1.0  0.87310  0.32894  0.62405  1.0000
  C   C1093     1.0  0.67278  0.23129  0.75329  1.0000
  H   H1912     1.0  0.55091  0.25408  0.62739  1.0000
  H   H1913     1.0  0.75652  0.05834  0.74423  1.0000
  H   H1914     1.0  0.60183  0.04491  0.66225  1.0000
  C   C1094     1.0  0.69246  0.03976  0.64351  1.0000
  H   H1915     1.0  0.69672  0.03990  0.68868  1.0000
  C   C1095     1.0  0.64839  0.12593  0.62950  1.0000
  C   C1096     1.0  0.63997  0.15114  0.63085  1.0000
  C   C1097     1.0  0.61996  0.16111  0.62170  1.0000
  C   C1098     1.0  0.60783  0.14583  0.61142  1.0000
  C   C1099     1.0  0.61577  0.12042  0.61045  1.0000
  C   C1100     1.0  0.63612  0.11066  0.61930  1.0000
  H   H1916     1.0  0.64947  0.16318  0.63851  1.0000
  H   H1917     1.0  0.61423  0.18086  0.62239  1.0000
  H   H1918     1.0  0.84294  0.30005  0.64506  1.0000
  H   H1919     1.0  0.52625  0.12866  0.65386  1.0000
  C   C1101     1.0  0.53369  0.02038  0.53994  1.0000
  H   H1920     1.0  0.87027  0.38059  0.61402  1.0000
  H   H1921     1.0  0.72388  0.01756  0.63272  1.0000
  N   N62       1.0  0.70547  0.04630  0.73788  1.0000
  H   H1922     1.0  0.56829  0.19247  0.50745  1.0000
  C   C1102     1.0  0.72388  0.06365  0.72867  1.0000
  H   H1923     1.0  0.00021  0.29986  0.61175  1.0000
  C   C1103     1.0  0.67870  0.05568  0.73492  1.0000
  C   C1104     1.0  0.66991  0.05428  0.71802  1.0000
  S   S263      1.0  0.87869  0.50107  0.53481  1.0000
  H   H1924     1.0  0.96741  0.34408  0.73536  1.0000
  H   H1925     1.0  0.82691  0.49898  0.57478  1.0000
  C   C1105     1.0  0.76930  0.07866  0.72324  1.0000
  C   C1106     1.0  0.64178  0.06160  0.71681  1.0000
  H   H1926     1.0  0.67237  0.03488  0.71380  1.0000
  H   H1927     1.0  0.51997  0.05033  0.63662  1.0000
  H   H1928     1.0  0.69994  0.03895  0.65550  1.0000
  H   H1929     1.0  0.95850  0.42473  0.56431  1.0000
  H   H1930     1.0  0.72178  0.06203  0.71593  1.0000
  C   C1107     1.0  0.55187  0.03753  0.52933  1.0000
  H   H1931     1.0  0.51016  0.15641  0.61726  1.0000
  H   H1932     1.0  0.58676  0.02981  0.54174  1.0000
  H   H1933     1.0  0.94883  0.38065  0.67015  1.0000
  H   H1934     1.0  0.69860  0.21381  0.73116  1.0000
  C   C1108     1.0  0.64105  0.05431  0.65536  1.0000
  H   H1935     1.0  0.68094  0.06779  0.71014  1.0000
  H   H1936     1.0  0.73996  0.23120  0.72781  1.0000
  N   N63       1.0  0.67118  0.02099  0.64277  1.0000
  H   H1937     1.0  0.76489  0.19466  0.71955  1.0000
  H   H1938     1.0  0.99520  0.37943  0.62844  1.0000
  H   H1939     1.0  0.75234  0.05385  0.62651  1.0000
  C   C1109     1.0  0.53813  0.11117  0.51220  1.0000
  H   H1940     1.0  0.78956  0.07451  0.72575  1.0000
  H   H1941     1.0  0.51487  0.19884  0.58823  1.0000
  H   H1942     1.0  0.72894  0.07559  0.63431  1.0000
  H   H1943     1.0  0.62974  0.04740  0.72359  1.0000
  H   H1944     1.0  0.63793  0.08076  0.72124  1.0000
  H   H1945     1.0  0.63650  0.06220  0.70442  1.0000
  H   H1946     1.0  0.97277  0.49336  0.51518  1.0000
  C   C1110     1.0  0.73813  0.21316  0.73520  1.0000
  H   H1947     1.0  0.54145  0.05476  0.52479  1.0000
  C   C1111     1.0  0.75250  0.05839  0.73168  1.0000
  C   C1112     1.0  0.82789  0.32466  0.61710  1.0000
  C   C1113     1.0  0.81814  0.29684  0.61962  1.0000
  C   C1114     1.0  0.88128  0.30097  0.62169  1.0000
  C   C1115     1.0  0.90956  0.29917  0.61697  1.0000
  C   C1116     1.0  0.80504  0.28860  0.60522  1.0000
  H   H1948     1.0  0.71931  0.08400  0.73062  1.0000
  H   H1949     1.0  0.83702  0.32694  0.60520  1.0000
  H   H1950     1.0  0.80398  0.29532  0.62951  1.0000
  H   H1951     1.0  0.83351  0.28282  0.62232  1.0000
  H   H1952     1.0  0.87802  0.28861  0.63247  1.0000
  H   H1953     1.0  0.87081  0.29342  0.61206  1.0000
  H   H1954     1.0  0.91335  0.30942  0.60545  1.0000
  H   H1955     1.0  0.92139  0.30754  0.62571  1.0000
  C   C1117     1.0  0.98475  0.29892  0.62092  1.0000
  H   H1956     1.0  0.78879  0.30163  0.60235  1.0000
  H   H1957     1.0  0.81874  0.28849  0.59507  1.0000
  H   H1958     1.0  0.79766  0.26899  0.60755  1.0000
  H   H1959     1.0  0.63750  0.02028  0.62887  1.0000
  H   H1960     1.0  0.79950  0.33013  0.64434  1.0000
  H   H1961     1.0  0.52804  0.24047  0.74941  1.0000
  Fe  Fe134     1.0  0.89910  0.49802  0.55808  1.0000
  N   N64       1.0  0.85464  0.21431  0.71973  1.0000
  C   C1118     1.0  0.85044  0.24200  0.71458  1.0000
  C   C1119     1.0  0.88058  0.20596  0.71361  1.0000
  C   C1120     1.0  0.83383  0.19885  0.71348  1.0000
  C   C1121     1.0  0.85390  0.21051  0.73728  1.0000
  C   C1122     1.0  0.87070  0.22877  0.74590  1.0000
  C   C1123     1.0  0.82534  0.25446  0.72081  1.0000
  C   C1124     1.0  0.83614  0.16953  0.71666  1.0000
  C   C1125     1.0  0.88346  0.20352  0.69573  1.0000
  C   C1126     1.0  0.91039  0.19486  0.69099  1.0000
  S   S264      1.0  0.93282  0.50082  0.59822  1.0000
  C   C1127     1.0  0.65490  0.01479  0.59885  1.0000
  C   C1128     1.0  0.81584  0.15584  0.70816  1.0000
  H   H1962     1.0  0.85039  0.24445  0.70168  1.0000
  H   H1963     1.0  0.86672  0.25366  0.71772  1.0000
  H   H1964     1.0  0.89527  0.21967  0.71662  1.0000
  H   H1965     1.0  0.88648  0.18738  0.71941  1.0000
  H   H1966     1.0  0.83235  0.20308  0.70072  1.0000
  H   H1967     1.0  0.81496  0.20445  0.71856  1.0000
  H   H1968     1.0  0.83404  0.21214  0.74212  1.0000
  H   H1969     1.0  0.86011  0.19073  0.74088  1.0000
  H   H1970     1.0  0.86401  0.24884  0.74413  1.0000
  H   H1971     1.0  0.89086  0.22765  0.74169  1.0000
  H   H1972     1.0  0.80866  0.24621  0.71553  1.0000
  H   H1973     1.0  0.82299  0.25168  0.73365  1.0000
  H   H1974     1.0  0.83346  0.16437  0.72932  1.0000
  H   H1975     1.0  0.85493  0.16201  0.71267  1.0000
  H   H1976     1.0  0.87023  0.18939  0.69161  1.0000
  H   H1977     1.0  0.87968  0.22206  0.68940  1.0000
  H   H1978     1.0  0.92469  0.20839  0.69464  1.0000
  H   H1979     1.0  0.91459  0.17552  0.69631  1.0000
  H   H1980     1.0  0.54539  0.00770  0.54772  1.0000
  H   H1981     1.0  0.57060  0.24118  0.64295  1.0000
  C   C1129     1.0  0.73629  0.05559  0.63516  1.0000
  C   C1130     1.0  0.57151  0.01816  0.57983  1.0000
  H   H1982     1.0  0.81754  0.13493  0.71076  1.0000
  H   H1983     1.0  0.79644  0.16217  0.71191  1.0000
  H   H1984     1.0  0.81829  0.15971  0.69534  1.0000
  H   H1985     1.0  0.98791  0.28195  0.62903  1.0000
  C   C1131     1.0  0.56611  0.23993  0.63050  1.0000
  H   H1986     1.0  0.99717  0.41762  0.54873  1.0000
  H   H1987     1.0  0.55377  0.16504  0.65040  1.0000
  C   C1132     1.0  0.80631  0.30729  0.66537  1.0000
  H   H1988     1.0  0.57328  0.11867  0.65085  1.0000
  H   H1989     1.0  0.88577  0.33650  0.63271  1.0000
  C   C1133     1.0  0.53374  0.20537  0.63752  1.0000
  H   H1990     1.0  0.00077  0.47831  0.52309  1.0000
  H   H1991     1.0  0.54892  0.16450  0.50684  1.0000
  H   H1992     1.0  0.51924  0.22047  0.63506  1.0000
  H   H1993     1.0  0.53824  0.20696  0.64999  1.0000
  H   H1994     1.0  0.71094  0.01924  0.71991  1.0000
  C   C1134     1.0  0.74569  0.19125  0.72500  1.0000
  S   S265      1.0  0.54291  0.04154  0.60219  1.0000
  H   H1995     1.0  0.58023  0.16168  0.51456  1.0000
  H   H1996     1.0  0.56253  0.02200  0.63299  1.0000
  C   C1135     1.0  0.89090  0.49496  0.51565  1.0000
  H   H1997     1.0  0.96641  0.29667  0.61522  1.0000
  H   H1998     1.0  0.50632  0.08211  0.63487  1.0000
  H   H1999     1.0  0.55428  0.21269  0.61483  1.0000
  H   H2000     1.0  0.63408  0.13743  0.74501  1.0000
  H   H2001     1.0  0.62220  0.04968  0.67835  1.0000
  H   H2002     1.0  0.70823  0.26206  0.73975  1.0000
  H   H2003     1.0  0.63560  0.06118  0.64348  1.0000
  H   H2004     1.0  0.93409  0.33744  0.73856  1.0000
  C   C1136     1.0  0.71029  0.21043  0.74167  1.0000
  C   C1137     1.0  0.98984  0.35712  0.65558  1.0000
  H   H2005     1.0  0.55987  0.16053  0.63035  1.0000
  C   C1138     1.0  0.84084  0.32109  0.64509  1.0000
  H   H2006     1.0  0.52337  0.12610  0.63339  1.0000
  H   H2007     1.0  0.81756  0.40645  0.61653  1.0000
  H   H2008     1.0  0.67648  0.07609  0.73760  1.0000
  C   C1139     1.0  0.51725  0.17585  0.61862  1.0000
  C   C1140     1.0  0.71535  0.03700  0.63190  1.0000
  H   H2009     1.0  0.81606  0.34609  0.65866  1.0000
  H   H2010     1.0  0.80653  0.29151  0.72147  1.0000
  H   H2011     1.0  0.73207  0.18986  0.71552  1.0000
  H   H2012     1.0  0.97202  0.35783  0.64902  1.0000
  H   H2013     1.0  0.84491  0.41462  0.62727  1.0000
  H   H2014     1.0  0.96953  0.36822  0.68530  1.0000
  C   C1141     1.0  0.99851  0.43074  0.55827  1.0000
  H   H2015     1.0  0.87787  0.33941  0.61273  1.0000
  H   H2016     1.0  0.82176  0.36669  0.63334  1.0000
  N   N65       1.0  0.84567  0.33362  0.62900  1.0000
  H   H2017     1.0  0.84589  0.41849  0.60631  1.0000
  H   H2018     1.0  0.76421  0.09790  0.72720  1.0000
  H   H2019     1.0  0.84064  0.29259  0.72203  1.0000
  S   S266      1.0  0.88032  0.48510  0.58133  1.0000
  H   H2020     1.0  0.75200  0.21354  0.74451  1.0000
  H   H2021     1.0  0.91530  0.27884  0.61613  1.0000
  C   C1142     1.0  0.65401  0.13766  0.74768  1.0000
  H   H2022     1.0  0.81046  0.33700  0.61649  1.0000
  H   H2023     1.0  0.82556  0.28726  0.70398  1.0000
  C   C1143     1.0  0.95332  0.33377  0.74324  1.0000
  S   S267      1.0  0.55313  0.10743  0.53050  1.0000
  H   H2024     1.0  0.91209  0.19417  0.67810  1.0000
  C   C1144     1.0  0.73368  0.02352  0.68402  1.0000
  H   H2025     1.0  0.82068  0.30476  0.67446  1.0000
  C   C1145     1.0  0.81467  0.32776  0.65295  1.0000
  H   H2026     1.0  0.63397  0.01247  0.60038  1.0000
  H   H2027     1.0  0.85569  0.32672  0.65309  1.0000
  H   H2028     1.0  0.65908  0.04457  0.62274  1.0000
  H   H2029     1.0  0.74365  0.05130  0.64701  1.0000
  H   H2030     1.0  0.58576  0.06008  0.53088  1.0000
  H   H2031     1.0  0.75854  0.03967  0.72735  1.0000
  C   C1146     1.0  0.70747  0.02247  0.68726  1.0000
  H   H2032     1.0  0.84194  0.37138  0.60476  1.0000
  H   H2033     1.0  0.97970  0.33963  0.62159  1.0000
  H   H2034     1.0  0.71461  0.30678  0.74805  1.0000
  C   C1147     1.0  0.55943  0.11362  0.64214  1.0000
  C   C1148     1.0  0.65821  0.02427  0.62732  1.0000
  C   C1149     1.0  0.55785  0.21300  0.62745  1.0000
  H   H2035     1.0  0.85313  0.36877  0.63993  1.0000
  H   H2036     1.0  0.57406  0.19996  0.63021  1.0000
  C   C1150     1.0  0.91466  0.48324  0.51304  1.0000
  C   C1151     1.0  0.53633  0.13172  0.64233  1.0000
  H   H2037     1.0  0.66811  0.24391  0.74285  1.0000
  H   H2038     1.0  0.53470  0.17699  0.61093  1.0000
  C   C1152     1.0  0.55177  0.01597  0.59115  1.0000
  C   C1153     1.0  0.84925  0.37916  0.61540  1.0000
  H   H2039     1.0  0.56900  0.11453  0.63038  1.0000
  H   H2040     1.0  0.99318  0.30664  0.69771  1.0000
  C   C1154     1.0  0.83868  0.40630  0.61650  1.0000
  C   C1155     1.0  0.82458  0.28318  0.71679  1.0000
  C   C1156     1.0  0.84197  0.36208  0.63024  1.0000
  H   H2041     1.0  0.80373  0.28882  0.66004  1.0000
  H   H2042     1.0  0.78792  0.31303  0.67100  1.0000
  C   C1157     1.0  0.70983  0.01950  0.73285  1.0000
  H   H2043     1.0  0.58347  0.24476  0.62323  1.0000
  H   H2044     1.0  0.76727  0.07856  0.71045  1.0000
  H   H2045     1.0  0.97960  0.40423  0.57546  1.0000
  H   H2046     1.0  0.74611  0.17284  0.73208  1.0000
  H   H2047     1.0  0.95770  0.31300  0.74321  1.0000
  C   C1158     1.0  0.57426  0.04627  0.53835  1.0000
  H   H2048     1.0  0.96645  0.40211  0.68106  1.0000
  C   C1159     1.0  0.97701  0.42386  0.57014  1.0000
  H   H2049     1.0  0.96774  0.32108  0.63862  1.0000
  C   C1160     1.0  0.99389  0.49256  0.51411  1.0000
  H   H2050     1.0  0.98768  0.34098  0.66459  1.0000
  C   C1161     1.0  0.65195  0.02660  0.65568  1.0000
  H   H2051     1.0  0.68533  0.05959  0.64122  1.0000
  H   H2052     1.0  0.56741  0.05578  0.54895  1.0000
  H   H2053     1.0  0.73413  0.25250  0.75128  1.0000
  C   C1162     1.0  0.98381  0.32318  0.62988  1.0000
  C   C1163     1.0  0.65719  0.20657  0.75239  1.0000
  H   H2054     1.0  0.99505  0.45067  0.55376  1.0000
  H   H2055     1.0  0.55983  0.02805  0.51909  1.0000
  H   H2056     1.0  0.66039  0.02252  0.66728  1.0000
  H   H2057     1.0  0.98682  0.39873  0.65529  1.0000
  H   H2058     1.0  0.50702  0.16702  0.65801  1.0000
  H   H2059     1.0  0.63536  0.01380  0.65545  1.0000
  H   H2060     1.0  0.52171  0.02188  0.50867  1.0000
  H   H2061     1.0  0.62331  0.22539  0.74293  1.0000
  H   H2062     1.0  0.52357  0.03361  0.54782  1.0000
  S   S268      1.0  0.51206  0.08600  0.56938  1.0000
  C   C1164     1.0  0.98946  0.38240  0.66393  1.0000
  C   C1165     1.0  0.96717  0.38330  0.67582  1.0000
  H   H2063     1.0  0.59237  0.00986  0.64013  1.0000
  C   C1166     1.0  0.71307  0.25373  0.75153  1.0000
  H   H2064     1.0  0.61808  0.19421  0.75238  1.0000
  H   H2065     1.0  0.50683  0.06496  0.65365  1.0000
  C   C1167     1.0  0.62858  0.21228  0.75296  1.0000
  C   C1168     1.0  0.56862  0.17177  0.50549  1.0000
  H   H2066     1.0  0.72875  0.01209  0.73656  1.0000
  H   H2067     1.0  0.68885  0.00913  0.61185  1.0000
  C   C1169     1.0  0.66808  0.00744  0.61407  1.0000
  C   C1170     1.0  0.57177  0.00582  0.63965  1.0000
  N   N66       1.0  0.70133  0.22774  0.75428  1.0000
  C   C1171     1.0  0.50565  0.01764  0.51707  1.0000
  C   C1172     1.0  0.00493  0.49474  0.58769  1.0000
  Fe  Fe135     1.0  0.66946  0.16549  0.80231  1.0000
  S   S269      1.0  0.65094  0.20241  0.79450  1.0000
  S   S270      1.0  0.69612  0.14484  0.78578  1.0000
  Fe  Fe136     1.0  0.64837  0.16926  0.83555  1.0000
  S   S271      1.0  0.62938  0.20757  0.82995  1.0000
  S   S272      1.0  0.63853  0.14936  0.85921  1.0000
  Fe  Fe137     1.0  0.61640  0.18911  0.80877  1.0000
  S   S273      1.0  0.57728  0.18743  0.79815  1.0000
  Fe  Fe138     1.0  0.66609  0.21762  0.81626  1.0000
  S   S274      1.0  0.68597  0.25620  0.81062  1.0000
  S   S275      1.0  0.63408  0.15072  0.81486  1.0000
  S   S276      1.0  0.68586  0.18071  0.82367  1.0000
  S   S277      1.0  0.63499  0.04125  0.92289  1.0000
  Fe  Fe139     1.0  0.66052  0.02280  0.90541  1.0000
  S   S278      1.0  0.68386  0.04419  0.88627  1.0000
  Fe  Fe140     1.0  0.81006  0.34397  0.82519  1.0000
  S   S279      1.0  0.84714  0.33703  0.81190  1.0000
  S   S280      1.0  0.78419  0.31109  0.83463  1.0000
  Fe  Fe141     1.0  0.81955  0.40203  0.82505  1.0000
  S   S281      1.0  0.85628  0.39896  0.81132  1.0000
  S   S282      1.0  0.80433  0.43898  0.83481  1.0000
  Fe  Fe142     1.0  0.83597  0.37172  0.79705  1.0000
  S   S283      1.0  0.83927  0.37632  0.77066  1.0000
  Fe  Fe143     1.0  0.86461  0.36473  0.82739  1.0000
  S   S284      1.0  0.90595  0.36174  0.83467  1.0000
  S   S285      1.0  0.79809  0.37755  0.80951  1.0000
  S   S286      1.0  0.82872  0.36896  0.84199  1.0000
  C   C1173     1.0  0.73749  0.20528  0.79180  1.0000
  C   C1174     1.0  0.95925  0.33457  0.81289  1.0000
  S   S287      1.0  0.95102  0.36728  0.90245  1.0000
  H   H2068     1.0  0.94619  0.37579  0.78362  1.0000
  H   H2069     1.0  0.97009  0.48609  0.93395  1.0000
  H   H2070     1.0  0.72705  0.18755  0.79534  1.0000
  H   H2071     1.0  0.74607  0.22964  0.77160  1.0000
  H   H2072     1.0  0.83325  0.50325  0.77583  1.0000
  H   H2073     1.0  0.85316  0.32296  0.77775  1.0000
  C   C1175     1.0  0.91770  0.36464  0.85360  1.0000
  C   C1176     1.0  0.94411  0.36623  0.85525  1.0000
  C   C1177     1.0  0.95448  0.36753  0.87006  1.0000
  C   C1178     1.0  0.93856  0.36703  0.88347  1.0000
  C   C1179     1.0  0.91207  0.36596  0.88181  1.0000
  C   C1180     1.0  0.90166  0.36487  0.86696  1.0000
  H   H2074     1.0  0.95672  0.36612  0.84503  1.0000
  H   H2075     1.0  0.97487  0.36826  0.87111  1.0000
  H   H2076     1.0  0.89955  0.36557  0.89209  1.0000
  H   H2077     1.0  0.88132  0.36348  0.86590  1.0000
  N   N67       1.0  0.97882  0.31439  0.96627  1.0000
  C   C1181     1.0  0.83289  0.47381  0.81603  1.0000
  C   C1182     1.0  0.81504  0.46998  0.82840  1.0000
  H   H2078     1.0  0.66118  0.19279  0.76223  1.0000
  H   H2079     1.0  0.88797  0.36829  0.78474  1.0000
  H   H2080     1.0  0.84059  0.45762  0.81015  1.0000
  H   H2081     1.0  0.72525  0.13815  0.75745  1.0000
  H   H2082     1.0  0.65904  0.30303  0.85983  1.0000
  C   C1183     1.0  0.73491  0.21217  0.77439  1.0000
  C   C1184     1.0  0.98703  0.49164  0.92714  1.0000
  C   C1185     1.0  0.70666  0.21583  0.77028  1.0000
  C   C1186     1.0  0.90574  0.37566  0.77893  1.0000
  C   C1187     1.0  0.71486  0.26931  0.81682  1.0000
  C   C1188     1.0  0.72556  0.26168  0.83106  1.0000
  C   C1189     1.0  0.74704  0.27431  0.83611  1.0000
  C   C1190     1.0  0.75857  0.29435  0.82690  1.0000
  C   C1191     1.0  0.74847  0.30130  0.81237  1.0000
  C   C1192     1.0  0.72652  0.28921  0.80755  1.0000
  H   H2083     1.0  0.71684  0.24656  0.83841  1.0000
  H   H2084     1.0  0.75462  0.26866  0.84735  1.0000
  H   H2085     1.0  0.75718  0.31641  0.80502  1.0000
  H   H2086     1.0  0.71840  0.29550  0.79660  1.0000
  C   C1193     1.0  0.64956  0.11805  0.86421  1.0000
  C   C1194     1.0  0.63495  0.10246  0.87482  1.0000
  C   C1195     1.0  0.64475  0.07899  0.88092  1.0000
  C   C1196     1.0  0.66953  0.07127  0.87677  1.0000
  C   C1197     1.0  0.68368  0.08622  0.86557  1.0000
  C   C1198     1.0  0.67363  0.10945  0.85919  1.0000
  H   H2087     1.0  0.61614  0.10876  0.87854  1.0000
  H   H2088     1.0  0.63344  0.06727  0.88922  1.0000
  H   H2089     1.0  0.70278  0.08029  0.86219  1.0000
  H   H2090     1.0  0.68504  0.12132  0.85100  1.0000
  H   H2091     1.0  0.95521  0.24883  0.94575  1.0000
  H   H2092     1.0  0.92379  0.44340  0.80495  1.0000
  C   C1199     1.0  0.52617  0.17804  0.80239  1.0000
  C   C1200     1.0  0.54695  0.19126  0.80759  1.0000
  C   C1201     1.0  0.54264  0.20853  0.81919  1.0000
  H   H2093     1.0  0.00055  0.33769  0.81345  1.0000
  C   C1202     1.0  0.68669  0.14117  0.76661  1.0000
  H   H2094     1.0  0.52936  0.16445  0.79355  1.0000
  H   H2095     1.0  0.55841  0.21893  0.82327  1.0000
  H   H2096     1.0  0.55049  0.09849  0.86479  1.0000
  H   H2097     1.0  0.53913  0.05235  0.96146  1.0000
  H   H2098     1.0  0.95368  0.44295  0.81479  1.0000
  H   H2099     1.0  0.97421  0.34176  0.78946  1.0000
  H   H2100     1.0  0.92143  0.41323  0.77263  1.0000
  H   H2101     1.0  0.65478  0.31605  0.84021  1.0000
  N   N68       1.0  0.90436  0.45453  0.85247  1.0000
  H   H2102     1.0  0.73821  0.04500  0.86177  1.0000
  C   C1203     1.0  0.92628  0.44378  0.86201  1.0000
  C   C1204     1.0  0.91270  0.45498  0.83545  1.0000
  C   C1205     1.0  0.88142  0.43769  0.85479  1.0000
  C   C1206     1.0  0.86931  0.43545  0.87146  1.0000
  H   H2103     1.0  0.58290  0.13369  0.83506  1.0000
  C   C1207     1.0  0.92140  0.42893  0.82927  1.0000
  C   C1208     1.0  0.92969  0.45442  0.87828  1.0000
  C   C1209     1.0  0.95081  0.44010  0.88706  1.0000
  C   C1210     1.0  0.84522  0.41952  0.87206  1.0000
  C   C1211     1.0  0.53169  0.10725  0.86182  1.0000
  H   H2104     1.0  0.51762  0.11554  0.88575  1.0000
  C   C1212     1.0  0.75041  0.03235  0.85462  1.0000
  C   C1213     1.0  0.89830  0.48173  0.85631  1.0000
  H   H2105     1.0  0.92506  0.42260  0.86371  1.0000
  H   H2106     1.0  0.94487  0.44730  0.85563  1.0000
  Fe  Fe144     1.0  0.99271  0.37597  0.90615  1.0000
  H   H2107     1.0  0.89694  0.46174  0.82789  1.0000
  H   H2108     1.0  0.86642  0.44383  0.84648  1.0000
  H   H2109     1.0  0.88652  0.41782  0.85188  1.0000
  H   H2110     1.0  0.86388  0.45439  0.87564  1.0000
  H   H2111     1.0  0.88275  0.42566  0.87957  1.0000
  C   C1214     1.0  0.65801  0.01922  0.98342  1.0000
  H   H2112     1.0  0.56287  0.25047  0.76605  1.0000
  H   H2113     1.0  0.90448  0.41719  0.82760  1.0000
  C   C1215     1.0  0.54274  0.03229  0.95850  1.0000
  H   H2114     1.0  0.93522  0.47478  0.87694  1.0000
  H   H2115     1.0  0.91200  0.45302  0.88565  1.0000
  H   H2116     1.0  0.95316  0.44843  0.89847  1.0000
  H   H2117     1.0  0.94591  0.41974  0.88929  1.0000
  H   H2118     1.0  0.96924  0.44144  0.88032  1.0000
  H   H2119     1.0  0.84955  0.40010  0.86818  1.0000
  H   H2120     1.0  0.83719  0.41770  0.88420  1.0000
  H   H2121     1.0  0.83064  0.42880  0.86451  1.0000
  C   C1216     1.0  0.70535  0.27352  0.76360  1.0000
  H   H2122     1.0  0.94061  0.41361  0.80909  1.0000
  H   H2123     1.0  0.96433  0.31000  0.79349  1.0000
  C   C1217     1.0  0.90426  0.40473  0.77864  1.0000
  H   H2124     1.0  0.55287  0.10224  0.81319  1.0000
  H   H2125     1.0  0.88252  0.49860  0.83445  1.0000
  H   H2126     1.0  0.87403  0.28626  0.80056  1.0000
  H   H2127     1.0  0.55138  0.03251  0.94650  1.0000
  H   H2128     1.0  0.95074  0.29711  0.99471  1.0000
  H   H2129     1.0  0.89414  0.32668  0.78962  1.0000
  C   C1218     1.0  0.99473  0.44894  0.95961  1.0000
  H   H2130     1.0  0.89393  0.26142  0.80924  1.0000
  H   H2131     1.0  0.72734  0.03590  0.75830  1.0000
  N   N69       1.0  0.67091  0.12369  0.91852  1.0000
  C   C1219     1.0  0.69107  0.10663  0.92598  1.0000
  C   C1220     1.0  0.66591  0.14692  0.92783  1.0000
  C   C1221     1.0  0.64663  0.10860  0.91890  1.0000
  C   C1222     1.0  0.67781  0.13128  0.90170  1.0000
  C   C1223     1.0  0.70256  0.14648  0.89857  1.0000
  C   C1224     1.0  0.69838  0.08211  0.91756  1.0000
  C   C1225     1.0  0.62197  0.12362  0.91438  1.0000
  C   C1226     1.0  0.68887  0.15821  0.93578  1.0000
  C   C1227     1.0  0.68198  0.18409  0.94212  1.0000
  C   C1228     1.0  0.70960  0.14908  0.88114  1.0000
  C   C1229     1.0  0.71752  0.06565  0.92678  1.0000
  C   C1230     1.0  0.59908  0.10595  0.91508  1.0000
  H   H2132     1.0  0.68484  0.10076  0.93821  1.0000
  H   H2133     1.0  0.70914  0.11684  0.92695  1.0000
  H   H2134     1.0  0.65685  0.16242  0.92040  1.0000
  H   H2135     1.0  0.65196  0.14237  0.93766  1.0000
  H   H2136     1.0  0.64296  0.09918  0.93074  1.0000
  H   H2137     1.0  0.64851  0.09299  0.91081  1.0000
  H   H2138     1.0  0.67899  0.11418  0.89471  1.0000
  H   H2139     1.0  0.66252  0.14333  0.89633  1.0000
  H   H2140     1.0  0.71889  0.13713  0.90449  1.0000
  H   H2141     1.0  0.69971  0.16608  0.90252  1.0000
  H   H2142     1.0  0.68168  0.07008  0.91624  1.0000
  H   H2143     1.0  0.70718  0.08696  0.90584  1.0000
  H   H2144     1.0  0.62374  0.13247  0.90237  1.0000
  H   H2145     1.0  0.61749  0.13893  0.92242  1.0000
  H   H2146     1.0  0.69452  0.14521  0.94581  1.0000
  H   H2147     1.0  0.70571  0.16078  0.92779  1.0000
  H   H2148     1.0  0.67709  0.19813  0.93246  1.0000
  H   H2149     1.0  0.66561  0.18234  0.95065  1.0000
  H   H2150     1.0  0.69849  0.19136  0.94812  1.0000
  H   H2151     1.0  0.69364  0.15792  0.87449  1.0000
  C   C1231     1.0  0.67083  0.00622  0.85185  1.0000
  H   H2152     1.0  0.51441  0.22735  0.83357  1.0000
  H   H2153     1.0  0.73523  0.07632  0.92825  1.0000
  H   H2154     1.0  0.70917  0.05937  0.93843  1.0000
  H   H2155     1.0  0.72246  0.04837  0.92040  1.0000
  H   H2156     1.0  0.59603  0.09693  0.92701  1.0000
  H   H2157     1.0  0.58167  0.11704  0.91192  1.0000
  H   H2158     1.0  0.60196  0.09070  0.90676  1.0000
  H   H2159     1.0  0.53398  0.07057  0.88727  1.0000
  C   C1232     1.0  0.54117  0.13416  0.83791  1.0000
  H   H2160     1.0  0.87562  0.29114  0.76171  1.0000
  C   C1233     1.0  0.99868  0.47471  0.91698  1.0000
  H   H2161     1.0  0.93404  0.41791  0.83732  1.0000
  C   C1234     1.0  0.52446  0.23818  0.76224  1.0000
  H   H2162     1.0  0.94133  0.30594  0.94287  1.0000
  C   C1235     1.0  0.89136  0.28240  0.80738  1.0000
  H   H2163     1.0  0.91578  0.49341  0.85446  1.0000
  H   H2164     1.0  0.94139  0.30789  0.77094  1.0000
  C   C1236     1.0  0.80526  0.49135  0.83588  1.0000
  H   H2165     1.0  0.98371  0.43587  0.96785  1.0000
  H   H2166     1.0  0.88861  0.29059  0.81896  1.0000
  H   H2167     1.0  0.98487  0.32987  0.83208  1.0000
  C   C1237     1.0  0.87701  0.49586  0.84701  1.0000
  H   H2168     1.0  0.74341  0.19615  0.76804  1.0000
  H   H2169     1.0  0.69411  0.03563  0.76180  1.0000
  H   H2170     1.0  0.54157  0.15401  0.83255  1.0000
  H   H2171     1.0  0.88723  0.41162  0.77226  1.0000
  H   H2172     1.0  0.97167  0.29168  0.93736  1.0000
  H   H2173     1.0  0.93152  0.28838  0.80560  1.0000
  C   C1238     1.0  0.51466  0.07542  0.88306  1.0000
  H   H2174     1.0  0.53747  0.15943  0.88386  1.0000
  N   N70       1.0  0.93379  0.33668  0.78756  1.0000
  H   H2175     1.0  0.65337  0.05667  0.99212  1.0000
  C   C1239     1.0  0.85386  0.35270  0.75941  1.0000
  H   H2176     1.0  0.51581  0.17119  0.85366  1.0000
  C   C1240     1.0  0.96319  0.33883  0.96428  1.0000
  H   H2177     1.0  0.89263  0.48286  0.86880  1.0000
  H   H2178     1.0  0.73263  0.06085  0.78195  1.0000
  H   H2179     1.0  0.71774  0.00632  0.87298  1.0000
  H   H2180     1.0  0.56064  0.16599  0.85656  1.0000
  H   H2181     1.0  0.71455  0.08995  0.78408  1.0000
  H   H2182     1.0  0.97428  0.34021  0.76353  1.0000
  H   H2183     1.0  0.71281  0.31269  0.76849  1.0000
  Fe  Fe145     1.0  0.60670  0.01238  0.91741  1.0000
  S   S288      1.0  0.65416  0.03096  0.96375  1.0000
  H   H2184     1.0  0.91671  0.28469  0.78733  1.0000
  C   C1241     1.0  0.92902  0.36504  0.78793  1.0000
  H   H2185     1.0  0.95623  0.35504  0.81500  1.0000
  H   H2186     1.0  0.92558  0.37044  0.80016  1.0000
  C   C1242     1.0  0.91185  0.32314  0.79608  1.0000
  H   H2187     1.0  0.99060  0.44429  0.94756  1.0000
  S   S289      1.0  0.00229  0.40489  0.92339  1.0000
  C   C1243     1.0  0.84036  0.49873  0.81100  1.0000
  H   H2188     1.0  0.95420  0.33112  0.99473  1.0000
  H   H2189     1.0  0.71044  0.26649  0.77552  1.0000
  H   H2190     1.0  0.72988  0.22097  0.79882  1.0000
  C   C1244     1.0  0.55527  0.14952  0.88024  1.0000
  C   C1245     1.0  0.57741  0.16491  0.88556  1.0000
  C   C1246     1.0  0.91474  0.29376  0.79863  1.0000
  H   H2191     1.0  0.69691  0.22687  0.77946  1.0000
  C   C1247     1.0  0.95862  0.33017  0.79521  1.0000
  H   H2192     1.0  0.57518  0.13558  0.86051  1.0000
  H   H2193     1.0  0.69158  0.08336  0.76032  1.0000
  H   H2194     1.0  0.55639  0.13042  0.88647  1.0000
  H   H2195     1.0  0.62267  0.22095  0.76402  1.0000
  H   H2196     1.0  0.56963  0.10264  0.83987  1.0000
  H   H2197     1.0  0.66484  0.24104  0.76359  1.0000
  H   H2198     1.0  0.94446  0.32346  0.81971  1.0000
  C   C1248     1.0  0.96331  0.29168  0.96281  1.0000
  H   H2199     1.0  0.88175  0.23572  0.76927  1.0000
  C   C1249     1.0  0.93555  0.32833  0.77106  1.0000
  H   H2200     1.0  0.57582  0.16637  0.89839  1.0000
  H   H2201     1.0  0.59585  0.15545  0.88262  1.0000
  H   H2202     1.0  0.57717  0.18448  0.87988  1.0000
  H   H2203     1.0  0.71431  0.13009  0.87671  1.0000
  C   C1250     1.0  0.93573  0.43255  0.81353  1.0000
  H   H2204     1.0  0.85400  0.50144  0.80136  1.0000
  H   H2205     1.0  0.75785  0.20211  0.79441  1.0000
  N   N71       1.0  0.71760  0.36409  0.83733  1.0000
  C   C1251     1.0  0.73344  0.36714  0.82235  1.0000
  C   C1252     1.0  0.73509  0.35990  0.85083  1.0000
  C   C1253     1.0  0.70219  0.34015  0.83665  1.0000
  C   C1254     1.0  0.69962  0.38642  0.83973  1.0000
  C   C1255     1.0  0.70850  0.41315  0.83308  1.0000
  C   C1256     1.0  0.71857  0.36621  0.80713  1.0000
  C   C1257     1.0  0.68703  0.33128  0.85177  1.0000
  C   C1258     1.0  0.75460  0.38097  0.85307  1.0000
  C   C1259     1.0  0.77237  0.37290  0.86621  1.0000
  C   C1260     1.0  0.69107  0.43431  0.83901  1.0000
  C   C1261     1.0  0.73468  0.37556  0.79283  1.0000
  H   H2206     1.0  0.74841  0.35192  0.82207  1.0000
  H   H2207     1.0  0.74421  0.38513  0.82167  1.0000
  H   H2208     1.0  0.72394  0.35788  0.86206  1.0000
  H   H2209     1.0  0.74588  0.34158  0.84980  1.0000
  H   H2210     1.0  0.71476  0.32388  0.83348  1.0000
  H   H2211     1.0  0.68808  0.34254  0.82733  1.0000
  H   H2212     1.0  0.68107  0.38338  0.83432  1.0000
  H   H2213     1.0  0.69478  0.38771  0.85238  1.0000
  H   H2214     1.0  0.70801  0.41442  0.82016  1.0000
  H   H2215     1.0  0.72814  0.41736  0.83613  1.0000
  H   H2216     1.0  0.71320  0.34627  0.80534  1.0000
  H   H2217     1.0  0.70087  0.37795  0.80766  1.0000
  H   H2218     1.0  0.67546  0.34719  0.85640  1.0000
  H   H2219     1.0  0.70018  0.32380  0.86083  1.0000
  H   H2220     1.0  0.76671  0.38513  0.84242  1.0000
  H   H2221     1.0  0.74467  0.39864  0.85650  1.0000
  H   H2222     1.0  0.78284  0.35501  0.86360  1.0000
  H   H2223     1.0  0.78648  0.38809  0.86742  1.0000
  H   H2224     1.0  0.76145  0.36985  0.87746  1.0000
  H   H2225     1.0  0.69748  0.45306  0.83373  1.0000
  H   H2226     1.0  0.67113  0.43145  0.83574  1.0000
  H   H2227     1.0  0.69181  0.43475  0.85189  1.0000
  H   H2228     1.0  0.72345  0.37474  0.78219  1.0000
  H   H2229     1.0  0.74055  0.39559  0.79384  1.0000
  H   H2230     1.0  0.75191  0.36325  0.79147  1.0000
  H   H2231     1.0  0.69848  0.05989  0.78579  1.0000
  C   C1262     1.0  0.85898  0.32810  0.76580  1.0000
  H   H2232     1.0  0.92606  0.36886  0.94872  1.0000
  C   C1263     1.0  0.66100  0.14095  0.76304  1.0000
  H   H2233     1.0  0.69830  0.19657  0.77188  1.0000
  H   H2234     1.0  0.92842  0.46883  0.83308  1.0000
  H   H2235     1.0  0.90201  0.49160  0.95708  1.0000
  H   H2236     1.0  0.68011  0.29313  0.84424  1.0000
  H   H2237     1.0  0.98842  0.46886  0.96146  1.0000
  H   H2238     1.0  0.72652  0.16135  0.87909  1.0000
  C   C1264     1.0  0.66916  0.30958  0.84878  1.0000
  H   H2239     1.0  0.64649  0.14324  0.77214  1.0000
  C   C1265     1.0  0.55727  0.14673  0.86243  1.0000
  H   H2240     1.0  0.90773  0.33114  0.80760  1.0000
  H   H2241     1.0  0.63763  0.02930  0.84579  1.0000
  H   H2242     1.0  0.99063  0.45623  0.91587  1.0000
  H   H2243     1.0  0.75772  0.04373  0.84414  1.0000
  H   H2244     1.0  0.51599  0.25620  0.76619  1.0000
  H   H2245     1.0  0.56524  0.13384  0.80854  1.0000
  C   C1266     1.0  0.65669  0.03666  0.99523  1.0000
  C   C1267     1.0  0.71417  0.07062  0.77953  1.0000
  H   H2246     1.0  0.94273  0.33514  0.96726  1.0000
  H   H2247     1.0  0.74000  0.29584  0.76063  1.0000
  H   H2248     1.0  0.54777  0.23370  0.78269  1.0000
  C   C1268     1.0  0.71909  0.29870  0.75990  1.0000
  S   S290      1.0  0.56775  0.02744  0.91201  1.0000
  C   C1269     1.0  0.64287  0.01377  0.85448  1.0000
  H   H2249     1.0  0.51463  0.02895  0.90620  1.0000
  H   H2250     1.0  0.79149  0.48865  0.84548  1.0000
  H   H2251     1.0  0.98427  0.36217  0.94625  1.0000
  H   H2252     1.0  0.98368  0.38504  0.99708  1.0000
  H   H2253     1.0  0.76684  0.02534  0.86151  1.0000
  H   H2254     1.0  0.91654  0.32927  0.76581  1.0000
  C   C1270     1.0  0.51787  0.01755  0.95916  1.0000
  H   H2255     1.0  0.92484  0.26309  0.95136  1.0000
  H   H2256     1.0  0.94534  0.29121  0.97005  1.0000
  H   H2257     1.0  0.94917  0.38944  0.95655  1.0000
  H   H2258     1.0  0.55659  0.02321  0.96662  1.0000
  C   C1271     1.0  0.56784  0.11584  0.81579  1.0000
  H   H2259     1.0  0.90238  0.41117  0.79067  1.0000
  C   C1272     1.0  0.98496  0.32646  0.81945  1.0000
  C   C1273     1.0  0.94579  0.37606  0.94735  1.0000
  H   H2260     1.0  0.96893  0.35278  0.97267  1.0000
  H   H2261     1.0  0.68208  0.02346  0.85346  1.0000
  C   C1274     1.0  0.96502  0.35391  0.94816  1.0000
  H   H2262     1.0  0.94781  0.38670  0.93581  1.0000
  N   N72       1.0  0.53514  0.13442  0.85523  1.0000
  H   H2263     1.0  0.86373  0.49313  0.76759  1.0000
  H   H2264     1.0  0.90636  0.37034  0.76665  1.0000
  C   C1275     1.0  0.51764  0.21336  0.82495  1.0000
  H   H2265     1.0  0.96168  0.34181  0.93837  1.0000
  H   H2266     1.0  0.85889  0.48532  0.84827  1.0000
  C   C1276     1.0  0.95519  0.29037  0.94577  1.0000
  H   H2267     1.0  0.93593  0.26505  0.93124  1.0000
  H   H2268     1.0  0.68462  0.27777  0.76359  1.0000
  C   C1277     1.0  0.94199  0.26525  0.94347  1.0000
  C   C1278     1.0  0.70991  0.07300  0.76202  1.0000
  C   C1279     1.0  0.96457  0.31255  0.99568  1.0000
  C   C1280     1.0  0.55023  0.23435  0.76978  1.0000
  H   H2269     1.0  0.50843  0.20980  0.77894  1.0000
  H   H2270     1.0  0.99969  0.38555  0.96942  1.0000
  C   C1281     1.0  0.84494  0.50194  0.76487  1.0000
  H   H2271     1.0  0.63965  0.02098  0.86628  1.0000
  H   H2272     1.0  0.84999  0.22375  0.76830  1.0000
  C   C1282     1.0  0.95448  0.34309  0.75970  1.0000
  C   C1283     1.0  0.56674  0.12105  0.83309  1.0000
  C   C1284     1.0  0.50697  0.21500  0.76627  1.0000
  H   H2273     1.0  0.98867  0.30582  0.81809  1.0000
  H   H2274     1.0  0.55961  0.21633  0.76632  1.0000
  H   H2275     1.0  0.58671  0.10746  0.81260  1.0000
  C   C1285     1.0  0.00301  0.31616  0.95626  1.0000
  C   C1286     1.0  0.70948  0.04636  0.75517  1.0000
  C   C1287     1.0  0.87150  0.31005  0.75665  1.0000
  C   C1288     1.0  0.00342  0.38033  0.99445  1.0000
  H   H2276     1.0  0.71953  0.01795  0.84240  1.0000
  H   H2277     1.0  0.51642  0.19893  0.76029  1.0000
  H   H2278     1.0  0.72543  0.08483  0.75652  1.0000
  H   H2279     1.0  0.95006  0.36383  0.75889  1.0000
  C   C1289     1.0  0.86980  0.22217  0.76346  1.0000
  H   H2280     1.0  0.87728  0.20253  0.76606  1.0000
  H   H2281     1.0  0.52427  0.09514  0.85286  1.0000
  C   C1290     1.0  0.73503  0.01000  0.84965  1.0000
  C   C1291     1.0  0.51903  0.01088  0.91228  1.0000
  Fe  Fe146     1.0  0.64899  0.01174  0.94084  1.0000
  H   H2282     1.0  0.83501  0.48937  0.75720  1.0000
  C   C1292     1.0  0.51161  0.15092  0.85739  1.0000
  H   H2283     1.0  0.97348  0.27360  0.96630  1.0000
  H   H2284     1.0  0.52588  0.12445  0.83203  1.0000
  C   C1293     1.0  0.51336  0.10302  0.87635  1.0000
  C   C1294     1.0  0.98646  0.31113  0.98308  1.0000
  H   H2285     1.0  0.99895  0.31928  0.94374  1.0000
  H   H2286     1.0  0.50973  0.06205  0.87415  1.0000
  H   H2287     1.0  0.00064  0.32584  0.98549  1.0000
  H   H2288     1.0  0.99611  0.29235  0.98542  1.0000
  H   H2289     1.0  0.50557  0.15134  0.86985  1.0000
  C   C1295     1.0  0.50583  0.01560  0.97600  1.0000
  H   H2290     1.0  0.50610  0.03500  0.98035  1.0000
  H   H2291     1.0  0.50512  0.02762  0.95077  1.0000
  C   C1296     1.0  0.70534  0.13805  0.75474  1.0000
  Fe  Fe147     1.0  0.63288  0.98116  0.08919  1.0000
  S   S291      1.0  0.62492  0.94015  0.09810  1.0000
  H   H2292     1.0  0.82741  0.51385  0.22374  1.0000
  Fe  Fe148     1.0  0.64258  0.84746  0.17311  1.0000
  S   S292      1.0  0.63887  0.81407  0.15833  1.0000
  S   S293      1.0  0.64621  0.88969  0.16555  1.0000
  Fe  Fe149     1.0  0.63795  0.81371  0.20320  1.0000
  S   S294      1.0  0.63305  0.77773  0.19068  1.0000
  S   S295      1.0  0.63654  0.81159  0.22955  1.0000
  Fe  Fe150     1.0  0.66526  0.79262  0.17495  1.0000
  S   S296      1.0  0.70013  0.77024  0.16598  1.0000
  Fe  Fe151     1.0  0.60697  0.80188  0.17536  1.0000
  S   S297      1.0  0.56977  0.78880  0.16567  1.0000
  S   S298      1.0  0.67149  0.82731  0.18836  1.0000
  S   S299      1.0  0.60934  0.83647  0.18921  1.0000
  H   H2293     1.0  0.51015  0.73876  0.19046  1.0000
  H   H2294     1.0  0.73686  0.90923  0.16193  1.0000
  S   S300      1.0  0.96423  0.59029  0.12315  1.0000
  Fe  Fe152     1.0  0.81251  0.59395  0.18035  1.0000
  S   S301      1.0  0.85332  0.60174  0.18445  1.0000
  S   S302      1.0  0.79782  0.55676  0.17188  1.0000
  Fe  Fe153     1.0  0.79446  0.64818  0.18849  1.0000
  S   S303      1.0  0.83425  0.65994  0.19322  1.0000
  S   S304      1.0  0.75791  0.67083  0.19467  1.0000
  Fe  Fe154     1.0  0.84659  0.63953  0.17177  1.0000
  S   S305      1.0  0.87737  0.65728  0.15548  1.0000
  Fe  Fe155     1.0  0.83884  0.62140  0.20559  1.0000
  S   S306      1.0  0.86020  0.61208  0.22768  1.0000
  S   S307      1.0  0.80634  0.63079  0.16590  1.0000
  S   S308      1.0  0.79828  0.61057  0.20256  1.0000
  H   H2295     1.0  0.93396  0.57999  0.20702  1.0000
  H   H2296     1.0  0.85711  0.77896  0.22687  1.0000
  H   H2297     1.0  0.95399  0.64826  0.16550  1.0000
  H   H2298     1.0  0.68880  0.00515  0.11854  1.0000
  H   H2299     1.0  0.85236  0.53499  0.15491  1.0000
  H   H2300     1.0  0.84099  0.53987  0.19056  1.0000
  H   H2301     1.0  0.75830  0.98657  0.08818  1.0000
  H   H2302     1.0  0.69768  0.90430  0.13671  1.0000
  C   C1297     1.0  0.86793  0.63604  0.24016  1.0000
  C   C1298     1.0  0.86430  0.66192  0.23589  1.0000
  C   C1299     1.0  0.87216  0.68055  0.24568  1.0000
  H   H2303     1.0  0.78772  0.65698  0.13554  1.0000
  H   H2304     1.0  0.85576  0.66758  0.22496  1.0000
  H   H2305     1.0  0.86978  0.70052  0.24214  1.0000
  C   C1300     1.0  0.94017  0.60954  0.13170  1.0000
  C   C1301     1.0  0.92074  0.59751  0.14095  1.0000
  C   C1302     1.0  0.90133  0.61187  0.14818  1.0000
  C   C1303     1.0  0.90123  0.63850  0.14633  1.0000
  C   C1304     1.0  0.92073  0.65058  0.13714  1.0000
  C   C1305     1.0  0.94012  0.63618  0.12982  1.0000
  H   H2306     1.0  0.92066  0.57693  0.14245  1.0000
  H   H2307     1.0  0.88634  0.60232  0.15508  1.0000
  H   H2308     1.0  0.92077  0.67117  0.13561  1.0000
  H   H2309     1.0  0.95498  0.64566  0.12275  1.0000
  C   C1306     1.0  0.73941  0.79385  0.21250  1.0000
  C   C1307     1.0  0.71681  0.74363  0.17481  1.0000
  C   C1308     1.0  0.70713  0.72982  0.18807  1.0000
  C   C1309     1.0  0.72021  0.70789  0.19411  1.0000
  C   C1310     1.0  0.74327  0.69960  0.18708  1.0000
  C   C1311     1.0  0.75333  0.71383  0.17409  1.0000
  C   C1312     1.0  0.74008  0.73558  0.16793  1.0000
  H   H2310     1.0  0.68909  0.73552  0.19330  1.0000
  H   H2311     1.0  0.71217  0.69699  0.20413  1.0000
  H   H2312     1.0  0.77124  0.70804  0.16873  1.0000
  H   H2313     1.0  0.74784  0.74616  0.15770  1.0000
  H   H2314     1.0  0.67794  0.92258  0.08504  1.0000
  H   H2315     1.0  0.68288  0.95721  0.24311  1.0000
  C   C1313     1.0  0.51729  0.78979  0.16661  1.0000
  C   C1314     1.0  0.53942  0.79615  0.17415  1.0000
  C   C1315     1.0  0.53692  0.80826  0.18816  1.0000
  S   S309      1.0  0.61611  0.99123  0.06599  1.0000
  H   H2316     1.0  0.72045  0.93761  0.09212  1.0000
  H   H2317     1.0  0.51903  0.78041  0.15577  1.0000
  H   H2318     1.0  0.55373  0.81323  0.19410  1.0000
  H   H2319     1.0  0.52576  0.98041  0.02322  1.0000
  H   H2320     1.0  0.63568  0.93834  0.02382  1.0000
  C   C1316     1.0  0.67549  0.84580  0.23158  1.0000
  C   C1317     1.0  0.65796  0.82960  0.23957  1.0000
  H   H2321     1.0  0.72844  0.73725  0.22157  1.0000
  C   C1318     1.0  0.99404  0.68832  0.04989  1.0000
  H   H2322     1.0  0.67563  0.84809  0.21902  1.0000
  H   H2323     1.0  0.93926  0.67406  0.19125  1.0000
  C   C1319     1.0  0.62936  0.92643  0.11710  1.0000
  C   C1320     1.0  0.63444  0.90010  0.11905  1.0000
  C   C1321     1.0  0.63970  0.88864  0.13383  1.0000
  C   C1322     1.0  0.63890  0.90320  0.14688  1.0000
  C   C1323     1.0  0.63315  0.92941  0.14501  1.0000
  C   C1324     1.0  0.62847  0.94102  0.13016  1.0000
  H   H2324     1.0  0.63522  0.88868  0.10899  1.0000
  H   H2325     1.0  0.64499  0.86868  0.13510  1.0000
  H   H2326     1.0  0.63256  0.94082  0.15507  1.0000
  H   H2327     1.0  0.62414  0.96122  0.12883  1.0000
  C   C1325     1.0  0.52767  0.74156  0.21234  1.0000
  C   C1326     1.0  0.88598  0.51206  0.14897  1.0000
  H   H2328     1.0  0.98681  0.62502  0.15075  1.0000
  S   S310      1.0  0.66951  0.99160  0.03485  1.0000
  C   C1327     1.0  0.53852  0.97757  0.03322  1.0000
  C   C1328     1.0  0.96114  0.62978  0.17072  1.0000
  H   H2329     1.0  0.75530  0.81792  0.19326  1.0000
  C   C1329     1.0  0.75787  0.74614  0.23738  1.0000
  H   H2330     1.0  0.77786  0.68339  0.14699  1.0000
  C   C1330     1.0  0.73632  0.81171  0.19798  1.0000
  N   N73       1.0  0.56262  0.85255  0.13343  1.0000
  C   C1331     1.0  0.54348  0.83305  0.12953  1.0000
  C   C1332     1.0  0.58877  0.84034  0.13237  1.0000
  C   C1333     1.0  0.55745  0.85882  0.15020  1.0000
  C   C1334     1.0  0.56135  0.87706  0.12324  1.0000
  C   C1335     1.0  0.55283  0.87522  0.10625  1.0000
  H   H2331     1.0  0.74195  0.79071  0.24502  1.0000
  C   C1336     1.0  0.57683  0.87659  0.15712  1.0000
  C   C1337     1.0  0.59857  0.83301  0.11601  1.0000
  C   C1338     1.0  0.62361  0.81787  0.11693  1.0000
  C   C1339     1.0  0.55597  0.90078  0.09692  1.0000
  H   H2332     1.0  0.84157  0.74954  0.23364  1.0000
  C   C1340     1.0  0.56664  0.88649  0.17253  1.0000
  H   H2333     1.0  0.54718  0.81456  0.13623  1.0000
  H   H2334     1.0  0.54561  0.82846  0.11714  1.0000
  H   H2335     1.0  0.60330  0.85319  0.13630  1.0000
  H   H2336     1.0  0.58960  0.82297  0.14047  1.0000
  H   H2337     1.0  0.55665  0.84106  0.15793  1.0000
  H   H2338     1.0  0.53845  0.86821  0.15157  1.0000
  H   H2339     1.0  0.54803  0.89108  0.12852  1.0000
  H   H2340     1.0  0.58020  0.88655  0.12269  1.0000
  H   H2341     1.0  0.53246  0.87017  0.10612  1.0000
  H   H2342     1.0  0.56383  0.86063  0.10001  1.0000
  C   C1341     1.0  0.75473  0.96443  0.11044  1.0000
  H   H2343     1.0  0.76733  0.76273  0.23129  1.0000
  H   H2344     1.0  0.58139  0.89331  0.14905  1.0000
  H   H2345     1.0  0.59476  0.86593  0.15961  1.0000
  H   H2346     1.0  0.58489  0.82103  0.11041  1.0000
  H   H2347     1.0  0.60237  0.85052  0.10845  1.0000
  H   H2348     1.0  0.62096  0.79981  0.12421  1.0000
  H   H2349     1.0  0.63030  0.81305  0.10506  1.0000
  H   H2350     1.0  0.63852  0.82923  0.12197  1.0000
  H   H2351     1.0  0.54933  0.89923  0.08491  1.0000
  H   H2352     1.0  0.54464  0.91605  0.10247  1.0000
  H   H2353     1.0  0.57632  0.90629  0.09609  1.0000
  H   H2354     1.0  0.69524  0.92548  0.15244  1.0000
  H   H2355     1.0  0.68400  0.73036  0.22237  1.0000
  H   H2356     1.0  0.53831  0.72315  0.21196  1.0000
  H   H2357     1.0  0.54972  0.89908  0.17062  1.0000
  H   H2358     1.0  0.56139  0.87035  0.18094  1.0000
  H   H2359     1.0  0.58163  0.89765  0.17768  1.0000
  N   N74       1.0  0.93594  0.63333  0.19695  1.0000
  C   C1342     1.0  0.93931  0.63134  0.21434  1.0000
  C   C1343     1.0  0.91793  0.61275  0.19305  1.0000
  C   C1344     1.0  0.92469  0.65890  0.19164  1.0000
  C   C1345     1.0  0.90136  0.66814  0.20140  1.0000
  C   C1346     1.0  0.95578  0.65223  0.22082  1.0000
  H   H2360     1.0  0.70203  0.97785  0.14328  1.0000
  H   H2361     1.0  0.66805  0.75977  0.21607  1.0000
  C   C1347     1.0  0.89092  0.69355  0.19451  1.0000
  H   H2362     1.0  0.53375  0.97623  0.05856  1.0000
  H   H2363     1.0  0.94853  0.61286  0.21798  1.0000
  H   H2364     1.0  0.92042  0.63096  0.22072  1.0000
  H   H2365     1.0  0.90029  0.61357  0.20059  1.0000
  H   H2366     1.0  0.91130  0.61611  0.18094  1.0000
  H   H2367     1.0  0.91850  0.65855  0.17940  1.0000
  H   H2368     1.0  0.90640  0.67118  0.21354  1.0000
  H   H2369     1.0  0.88607  0.65388  0.20180  1.0000
  H   H2370     1.0  0.95027  0.67168  0.21634  1.0000
  H   H2371     1.0  0.57101  0.00193  0.08794  1.0000
  H   H2372     1.0  0.51334  0.99931  0.04845  1.0000
  H   H2373     1.0  0.74915  0.80471  0.22110  1.0000
  H   H2374     1.0  0.72496  0.82892  0.20089  1.0000
  C   C1348     1.0  0.67228  0.74668  0.22629  1.0000
  H   H2375     1.0  0.90570  0.70843  0.19419  1.0000
  H   H2376     1.0  0.88442  0.69149  0.18252  1.0000
  H   H2377     1.0  0.87445  0.69988  0.20184  1.0000
  H   H2378     1.0  0.90218  0.56963  0.17885  1.0000
  C   C1349     1.0  0.64677  0.73646  0.23282  1.0000
  C   C1350     1.0  0.72451  0.93646  0.13413  1.0000
  S   S311      1.0  0.67172  0.99448  0.08079  1.0000
  C   C1351     1.0  0.99754  0.61467  0.01553  1.0000
  C   C1352     1.0  0.60257  0.98037  0.02457  1.0000
  H   H2379     1.0  0.89165  0.50837  0.16124  1.0000
  H   H2380     1.0  0.91667  0.54611  0.19198  1.0000
  H   H2381     1.0  0.63231  0.94786  0.04364  1.0000
  H   H2382     1.0  0.70286  0.89905  0.08254  1.0000
  H   H2383     1.0  0.95896  0.63258  0.24383  1.0000
  C   C1353     1.0  0.90844  0.56572  0.19098  1.0000
  S   S312      1.0  0.00437  0.57554  0.08681  1.0000
  H   H2384     1.0  0.56211  0.96510  0.00771  1.0000
  H   H2385     1.0  0.68298  0.95491  0.10506  1.0000
  C   C1354     1.0  0.51259  0.81341  0.19474  1.0000
  H   H2386     1.0  0.68096  0.89571  0.09913  1.0000
  H   H2387     1.0  0.99580  0.55677  0.05435  1.0000
  H   H2388     1.0  0.90342  0.51484  0.14144  1.0000
  C   C1355     1.0  0.00204  0.54105  0.02515  1.0000
  C   C1356     1.0  0.76841  0.98392  0.09930  1.0000
  H   H2389     1.0  0.98501  0.52964  0.02335  1.0000
  H   H2390     1.0  0.72264  0.91118  0.10662  1.0000
  H   H2391     1.0  0.73037  0.99059  0.12198  1.0000
  C   C1357     1.0  0.69165  0.90968  0.09130  1.0000
  C   C1358     1.0  0.62265  0.93848  0.03429  1.0000
  H   H2392     1.0  0.63700  0.72693  0.22359  1.0000
  H   H2393     1.0  0.68017  0.92889  0.11874  1.0000
  H   H2394     1.0  0.94515  0.58202  0.18695  1.0000
  H   H2395     1.0  0.76432  0.70488  0.23914  1.0000
  H   H2396     1.0  0.97160  0.61281  0.19346  1.0000
  H   H2397     1.0  0.97409  0.64630  0.19119  1.0000
  H   H2398     1.0  0.73888  0.92551  0.12742  1.0000
  H   H2399     1.0  0.51484  0.95977  0.15274  1.0000
  N   N75       1.0  0.71329  0.76858  0.23445  1.0000
  C   C1359     1.0  0.68364  0.94083  0.25185  1.0000
  H   H2400     1.0  0.96259  0.52457  0.04480  1.0000
  C   C1360     1.0  0.51518  0.84011  0.13298  1.0000
  H   H2401     1.0  0.74401  0.65157  0.12754  1.0000
  H   H2402     1.0  0.75486  0.94608  0.10479  1.0000
  H   H2403     1.0  0.97615  0.64900  0.21753  1.0000
  H   H2404     1.0  0.54631  0.95788  0.03328  1.0000
  H   H2405     1.0  0.73555  0.94729  0.14227  1.0000
  N   N76       1.0  0.71603  0.63470  0.15675  1.0000
  C   C1361     1.0  0.70352  0.62863  0.14192  1.0000
  C   C1362     1.0  0.74253  0.64477  0.15308  1.0000
  C   C1363     1.0  0.71861  0.60991  0.16654  1.0000
  C   C1364     1.0  0.70027  0.65300  0.16613  1.0000
  C   C1365     1.0  0.69292  0.67892  0.15780  1.0000
  C   C1366     1.0  0.67621  0.61787  0.14383  1.0000
  C   C1367     1.0  0.73376  0.61095  0.18165  1.0000
  H   H2406     1.0  0.78810  0.97706  0.09663  1.0000
  H   H2407     1.0  0.61115  0.98944  0.03433  1.0000
  C   C1368     1.0  0.67074  0.69172  0.16649  1.0000
  C   C1369     1.0  0.66508  0.61429  0.12795  1.0000
  C   C1370     1.0  0.73512  0.58467  0.19028  1.0000
  H   H2408     1.0  0.71558  0.61462  0.13561  1.0000
  H   H2409     1.0  0.70231  0.64563  0.13369  1.0000
  H   H2410     1.0  0.74928  0.65508  0.16305  1.0000
  H   H2411     1.0  0.71847  0.98193  0.10405  1.0000
  H   H2412     1.0  0.72796  0.59500  0.15947  1.0000
  H   H2413     1.0  0.69959  0.60246  0.17038  1.0000
  H   H2414     1.0  0.68264  0.64362  0.17099  1.0000
  H   H2415     1.0  0.71057  0.65797  0.17656  1.0000
  H   H2416     1.0  0.68701  0.67718  0.14572  1.0000
  H   H2417     1.0  0.70937  0.69190  0.15761  1.0000
  H   H2418     1.0  0.67619  0.59894  0.15029  1.0000
  H   H2419     1.0  0.66327  0.63103  0.15006  1.0000
  H   H2420     1.0  0.72455  0.62417  0.18979  1.0000
  H   H2421     1.0  0.75355  0.61720  0.17899  1.0000
  H   H2422     1.0  0.54029  0.75703  0.20743  1.0000
  C   C1371     1.0  0.92839  0.58491  0.19489  1.0000
  C   C1372     1.0  0.74658  0.66242  0.13805  1.0000
  H   H2423     1.0  0.00393  0.69969  0.00560  1.0000
  H   H2424     1.0  0.66811  0.71163  0.16159  1.0000
  H   H2425     1.0  0.65288  0.68121  0.16521  1.0000
  H   H2426     1.0  0.67446  0.69228  0.17908  1.0000
  H   H2427     1.0  0.66361  0.63286  0.12111  1.0000
  H   H2428     1.0  0.67713  0.60088  0.12127  1.0000
  H   H2429     1.0  0.64570  0.60626  0.12962  1.0000
  H   H2430     1.0  0.71575  0.57779  0.19372  1.0000
  H   H2431     1.0  0.74492  0.57068  0.18285  1.0000
  H   H2432     1.0  0.74604  0.58584  0.20101  1.0000
  C   C1373     1.0  0.59770  0.95242  0.03043  1.0000
  C   C1374     1.0  0.95326  0.65159  0.23861  1.0000
  C   C1375     1.0  0.85978  0.76003  0.23314  1.0000
  H   H2433     1.0  0.64752  0.99475  0.14430  1.0000
  H   H2434     1.0  0.75174  0.77767  0.20898  1.0000
  C   C1376     1.0  0.97368  0.52213  0.05548  1.0000
  C   C1377     1.0  0.55974  0.99788  0.03187  1.0000
  C   C1378     1.0  0.86892  0.76311  0.24957  1.0000
  H   H2435     1.0  0.77223  0.72002  0.22015  1.0000
  C   C1379     1.0  0.83247  0.52325  0.18620  1.0000
  H   H2436     1.0  0.76942  0.00259  0.10464  1.0000
  H   H2437     1.0  0.70627  0.87184  0.23364  1.0000
  H   H2438     1.0  0.73907  0.88766  0.14622  1.0000
  H   H2439     1.0  0.66913  0.91447  0.23594  1.0000
  C   C1380     1.0  0.68613  0.76111  0.23862  1.0000
  H   H2440     1.0  0.70268  0.93152  0.25084  1.0000
  C   C1381     1.0  0.69282  0.85927  0.23989  1.0000
  H   H2441     1.0  0.71386  0.88440  0.16096  1.0000
  H   H2442     1.0  0.61802  0.98049  0.01548  1.0000
  C   C1382     1.0  0.99951  0.53588  0.05375  1.0000
  N   N77       1.0  0.70977  0.95491  0.12355  1.0000
  H   H2443     1.0  0.97619  0.68413  0.07322  1.0000
  C   C1383     1.0  0.72580  0.89838  0.15387  1.0000
  H   H2444     1.0  0.87417  0.74889  0.22650  1.0000
  C   C1384     1.0  0.72937  0.74452  0.23344  1.0000
  H   H2445     1.0  0.70663  0.77199  0.20962  1.0000
  H   H2446     1.0  0.93929  0.52152  0.07028  1.0000
  C   C1385     1.0  0.71338  0.78371  0.21892  1.0000
  H   H2447     1.0  0.95473  0.68196  0.05752  1.0000
  C   C1386     1.0  0.53155  0.99231  0.09146  1.0000
  C   C1387     1.0  0.96156  0.63028  0.18876  1.0000
  C   C1388     1.0  0.77359  0.67279  0.13666  1.0000
  H   H2448     1.0  0.73316  0.67884  0.13770  1.0000
  C   C1389     1.0  0.97409  0.67679  0.06150  1.0000
  H   H2449     1.0  0.75625  0.62858  0.15162  1.0000
  H   H2450     1.0  0.53106  0.97414  0.13565  1.0000
  H   H2451     1.0  0.93331  0.65594  0.24244  1.0000
  C   C1390     1.0  0.81123  0.52620  0.17690  1.0000
  H   H2452     1.0  0.67085  0.96557  0.00635  1.0000
  H   H2453     1.0  0.72681  0.80181  0.18878  1.0000
  C   C1391     1.0  0.70863  0.91633  0.14414  1.0000
  H   H2454     1.0  0.96570  0.66619  0.24305  1.0000
  H   H2455     1.0  0.69971  0.80015  0.21952  1.0000
  H   H2456     1.0  0.88161  0.55232  0.15311  1.0000
  H   H2457     1.0  0.94879  0.61451  0.16710  1.0000
  H   H2458     1.0  0.77564  0.68602  0.12612  1.0000
  N   N78       1.0  0.57994  0.99577  0.01892  1.0000
  H   H2459     1.0  0.67708  0.95690  0.13961  1.0000
  H   H2460     1.0  0.79278  0.72344  0.23618  1.0000
  C   C1392     1.0  0.72163  0.78572  0.24674  1.0000
  H   H2461     1.0  0.50658  0.96580  0.04865  1.0000
  C   C1393     1.0  0.50643  0.99956  0.08845  1.0000
  C   C1394     1.0  0.70953  0.92495  0.10064  1.0000
  H   H2462     1.0  0.89173  0.56656  0.19924  1.0000
  C   C1395     1.0  0.77262  0.72214  0.23293  1.0000
  H   H2463     1.0  0.68523  0.74867  0.24957  1.0000
  C   C1396     1.0  0.95711  0.53256  0.06871  1.0000
  H   H2464     1.0  0.63433  0.75236  0.23670  1.0000
  H   H2465     1.0  0.51091  0.82225  0.20578  1.0000
  H   H2466     1.0  0.58567  0.95190  0.04132  1.0000
  H   H2467     1.0  0.66242  0.98422  0.11751  1.0000
  C   C1397     1.0  0.69154  0.96966  0.13377  1.0000
  C   C1398     1.0  0.69441  0.94117  0.11231  1.0000
  C   C1399     1.0  0.67620  0.99174  0.12545  1.0000
  H   H2468     1.0  0.64475  0.93027  0.24728  1.0000
  H   H2469     1.0  0.61875  0.91846  0.03846  1.0000
  H   H2470     1.0  0.99068  0.70916  0.04899  1.0000
  C   C1400     1.0  0.87066  0.53708  0.14815  1.0000
  H   H2471     1.0  0.53557  0.97467  0.09813  1.0000
  H   H2472     1.0  0.86666  0.54309  0.13586  1.0000
  H   H2473     1.0  0.72151  0.72884  0.24142  1.0000
  H   H2474     1.0  0.97729  0.61318  0.01805  1.0000
  H   H2475     1.0  0.95208  0.55293  0.06597  1.0000
  H   H2476     1.0  0.56881  0.99805  0.04339  1.0000
  H   H2477     1.0  0.76606  0.96175  0.12110  1.0000
  C   C1401     1.0  0.52209  0.97994  0.04813  1.0000
  H   H2478     1.0  0.58848  0.94168  0.02155  1.0000
  C   C1402     1.0  0.52253  0.95621  0.14084  1.0000
  C   C1403     1.0  0.98776  0.62507  0.16364  1.0000
  H   H2479     1.0  0.71124  0.80440  0.24563  1.0000
  H   H2480     1.0  0.67438  0.77825  0.24113  1.0000
  H   H2481     1.0  0.69378  0.99422  0.25216  1.0000
  C   C1404     1.0  0.66488  0.00286  0.01516  1.0000
  H   H2482     1.0  0.96721  0.53092  0.07984  1.0000
  H   H2483     1.0  0.84036  0.51078  0.24289  1.0000
  Fe  Fe156     1.0  0.99735  0.60156  0.10638  1.0000
  H   H2484     1.0  0.97588  0.65567  0.06238  1.0000
  C   C1405     1.0  0.66408  0.92145  0.24762  1.0000
  C   C1406     1.0  0.72742  0.97386  0.11488  1.0000
  H   H2485     1.0  0.64962  0.72238  0.24280  1.0000
  H   H2486     1.0  0.99036  0.68111  0.03833  1.0000
  H   H2487     1.0  0.52254  0.74538  0.22464  1.0000
  H   H2488     1.0  0.51014  0.94602  0.11880  1.0000
  H   H2489     1.0  0.53777  0.94131  0.14164  1.0000
  H   H2490     1.0  0.51102  0.86026  0.12925  1.0000
  H   H2491     1.0  0.00088  0.64035  0.16645  1.0000
  S   S313      1.0  0.00130  0.61270  0.04744  1.0000
  H   H2492     1.0  0.99541  0.60624  0.16800  1.0000
  H   H2493     1.0  0.75972  0.74786  0.25008  1.0000
  H   H2494     1.0  0.88778  0.77241  0.24844  1.0000
  H   H2495     1.0  0.51071  0.83745  0.14571  1.0000
  H   H2496     1.0  0.99439  0.56066  0.02689  1.0000
  H   H2497     1.0  0.78424  0.50645  0.16394  1.0000
  C   C1407     1.0  0.87878  0.62895  0.25450  1.0000
  C   C1408     1.0  0.56895  0.98473  0.00487  1.0000
  C   C1409     1.0  0.52080  0.99836  0.40010  1.0000
  Fe  Fe157     1.0  0.52354  0.88089  0.43808  1.0000
  S   S314      1.0  0.55186  0.90082  0.42153  1.0000
  C   C1410     1.0  0.53708  0.89060  0.49470  1.0000
  S   S315      1.0  0.51272  0.94917  0.39325  1.0000
  S   S316      1.0  0.52385  0.87721  0.39240  1.0000
  Fe  Fe158     1.0  0.55477  0.86524  0.40859  1.0000
  S   S317      1.0  0.59477  0.85209  0.40165  1.0000
  S   S318      1.0  0.52874  0.84397  0.42609  1.0000
  Fe  Fe159     1.0  0.68404  0.86784  0.32411  1.0000
  S   S319      1.0  0.71986  0.86794  0.33762  1.0000
  S   S320      1.0  0.64240  0.87059  0.33263  1.0000
  Fe  Fe160     1.0  0.71407  0.87195  0.29262  1.0000
  S   S321      1.0  0.75180  0.87380  0.30395  1.0000
  S   S322      1.0  0.71440  0.87443  0.26619  1.0000
  Fe  Fe161     1.0  0.73709  0.84140  0.32001  1.0000
  S   S323      1.0  0.75586  0.80144  0.32216  1.0000
  Fe  Fe162     1.0  0.73159  0.90032  0.32029  1.0000
  S   S324      1.0  0.74557  0.93762  0.32939  1.0000
  S   S325      1.0  0.69987  0.83891  0.30787  1.0000
  S   S326      1.0  0.69523  0.90091  0.30756  1.0000
  Fe  Fe163     1.0  0.90442  0.52346  0.41095  1.0000
  S   S327      1.0  0.90116  0.56631  0.40487  1.0000
  C   C1411     1.0  0.88026  0.78229  0.27977  1.0000
  H   H2498     1.0  0.60125  0.93246  0.42093  1.0000
  Fe  Fe164     1.0  0.88485  0.71506  0.32677  1.0000
  S   S328      1.0  0.86659  0.68455  0.31410  1.0000
  S   S329      1.0  0.86493  0.75077  0.33577  1.0000
  Fe  Fe165     1.0  0.93859  0.68962  0.32339  1.0000
  S   S330      1.0  0.92391  0.65813  0.30981  1.0000
  S   S331      1.0  0.97836  0.68918  0.33319  1.0000
  Fe  Fe166     1.0  0.90030  0.68861  0.29735  1.0000
  S   S332      1.0  0.89358  0.69737  0.27165  1.0000
  Fe  Fe167     1.0  0.89169  0.65669  0.32783  1.0000
  S   S333      1.0  0.87895  0.61748  0.33746  1.0000
  S   S334      1.0  0.91773  0.72045  0.30949  1.0000
  S   S335      1.0  0.90716  0.68681  0.34199  1.0000
  H   H2499     1.0  0.57358  0.96494  0.36554  1.0000
  H   H2500     1.0  0.89442  0.64190  0.27548  1.0000
  H   H2501     1.0  0.83050  0.77486  0.25601  1.0000
  H   H2502     1.0  0.53593  0.83270  0.47507  1.0000
  C   C1412     1.0  0.89511  0.58013  0.38601  1.0000
  C   C1413     1.0  0.88906  0.56532  0.37374  1.0000
  C   C1414     1.0  0.88396  0.57710  0.35899  1.0000
  C   C1415     1.0  0.88545  0.60370  0.35624  1.0000
  C   C1416     1.0  0.89190  0.61851  0.36844  1.0000
  C   C1417     1.0  0.89633  0.60677  0.38330  1.0000
  H   H2503     1.0  0.88789  0.54482  0.37567  1.0000
  H   H2504     1.0  0.87888  0.56549  0.34965  1.0000
  H   H2505     1.0  0.89308  0.63899  0.36649  1.0000
  H   H2506     1.0  0.90079  0.61833  0.39279  1.0000
  N   N79       1.0  0.69469  0.97052  0.27362  1.0000
  H   H2507     1.0  0.65778  0.95545  0.26927  1.0000
  C   C1418     1.0  0.55214  0.96714  0.40903  1.0000
  Fe  Fe168     1.0  0.51915  0.91143  0.40646  1.0000
  H   H2508     1.0  0.99683  0.51936  0.44592  1.0000
  C   C1419     1.0  0.78711  0.78869  0.32487  1.0000
  C   C1420     1.0  0.79217  0.76319  0.32146  1.0000
  C   C1421     1.0  0.81616  0.75166  0.32414  1.0000
  C   C1422     1.0  0.83538  0.76536  0.33050  1.0000
  C   C1423     1.0  0.83042  0.79093  0.33379  1.0000
  C   C1424     1.0  0.80655  0.80264  0.33085  1.0000
  H   H2509     1.0  0.77728  0.75218  0.31687  1.0000
  H   H2510     1.0  0.81957  0.73198  0.32164  1.0000
  H   H2511     1.0  0.84505  0.80169  0.33886  1.0000
  H   H2512     1.0  0.80294  0.82221  0.33365  1.0000
  H   H2513     1.0  0.55242  0.97228  0.47537  1.0000
  C   C1425     1.0  0.67509  0.84062  0.26424  1.0000
  H   H2514     1.0  0.67470  0.83865  0.27683  1.0000
  C   C1426     1.0  0.75606  0.97631  0.30695  1.0000
  C   C1427     1.0  0.74141  0.96865  0.32029  1.0000
  C   C1428     1.0  0.72614  0.98705  0.32758  1.0000
  H   H2515     1.0  0.76894  0.96276  0.30171  1.0000
  H   H2516     1.0  0.71548  0.98163  0.33824  1.0000
  C   C1429     1.0  0.62978  0.86529  0.35194  1.0000
  C   C1430     1.0  0.60332  0.86754  0.35466  1.0000
  C   C1431     1.0  0.59236  0.86354  0.36981  1.0000
  C   C1432     1.0  0.60781  0.85734  0.38241  1.0000
  C   C1433     1.0  0.63427  0.85510  0.37970  1.0000
  C   C1434     1.0  0.64524  0.85913  0.36455  1.0000
  H   H2517     1.0  0.59125  0.87234  0.34498  1.0000
  H   H2518     1.0  0.57199  0.86498  0.37171  1.0000
  H   H2519     1.0  0.64635  0.85014  0.38937  1.0000
  H   H2520     1.0  0.66562  0.85724  0.36261  1.0000
  C   C1435     1.0  0.58970  0.79798  0.46511  1.0000
  C   C1436     1.0  0.69046  0.97276  0.29091  1.0000
  H   H2521     1.0  0.73356  0.93988  0.29052  1.0000
  H   H2522     1.0  0.63123  0.90595  0.39499  1.0000
  S   S336      1.0  0.53287  0.89026  0.46296  1.0000
  C   C1437     1.0  0.52279  0.88200  0.48259  1.0000
  H   H2523     1.0  0.97248  0.59827  0.32266  1.0000
  H   H2524     1.0  0.55362  0.90218  0.49189  1.0000
  N   N80       1.0  0.97556  0.60530  0.35646  1.0000
  C   C1438     1.0  0.96578  0.61988  0.37015  1.0000
  C   C1439     1.0  0.53012  0.97324  0.40092  1.0000
  C   C1440     1.0  0.73293  0.93930  0.27769  1.0000
  C   C1441     1.0  0.95404  0.60350  0.34546  1.0000
  C   C1442     1.0  0.95938  0.58771  0.33106  1.0000
  C   C1443     1.0  0.95969  0.64866  0.36667  1.0000
  H   H2525     1.0  0.80158  0.83860  0.27928  1.0000
  C   C1444     1.0  0.96375  0.56261  0.37178  1.0000
  H   H2526     1.0  0.93682  0.59586  0.35185  1.0000
  C   C1445     1.0  0.93494  0.58339  0.32259  1.0000
  C   C1446     1.0  0.94991  0.66117  0.38136  1.0000
  H   H2527     1.0  0.86203  0.56108  0.50046  1.0000
  H   H2528     1.0  0.98054  0.52563  0.36655  1.0000
  H   H2529     1.0  0.94796  0.61135  0.37531  1.0000
  H   H2530     1.0  0.59025  0.89198  0.46738  1.0000
  H   H2531     1.0  0.58617  0.94088  0.46909  1.0000
  H   H2532     1.0  0.98512  0.56385  0.43917  1.0000
  H   H2533     1.0  0.62176  0.87755  0.46691  1.0000
  C   C1447     1.0  0.68485  0.92606  0.34974  1.0000
  H   H2534     1.0  0.64985  0.96403  0.29433  1.0000
  H   H2535     1.0  0.96759  0.56865  0.33425  1.0000
  H   H2536     1.0  0.92669  0.77160  0.29319  1.0000
  H   H2537     1.0  0.64559  0.99348  0.38672  1.0000
  H   H2538     1.0  0.94488  0.65145  0.35788  1.0000
  H   H2539     1.0  0.99939  0.55425  0.46663  1.0000
  H   H2540     1.0  0.73447  0.97994  0.27458  1.0000
  H   H2541     1.0  0.95655  0.57147  0.38250  1.0000
  H   H2542     1.0  0.94744  0.55947  0.36435  1.0000
  H   H2543     1.0  0.55997  0.94815  0.40918  1.0000
  H   H2544     1.0  0.58069  0.98065  0.42370  1.0000
  C   C1448     1.0  0.61619  0.91955  0.39866  1.0000
  H   H2545     1.0  0.97980  0.61851  0.37959  1.0000
  H   H2546     1.0  0.92602  0.60187  0.31868  1.0000
  H   H2547     1.0  0.93931  0.57241  0.31216  1.0000
  H   H2548     1.0  0.96434  0.65946  0.39048  1.0000
  H   H2549     1.0  0.94603  0.68175  0.37849  1.0000
  H   H2550     1.0  0.93199  0.65221  0.38597  1.0000
  C   C1449     1.0  0.56402  0.98563  0.41710  1.0000
  C   C1450     1.0  0.57652  0.94467  0.36953  1.0000
  H   H2551     1.0  0.62302  0.76078  0.45423  1.0000
  N   N81       1.0  0.81983  0.69538  0.36620  1.0000
  C   C1451     1.0  0.81087  0.72288  0.36579  1.0000
  C   C1452     1.0  0.84841  0.69450  0.36747  1.0000
  C   C1453     1.0  0.81392  0.68495  0.35076  1.0000
  C   C1454     1.0  0.80703  0.67893  0.37917  1.0000
  C   C1455     1.0  0.79913  0.69195  0.39440  1.0000
  C   C1456     1.0  0.78293  0.72786  0.36109  1.0000
  C   C1457     1.0  0.82450  0.65779  0.34795  1.0000
  C   C1458     1.0  0.85922  0.70507  0.38223  1.0000
  C   C1459     1.0  0.88825  0.70605  0.38095  1.0000
  C   C1460     1.0  0.79085  0.67224  0.40733  1.0000
  C   C1461     1.0  0.77395  0.75481  0.36458  1.0000
  C   C1462     1.0  0.81234  0.64673  0.33403  1.0000
  H   H2552     1.0  0.82303  0.73466  0.35738  1.0000
  H   H2553     1.0  0.81334  0.73138  0.37709  1.0000
  H   H2554     1.0  0.85582  0.67455  0.36735  1.0000
  H   H2555     1.0  0.85746  0.70497  0.35709  1.0000
  H   H2556     1.0  0.82142  0.69787  0.34094  1.0000
  H   H2557     1.0  0.79299  0.68425  0.34943  1.0000
  H   H2558     1.0  0.78924  0.67063  0.37513  1.0000
  H   H2559     1.0  0.81942  0.66212  0.38236  1.0000
  H   H2560     1.0  0.78280  0.70525  0.39237  1.0000
  H   H2561     1.0  0.81469  0.70307  0.39880  1.0000
  H   H2562     1.0  0.78136  0.72610  0.34835  1.0000
  H   H2563     1.0  0.76985  0.71396  0.36725  1.0000
  H   H2564     1.0  0.82111  0.64441  0.35828  1.0000
  H   H2565     1.0  0.84528  0.65863  0.34532  1.0000
  H   H2566     1.0  0.85219  0.72467  0.38411  1.0000
  H   H2567     1.0  0.85420  0.69226  0.39259  1.0000
  H   H2568     1.0  0.89568  0.71288  0.39184  1.0000
  H   H2569     1.0  0.89647  0.68679  0.37915  1.0000
  H   H2570     1.0  0.89450  0.71943  0.37107  1.0000
  H   H2571     1.0  0.80690  0.65903  0.41033  1.0000
  H   H2572     1.0  0.78471  0.68206  0.41794  1.0000
  H   H2573     1.0  0.77463  0.66104  0.40364  1.0000
  H   H2574     1.0  0.78692  0.76919  0.35873  1.0000
  H   H2575     1.0  0.75459  0.75842  0.36010  1.0000
  H   H2576     1.0  0.77325  0.75716  0.37733  1.0000
  H   H2577     1.0  0.79165  0.64393  0.33640  1.0000
  H   H2578     1.0  0.81523  0.65951  0.32336  1.0000
  H   H2579     1.0  0.82132  0.62791  0.33185  1.0000
  N   N82       1.0  0.85279  0.77691  0.27664  1.0000
  H   H2580     1.0  0.66383  0.90478  0.25622  1.0000
  C   C1463     1.0  0.83661  0.79712  0.28420  1.0000
  C   C1464     1.0  0.88603  0.64756  0.26448  1.0000
  C   C1465     1.0  0.84641  0.75054  0.28357  1.0000
  C   C1466     1.0  0.82514  0.73612  0.27581  1.0000
  H   H2581     1.0  0.83637  0.69820  0.28501  1.0000
  C   C1467     1.0  0.88694  0.78323  0.29714  1.0000
  H   H2582     1.0  0.66539  0.98520  0.37023  1.0000
  C   C1468     1.0  0.79515  0.82197  0.28691  1.0000
  C   C1469     1.0  0.81918  0.71081  0.28479  1.0000
  H   H2583     1.0  0.70370  0.98671  0.29524  1.0000
  C   C1470     1.0  0.91547  0.78688  0.29879  1.0000
  H   H2584     1.0  0.56987  0.76122  0.47048  1.0000
  H   H2585     1.0  0.69976  0.93389  0.35684  1.0000
  H   H2586     1.0  0.83796  0.79523  0.29710  1.0000
  H   H2587     1.0  0.84397  0.81640  0.28043  1.0000
  H   H2588     1.0  0.80840  0.98086  0.32796  1.0000
  H   H2589     1.0  0.75288  0.78783  0.27270  1.0000
  H   H2590     1.0  0.86349  0.73775  0.28328  1.0000
  H   H2591     1.0  0.84125  0.75129  0.29617  1.0000
  H   H2592     1.0  0.83124  0.73144  0.26382  1.0000
  C   C1471     1.0  0.57275  0.94789  0.46007  1.0000
  H   H2593     1.0  0.88615  0.80073  0.27369  1.0000
  C   C1472     1.0  0.66293  0.97972  0.29641  1.0000
  H   H2594     1.0  0.88141  0.76527  0.30373  1.0000
  H   H2595     1.0  0.87721  0.79945  0.30268  1.0000
  H   H2596     1.0  0.94811  0.62279  0.34073  1.0000
  C   C1473     1.0  0.98196  0.54563  0.46268  1.0000
  H   H2597     1.0  0.77413  0.82088  0.28645  1.0000
  H   H2598     1.0  0.54060  0.94076  0.47578  1.0000
  H   H2599     1.0  0.67944  0.93228  0.27680  1.0000
  H   H2600     1.0  0.81244  0.71399  0.29691  1.0000
  S   S337      1.0  0.93716  0.51243  0.42619  1.0000
  H   H2601     1.0  0.58513  0.80180  0.45260  1.0000
  H   H2602     1.0  0.67251  0.00070  0.31641  1.0000
  H   H2603     1.0  0.69530  0.95448  0.29737  1.0000
  C   C1474     1.0  0.75463  0.00161  0.30059  1.0000
  H   H2604     1.0  0.76706  0.91561  0.27738  1.0000
  H   H2605     1.0  0.91986  0.78611  0.31135  1.0000
  H   H2606     1.0  0.99266  0.56775  0.35359  1.0000
  H   H2607     1.0  0.64437  0.81450  0.26218  1.0000
  H   H2608     1.0  0.66933  0.96666  0.32049  1.0000
  H   H2609     1.0  0.89308  0.76735  0.27496  1.0000
  C   C1475     1.0  0.60300  0.75445  0.45595  1.0000
  H   H2610     1.0  0.92137  0.80569  0.29337  1.0000
  H   H2611     1.0  0.77288  0.94921  0.27374  1.0000
  H   H2612     1.0  0.96860  0.58261  0.45336  1.0000
  H   H2613     1.0  0.54815  0.82591  0.45654  1.0000
  H   H2614     1.0  0.72766  0.78328  0.28730  1.0000
  C   C1476     1.0  0.55747  0.92905  0.36130  1.0000
  C   C1477     1.0  0.97158  0.56302  0.44941  1.0000
  C   C1478     1.0  0.51280  0.83879  0.33198  1.0000
  H   H2615     1.0  0.58169  0.96398  0.45300  1.0000
  C   C1479     1.0  0.00316  0.51039  0.41244  1.0000
  C   C1480     1.0  0.98670  0.51810  0.45749  1.0000
  H   H2616     1.0  0.60747  0.88929  0.44908  1.0000
  C   C1481     1.0  0.53892  0.85191  0.33218  1.0000
  C   C1482     1.0  0.61610  0.91925  0.41643  1.0000
  C   C1483     1.0  0.54786  0.95672  0.46792  1.0000
  H   H2617     1.0  0.54529  0.82336  0.37917  1.0000
  C   C1484     1.0  0.55726  0.84222  0.31956  1.0000
  H   H2618     1.0  0.56147  0.93013  0.34850  1.0000
  C   C1485     1.0  0.60359  0.87970  0.46075  1.0000
  H   H2619     1.0  0.69675  0.77708  0.26738  1.0000
  C   C1486     1.0  0.58495  0.84042  0.47523  1.0000
  H   H2620     1.0  0.96013  0.52527  0.38383  1.0000
  H   H2621     1.0  0.56097  0.82143  0.32163  1.0000
  H   H2622     1.0  0.54819  0.84807  0.34347  1.0000
  H   H2623     1.0  0.53661  0.87276  0.32977  1.0000
  H   H2624     1.0  0.63497  0.92478  0.42040  1.0000
  H   H2625     1.0  0.69100  0.92865  0.33728  1.0000
  H   H2626     1.0  0.00008  0.58157  0.37100  1.0000
  H   H2627     1.0  0.96729  0.51101  0.45544  1.0000
  H   H2628     1.0  0.60662  0.98616  0.37247  1.0000
  H   H2629     1.0  0.63754  0.95427  0.39687  1.0000
  H   H2630     1.0  0.51864  0.89233  0.34915  1.0000
  H   H2631     1.0  0.57572  0.85216  0.31982  1.0000
  C   C1487     1.0  0.58936  0.76869  0.46889  1.0000
  H   H2632     1.0  0.54940  0.84599  0.30782  1.0000
  C   C1488     1.0  0.66153  0.98367  0.31387  1.0000
  C   C1489     1.0  0.73214  0.79029  0.27507  1.0000
  C   C1490     1.0  0.97474  0.53642  0.37684  1.0000
  H   H2633     1.0  0.61203  0.89964  0.42133  1.0000
  H   H2634     1.0  0.55814  0.90883  0.36582  1.0000
  N   N83       1.0  0.62484  0.94892  0.37371  1.0000
  C   C1491     1.0  0.64997  0.93621  0.36961  1.0000
  C   C1492     1.0  0.62075  0.94683  0.39120  1.0000
  C   C1493     1.0  0.60417  0.93563  0.36579  1.0000
  C   C1494     1.0  0.51393  0.81272  0.36501  1.0000
  C   C1495     1.0  0.54683  0.81803  0.46880  1.0000
  H   H2635     1.0  0.57180  0.94251  0.38217  1.0000
  H   H2636     1.0  0.72694  0.81092  0.27385  1.0000
  H   H2637     1.0  0.79985  0.82513  0.29912  1.0000
  H   H2638     1.0  0.80731  0.74749  0.27508  1.0000
  H   H2639     1.0  0.64891  0.91523  0.37220  1.0000
  H   H2640     1.0  0.66525  0.94258  0.37704  1.0000
  H   H2641     1.0  0.57487  0.85679  0.45186  1.0000
  H   H2642     1.0  0.60448  0.95918  0.39491  1.0000
  H   H2643     1.0  0.60539  0.91471  0.36852  1.0000
  H   H2644     1.0  0.60691  0.93808  0.35291  1.0000
  C   C1496     1.0  0.98433  0.57934  0.36289  1.0000
  H   H2645     1.0  0.99638  0.52318  0.48832  1.0000
  H   H2646     1.0  0.53799  0.93665  0.36358  1.0000
  H   H2647     1.0  0.83606  0.97380  0.33927  1.0000
  H   H2648     1.0  0.68297  0.90531  0.35278  1.0000
  H   H2649     1.0  0.79866  0.78122  0.28856  1.0000
  H   H2650     1.0  0.59758  0.91228  0.39535  1.0000
  H   H2651     1.0  0.64583  0.93182  0.34445  1.0000
  C   C1497     1.0  0.65942  0.93984  0.35233  1.0000
  C   C1498     1.0  0.64647  0.99294  0.37383  1.0000
  C   C1499     1.0  0.99762  0.61981  0.34856  1.0000
  H   H2652     1.0  0.99040  0.63505  0.34017  1.0000
  C   C1500     1.0  0.80764  0.79731  0.28154  1.0000
  H   H2653     1.0  0.56444  0.78383  0.49284  1.0000
  H   H2654     1.0  0.62423  0.97901  0.35531  1.0000
  H   H2655     1.0  0.99140  0.53841  0.38417  1.0000
  H   H2656     1.0  0.66221  0.96025  0.34876  1.0000
  H   H2657     1.0  0.51619  0.81782  0.33197  1.0000
  C   C1501     1.0  0.62450  0.97677  0.36826  1.0000
  H   H2658     1.0  0.59944  0.76390  0.47986  1.0000
  H   H2659     1.0  0.92112  0.57245  0.33035  1.0000
  H   H2660     1.0  0.60313  0.73364  0.45916  1.0000
  H   H2661     1.0  0.95300  0.55599  0.44583  1.0000
  H   H2662     1.0  0.56927  0.93216  0.45238  1.0000
  H   H2663     1.0  0.96748  0.54547  0.47245  1.0000
  H   H2664     1.0  0.97689  0.65914  0.36234  1.0000
  H   H2665     1.0  0.52966  0.78304  0.48009  1.0000
  H   H2666     1.0  0.51552  0.81761  0.38999  1.0000
  H   H2667     1.0  0.65590  0.99748  0.29028  1.0000
  C   C1502     1.0  0.71725  0.77525  0.26389  1.0000
  H   H2668     1.0  0.66659  0.99776  0.26453  1.0000
  H   H2669     1.0  0.59162  0.80154  0.49635  1.0000
  H   H2670     1.0  0.51213  0.97431  0.48588  1.0000
  H   H2671     1.0  0.80404  0.70094  0.27894  1.0000
  H   H2672     1.0  0.85751  0.51049  0.50451  1.0000
  H   H2673     1.0  0.99237  0.69056  0.29982  1.0000
  C   C1503     1.0  0.53027  0.79402  0.46868  1.0000
  H   H2674     1.0  0.72294  0.75484  0.26539  1.0000
  H   H2675     1.0  0.98442  0.51889  0.41190  1.0000
  H   H2676     1.0  0.60596  0.84222  0.45230  1.0000
  H   H2677     1.0  0.75986  0.93094  0.25874  1.0000
  C   C1504     1.0  0.67818  0.94949  0.26860  1.0000
  H   H2678     1.0  0.52723  0.80571  0.35588  1.0000
  H   H2679     1.0  0.64143  0.98670  0.31783  1.0000
  H   H2680     1.0  0.72093  0.92317  0.27523  1.0000
  N   N84       1.0  0.57299  0.81443  0.47527  1.0000
  C   C1505     1.0  0.59190  0.85365  0.45897  1.0000
  C   C1506     1.0  0.82778  0.98741  0.33037  1.0000
  H   H2681     1.0  0.52043  0.85309  0.36240  1.0000
  H   H2682     1.0  0.53769  0.78167  0.45947  1.0000
  H   H2683     1.0  0.60267  0.83925  0.48198  1.0000
  C   C1507     1.0  0.88300  0.67343  0.26001  1.0000
  H   H2684     1.0  0.61008  0.80312  0.46589  1.0000
  H   H2685     1.0  0.57202  0.85400  0.48119  1.0000
  C   C1508     1.0  0.72251  0.96486  0.27027  1.0000
  H   H2686     1.0  0.59305  0.75782  0.44482  1.0000
  C   C1509     1.0  0.75986  0.93355  0.27146  1.0000
  C   C1510     1.0  0.57196  0.80345  0.49194  1.0000
  C   C1511     1.0  0.68762  0.99509  0.26464  1.0000
  H   H2687     1.0  0.53775  0.97537  0.44573  1.0000
  C   C1512     1.0  0.52780  0.96459  0.45565  1.0000
  H   H2688     1.0  0.52207  0.94645  0.45076  1.0000
  H   H2689     1.0  0.88157  0.60896  0.25790  1.0000
  C   C1513     1.0  0.52810  0.81129  0.38026  1.0000
  H   H2690     1.0  0.53426  0.79130  0.38318  1.0000
  C   C1514     1.0  0.65787  0.82701  0.25592  1.0000
  C   C1515     1.0  0.69262  0.85681  0.25624  1.0000
  H   H2691     1.0  0.83993  0.98718  0.31953  1.0000
  H   H2692     1.0  0.80314  0.79606  0.26916  1.0000
  H   H2693     1.0  0.72674  0.96540  0.25748  1.0000
  C   C1516     1.0  0.85000  0.77954  0.25920  1.0000
  H   H2694     1.0  0.53564  0.82040  0.50028  1.0000
  C   C1517     1.0  0.55572  0.81868  0.50375  1.0000
  H   H2695     1.0  0.87172  0.74384  0.25530  1.0000
  H   H2696     1.0  0.85257  0.79979  0.25485  1.0000
  Fe  Fe169     1.0  0.68985  0.85008  0.69240  1.0000
  S   S338      1.0  0.72305  0.87412  0.69710  1.0000
  S   S339      1.0  0.67825  0.81884  0.71067  1.0000
  Fe  Fe170     1.0  0.68758  0.87150  0.65827  1.0000
  S   S340      1.0  0.72245  0.89537  0.66073  1.0000
  S   S341      1.0  0.66884  0.87902  0.63474  1.0000
  Fe  Fe171     1.0  0.73905  0.86088  0.67419  1.0000
  S   S342      1.0  0.78021  0.84550  0.67541  1.0000
  Fe  Fe172     1.0  0.70352  0.90619  0.68330  1.0000
  S   S343      1.0  0.69233  0.94665  0.68993  1.0000
  S   S344      1.0  0.70600  0.83636  0.66968  1.0000
  S   S345      1.0  0.66846  0.88292  0.68061  1.0000
  Fe  Fe173     1.0  0.54524  0.86636  0.58690  1.0000
  S   S346      1.0  0.53575  0.90620  0.59299  1.0000
  S   S347      1.0  0.56639  0.84256  0.60558  1.0000
  H   H2697     1.0  0.57195  0.94527  0.60964  1.0000
  C   C1518     1.0  0.55569  0.80536  0.52006  1.0000
  Fe  Fe174     1.0  0.54553  0.91666  0.56793  1.0000
  S   S348      1.0  0.56968  0.95033  0.56036  1.0000
  S   S349      1.0  0.55789  0.87725  0.56204  1.0000
  H   H2698     1.0  0.90019  0.62366  0.71803  1.0000
  Fe  Fe175     1.0  0.89254  0.66164  0.66514  1.0000
  S   S350      1.0  0.90009  0.70242  0.65711  1.0000
  S   S351      1.0  0.90962  0.63145  0.64933  1.0000
  Fe  Fe176     1.0  0.87503  0.67842  0.69786  1.0000
  S   S352      1.0  0.88331  0.71991  0.69187  1.0000
  S   S353      1.0  0.85136  0.66498  0.71947  1.0000
  Fe  Fe177     1.0  0.86364  0.71364  0.66975  1.0000
  S   S354      1.0  0.83246  0.73933  0.65873  1.0000
  Fe  Fe178     1.0  0.91931  0.70502  0.67985  1.0000
  S   S355      1.0  0.95809  0.72414  0.67626  1.0000
  S   S356      1.0  0.85439  0.67245  0.67588  1.0000
  S   S357      1.0  0.91252  0.66410  0.68780  1.0000
  H   H2699     1.0  0.89549  0.59129  0.55917  1.0000
  C   C1519     1.0  0.83490  0.54498  0.55761  1.0000
  S   S358      1.0  0.91207  0.53455  0.56730  1.0000
  C   C1520     1.0  0.95720  0.69910  0.63115  1.0000
  H   H2700     1.0  0.67423  0.78841  0.73968  1.0000
  S   S359      1.0  0.87125  0.54611  0.60584  1.0000
  H   H2701     1.0  0.00474  0.60491  0.64604  1.0000
  C   C1521     1.0  0.58795  0.90938  0.66030  1.0000
  C   C1522     1.0  0.79124  0.74628  0.71150  1.0000
  C   C1523     1.0  0.53843  0.99327  0.59351  1.0000
  C   C1524     1.0  0.82082  0.58891  0.55147  1.0000
  C   C1525     1.0  0.55131  0.97909  0.51803  1.0000
  H   H2702     1.0  0.94664  0.59840  0.68954  1.0000
  C   C1526     1.0  0.54348  0.89715  0.63366  1.0000
  C   C1527     1.0  0.89817  0.60792  0.63736  1.0000
  C   C1528     1.0  0.91601  0.59275  0.62934  1.0000
  C   C1529     1.0  0.90812  0.57375  0.61974  1.0000
  C   C1530     1.0  0.88219  0.56965  0.61800  1.0000
  C   C1531     1.0  0.86433  0.58488  0.62596  1.0000
  C   C1532     1.0  0.87223  0.60391  0.63559  1.0000
  H   H2703     1.0  0.93611  0.59565  0.63060  1.0000
  H   H2704     1.0  0.92210  0.56225  0.61369  1.0000
  H   H2705     1.0  0.84423  0.58191  0.62472  1.0000
  H   H2706     1.0  0.85827  0.61538  0.64166  1.0000
  H   H2707     1.0  0.86290  0.61166  0.73455  1.0000
  C   C1533     1.0  0.88375  0.67433  0.74313  1.0000
  C   C1534     1.0  0.85988  0.66618  0.73907  1.0000
  H   H2708     1.0  0.90833  0.72710  0.62248  1.0000
  H   H2709     1.0  0.86712  0.56576  0.73651  1.0000
  H   H2710     1.0  0.61421  0.91826  0.64132  1.0000
  H   H2711     1.0  0.89741  0.68093  0.73411  1.0000
  H   H2712     1.0  0.82381  0.65136  0.74782  1.0000
  C   C1535     1.0  0.56357  0.97513  0.57267  1.0000
  C   C1536     1.0  0.54392  0.97312  0.58403  1.0000
  H   H2713     1.0  0.61746  0.81888  0.73538  1.0000
  H   H2714     1.0  0.53217  0.95652  0.58513  1.0000
  H   H2715     1.0  0.75762  0.84201  0.71562  1.0000
  C   C1537     1.0  0.67019  0.80801  0.74218  1.0000
  H   H2716     1.0  0.80084  0.55178  0.57282  1.0000
  H   H2717     1.0  0.57271  0.95770  0.65272  1.0000
  C   C1538     1.0  0.79230  0.81435  0.67198  1.0000
  C   C1539     1.0  0.78299  0.79993  0.66035  1.0000
  C   C1540     1.0  0.79509  0.77669  0.65677  1.0000
  C   C1541     1.0  0.81617  0.76715  0.66504  1.0000
  C   C1542     1.0  0.82455  0.78085  0.67728  1.0000
  C   C1543     1.0  0.81302  0.80451  0.68050  1.0000
  H   H2718     1.0  0.76717  0.80724  0.65364  1.0000
  H   H2719     1.0  0.78835  0.76629  0.64730  1.0000
  H   H2720     1.0  0.84035  0.77357  0.68400  1.0000
  H   H2721     1.0  0.82043  0.81547  0.68952  1.0000
  C   C1544     1.0  0.64054  0.86779  0.62694  1.0000
  C   C1545     1.0  0.62480  0.84984  0.63501  1.0000
  C   C1546     1.0  0.60221  0.84217  0.62833  1.0000
  C   C1547     1.0  0.59498  0.85257  0.61363  1.0000
  C   C1548     1.0  0.61081  0.87037  0.60557  1.0000
  C   C1549     1.0  0.63350  0.87775  0.61213  1.0000
  H   H2722     1.0  0.63006  0.84180  0.64633  1.0000
  H   H2723     1.0  0.59024  0.82818  0.63460  1.0000
  H   H2724     1.0  0.60575  0.87815  0.59414  1.0000
  H   H2725     1.0  0.64577  0.89125  0.60565  1.0000
  C   C1550     1.0  0.70886  0.97584  0.68704  1.0000
  C   C1551     1.0  0.73494  0.97689  0.68331  1.0000
  H   H2726     1.0  0.80197  0.70681  0.70738  1.0000
  H   H2727     1.0  0.74569  0.95941  0.68180  1.0000
  H   H2728     1.0  0.66199  0.00227  0.58963  1.0000
  H   H2729     1.0  0.83435  0.57774  0.52151  1.0000
  H   H2730     1.0  0.54206  0.89018  0.51962  1.0000
  C   C1552     1.0  0.67141  0.82716  0.73000  1.0000
  C   C1553     1.0  0.66590  0.85241  0.73329  1.0000
  C   C1554     1.0  0.84234  0.65764  0.75090  1.0000
  C   C1555     1.0  0.99829  0.62330  0.64022  1.0000
  H   H2731     1.0  0.66668  0.86727  0.72400  1.0000
  H   H2732     1.0  0.84377  0.58665  0.57745  1.0000
  H   H2733     1.0  0.57596  0.98400  0.61950  1.0000
  H   H2734     1.0  0.79802  0.50752  0.56483  1.0000
  C   C1556     1.0  0.77324  0.82877  0.71927  1.0000
  C   C1557     1.0  0.85760  0.57973  0.56845  1.0000
  H   H2735     1.0  0.98997  0.60726  0.61028  1.0000
  H   H2736     1.0  0.80857  0.58947  0.56226  1.0000
  C   C1558     1.0  0.97893  0.67947  0.63234  1.0000
  H   H2737     1.0  0.82878  0.57817  0.74929  1.0000
  C   C1559     1.0  0.57783  0.99742  0.57084  1.0000
  H   H2738     1.0  0.54535  0.94358  0.50685  1.0000
  C   C1560     1.0  0.75146  0.79194  0.70747  1.0000
  C   C1561     1.0  0.58067  0.95812  0.64053  1.0000
  C   C1562     1.0  0.54959  0.92564  0.63540  1.0000
  C   C1563     1.0  0.82590  0.61714  0.54631  1.0000
  H   H2739     1.0  0.70695  0.77705  0.65867  1.0000
  H   H2740     1.0  0.87706  0.58684  0.50934  1.0000
  H   H2741     1.0  0.56332  0.83803  0.50474  1.0000
  H   H2742     1.0  0.69695  0.74950  0.67076  1.0000
  H   H2743     1.0  0.97709  0.66691  0.62257  1.0000
  C   C1564     1.0  0.72314  0.76107  0.69721  1.0000
  H   H2744     1.0  0.52313  0.99161  0.60221  1.0000
  H   H2745     1.0  0.83456  0.74998  0.74106  1.0000
  Fe  Fe179     1.0  0.89645  0.52043  0.59089  1.0000
  H   H2746     1.0  0.98010  0.59044  0.68783  1.0000
  H   H2747     1.0  0.80539  0.65125  0.53806  1.0000
  C   C1565     1.0  0.69524  0.99876  0.68905  1.0000
  H   H2748     1.0  0.78858  0.82939  0.71004  1.0000
  H   H2749     1.0  0.54107  0.93084  0.64684  1.0000
  N   N85       1.0  0.57740  0.93259  0.63383  1.0000
  C   C1566     1.0  0.88160  0.60330  0.73785  1.0000
  C   C1567     1.0  0.87912  0.59961  0.56578  1.0000
  H   H2750     1.0  0.91804  0.59644  0.72572  1.0000
  H   H2751     1.0  0.62107  0.88444  0.66371  1.0000
  H   H2752     1.0  0.87276  0.61710  0.55916  1.0000
  C   C1568     1.0  0.89864  0.60371  0.72305  1.0000
  H   H2753     1.0  0.68793  0.78124  0.67623  1.0000
  H   H2754     1.0  0.87397  0.72847  0.62466  1.0000
  H   H2755     1.0  0.55922  0.82228  0.73915  1.0000
  H   H2756     1.0  0.87361  0.61474  0.58884  1.0000
  N   N86       1.0  0.74511  0.76387  0.70778  1.0000
  H   H2757     1.0  0.82806  0.72663  0.71169  1.0000
  C   C1569     1.0  0.81840  0.53983  0.57283  1.0000
  C   C1570     1.0  0.80140  0.63088  0.54130  1.0000
  H   H2758     1.0  0.53144  0.96764  0.53902  1.0000
  C   C1571     1.0  0.97704  0.66356  0.64807  1.0000
  H   H2759     1.0  0.63845  0.94968  0.59246  1.0000
  H   H2760     1.0  0.84374  0.54491  0.52559  1.0000
  H   H2761     1.0  0.77925  0.78945  0.72636  1.0000
  H   H2762     1.0  0.71792  0.74073  0.69678  1.0000
  H   H2763     1.0  0.60598  0.95923  0.58923  1.0000
  H   H2764     1.0  0.74327  0.71329  0.72152  1.0000
  H   H2765     1.0  0.73420  0.79081  0.67902  1.0000
  H   H2766     1.0  0.83983  0.61912  0.53634  1.0000
  H   H2767     1.0  0.96289  0.60691  0.66234  1.0000
  C   C1572     1.0  0.69688  0.97310  0.73362  1.0000
  N   N87       1.0  0.84389  0.57205  0.55431  1.0000
  H   H2768     1.0  0.00145  0.51149  0.51651  1.0000
  H   H2769     1.0  0.68939  0.99793  0.75214  1.0000
  H   H2770     1.0  0.89841  0.59058  0.58739  1.0000
  C   C1573     1.0  0.58547  0.93342  0.61677  1.0000
  H   H2771     1.0  0.60120  0.96224  0.64153  1.0000
  H   H2772     1.0  0.81927  0.71962  0.73998  1.0000
  C   C1574     1.0  0.66148  0.97325  0.64926  1.0000
  H   H2773     1.0  0.95768  0.71227  0.64076  1.0000
  S   S360      1.0  0.98443  0.53021  0.56691  1.0000
  H   H2774     1.0  0.70588  0.77112  0.70190  1.0000
  H   H2775     1.0  0.78650  0.74066  0.72386  1.0000
  C   C1575     1.0  0.67302  0.94666  0.64748  1.0000
  H   H2776     1.0  0.88938  0.73579  0.60589  1.0000
  H   H2777     1.0  0.95903  0.71050  0.61987  1.0000
  C   C1576     1.0  0.55952  0.95208  0.51412  1.0000
  H   H2778     1.0  0.70863  0.73061  0.74867  1.0000
  C   C1577     1.0  0.56784  0.98116  0.63157  1.0000
  H   H2779     1.0  0.76762  0.00118  0.67947  1.0000
  C   C1578     1.0  0.68167  0.99435  0.64613  1.0000
  H   H2780     1.0  0.56729  0.90836  0.66320  1.0000
  H   H2781     1.0  0.71033  0.72319  0.72016  1.0000
  H   H2782     1.0  0.89686  0.56571  0.74536  1.0000
  C   C1579     1.0  0.85047  0.56484  0.52473  1.0000
  H   H2783     1.0  0.65360  0.97387  0.66142  1.0000
  H   H2784     1.0  0.64554  0.97599  0.64123  1.0000
  H   H2785     1.0  0.55263  0.89011  0.62292  1.0000
  C   C1580     1.0  0.65856  0.85839  0.74853  1.0000
  C   C1581     1.0  0.60046  0.88486  0.66701  1.0000
  H   H2786     1.0  0.61563  0.96248  0.61663  1.0000
  H   H2787     1.0  0.76125  0.72891  0.69921  1.0000
  C   C1582     1.0  0.53063  0.88379  0.51045  1.0000
  Fe  Fe180     1.0  0.51685  0.87330  0.55596  1.0000
  H   H2788     1.0  0.57533  0.80357  0.52436  1.0000
  H   H2789     1.0  0.62735  0.93019  0.61797  1.0000
  H   H2790     1.0  0.82880  0.53622  0.75452  1.0000
  H   H2791     1.0  0.65866  0.93194  0.65098  1.0000
  H   H2792     1.0  0.67935  0.94415  0.63520  1.0000
  H   H2793     1.0  0.68953  0.94352  0.65508  1.0000
  H   H2794     1.0  0.83289  0.62717  0.55625  1.0000
  H   H2795     1.0  0.90369  0.62231  0.57902  1.0000
  C   C1583     1.0  0.59380  0.91310  0.64250  1.0000
  N   N88       1.0  0.89218  0.79525  0.64539  1.0000
  C   C1584     1.0  0.86634  0.80624  0.64139  1.0000
  C   C1585     1.0  0.89457  0.76858  0.63980  1.0000
  C   C1586     1.0  0.89330  0.79298  0.66296  1.0000
  C   C1587     1.0  0.91392  0.81163  0.63890  1.0000
  C   C1588     1.0  0.90993  0.82700  0.62314  1.0000
  C   C1589     1.0  0.85861  0.83130  0.64914  1.0000
  C   C1590     1.0  0.91698  0.77890  0.66972  1.0000
  C   C1591     1.0  0.89208  0.76564  0.62213  1.0000
  H   H2796     1.0  0.51221  0.96733  0.52267  1.0000
  C   C1592     1.0  0.93476  0.83895  0.61672  1.0000
  C   C1593     1.0  0.83575  0.84435  0.64140  1.0000
  C   C1594     1.0  0.91899  0.78285  0.68709  1.0000
  H   H2797     1.0  0.85127  0.79212  0.64482  1.0000
  H   H2798     1.0  0.86462  0.80974  0.62864  1.0000
  H   H2799     1.0  0.91339  0.75986  0.64265  1.0000
  H   H2800     1.0  0.88012  0.75617  0.64611  1.0000
  H   H2801     1.0  0.87633  0.78277  0.66810  1.0000
  H   H2802     1.0  0.89265  0.81219  0.66775  1.0000
  H   H2803     1.0  0.91874  0.82604  0.64728  1.0000
  H   H2804     1.0  0.93155  0.79974  0.63762  1.0000
  H   H2805     1.0  0.89594  0.84277  0.62472  1.0000
  H   H2806     1.0  0.90272  0.81508  0.61417  1.0000
  H   H2807     1.0  0.85310  0.82704  0.66161  1.0000
  H   H2808     1.0  0.87455  0.84491  0.64860  1.0000
  H   H2809     1.0  0.93486  0.78556  0.66366  1.0000
  H   H2810     1.0  0.91538  0.75809  0.66850  1.0000
  H   H2811     1.0  0.87458  0.77498  0.61761  1.0000
  H   H2812     1.0  0.90901  0.77365  0.61562  1.0000
  H   H2813     1.0  0.55055  0.88495  0.64362  1.0000
  H   H2814     1.0  0.67509  0.99812  0.69201  1.0000
  C   C1595     1.0  0.99071  0.69054  0.69242  1.0000
  H   H2815     1.0  0.94237  0.85178  0.62517  1.0000
  H   H2816     1.0  0.94919  0.82390  0.61424  1.0000
  H   H2817     1.0  0.93124  0.85037  0.60568  1.0000
  H   H2818     1.0  0.81449  0.72996  0.69282  1.0000
  H   H2819     1.0  0.81955  0.83105  0.64146  1.0000
  H   H2820     1.0  0.82949  0.86108  0.64795  1.0000
  H   H2821     1.0  0.92208  0.80327  0.68900  1.0000
  H   H2822     1.0  0.90144  0.77637  0.69365  1.0000
  H   H2823     1.0  0.93539  0.77155  0.69174  1.0000
  H   H2824     1.0  0.71583  0.96658  0.73770  1.0000
  H   H2825     1.0  0.74852  0.80221  0.73183  1.0000
  H   H2826     1.0  0.56186  0.93971  0.52495  1.0000
  C   C1596     1.0  0.80998  0.72623  0.70545  1.0000
  H   H2827     1.0  0.59805  0.84576  0.72863  1.0000
  C   C1597     1.0  0.81009  0.51203  0.57459  1.0000
  H   H2828     1.0  0.93859  0.68931  0.63169  1.0000
  C   C1598     1.0  0.61282  0.94312  0.61263  1.0000
  C   C1599     1.0  0.51478  0.89305  0.63322  1.0000
  H   H2829     1.0  0.97846  0.61973  0.63683  1.0000
  H   H2830     1.0  0.79376  0.62218  0.53102  1.0000
  H   H2831     1.0  0.97524  0.67710  0.65757  1.0000
  H   H2832     1.0  0.82343  0.53885  0.54795  1.0000
  H   H2833     1.0  0.56315  0.00451  0.65166  1.0000
  H   H2834     1.0  0.54411  0.81680  0.52826  1.0000
  H   H2835     1.0  0.71970  0.76642  0.72793  1.0000
  H   H2836     1.0  0.84080  0.85102  0.62919  1.0000
  H   H2837     1.0  0.78104  0.83541  0.73011  1.0000
  H   H2838     1.0  0.59296  0.89438  0.63718  1.0000
  H   H2839     1.0  0.68249  0.95910  0.73826  1.0000
  H   H2840     1.0  0.57806  0.95268  0.50749  1.0000
  H   H2841     1.0  0.69712  0.97341  0.72070  1.0000
  C   C1600     1.0  0.72771  0.77082  0.67994  1.0000
  H   H2842     1.0  0.85157  0.53156  0.55825  1.0000
  H   H2843     1.0  0.75106  0.75709  0.73259  1.0000
  H   H2844     1.0  0.89040  0.59204  0.71421  1.0000
  H   H2845     1.0  0.76437  0.79719  0.69733  1.0000
  C   C1601     1.0  0.86194  0.57203  0.54021  1.0000
  H   H2846     1.0  0.97382  0.68213  0.69800  1.0000
  H   H2847     1.0  0.95201  0.63543  0.67131  1.0000
  H   H2848     1.0  0.86703  0.56280  0.57425  1.0000
  H   H2849     1.0  0.59476  0.81510  0.72062  1.0000
  H   H2850     1.0  0.51113  0.87267  0.63149  1.0000
  N   N89       1.0  0.51497  0.00456  0.53195  1.0000
  H   H2851     1.0  0.82911  0.54368  0.58328  1.0000
  H   H2852     1.0  0.80120  0.76479  0.71070  1.0000
  H   H2853     1.0  0.74128  0.71923  0.74982  1.0000
  H   H2854     1.0  0.74230  0.75889  0.67405  1.0000
  H   H2855     1.0  0.65377  0.87793  0.75089  1.0000
  C   C1602     1.0  0.72347  0.71816  0.74338  1.0000
  C   C1603     1.0  0.76329  0.80172  0.72225  1.0000
  C   C1604     1.0  0.82924  0.73197  0.74774  1.0000
  C   C1605     1.0  0.76733  0.74846  0.70155  1.0000
  C   C1606     1.0  0.70334  0.76952  0.67090  1.0000
  C   C1607     1.0  0.96718  0.62055  0.67121  1.0000
  C   C1608     1.0  0.99351  0.63296  0.66778  1.0000
  C   C1609     1.0  0.57807  0.81740  0.74401  1.0000
  C   C1610     1.0  0.98833  0.71112  0.68144  1.0000
  H   H2856     1.0  0.73404  0.80406  0.70564  1.0000
  C   C1611     1.0  0.96595  0.60637  0.68727  1.0000
  C   C1612     1.0  0.73626  0.75451  0.72401  1.0000
  H   H2857     1.0  0.80863  0.58069  0.54279  1.0000
  H   H2858     1.0  0.95847  0.65386  0.64804  1.0000
  H   H2859     1.0  0.59823  0.88366  0.67992  1.0000
  H   H2860     1.0  0.99557  0.64767  0.67637  1.0000
  H   H2861     1.0  0.77416  0.75687  0.68998  1.0000
  H   H2862     1.0  0.61491  0.92582  0.59013  1.0000
  C   C1613     1.0  0.52645  0.97891  0.52825  1.0000
  C   C1614     1.0  0.61829  0.94449  0.59504  1.0000
  C   C1615     1.0  0.59831  0.82483  0.73142  1.0000
  H   H2863     1.0  0.69489  0.98852  0.63660  1.0000
  C   C1616     1.0  0.69006  0.99951  0.73922  1.0000
  C   C1617     1.0  0.72828  0.72618  0.72615  1.0000
  H   H2864     1.0  0.88698  0.55413  0.51392  1.0000
  H   H2865     1.0  0.96964  0.61964  0.69649  1.0000
  Fe  Fe181     1.0  0.94704  0.51237  0.57387  1.0000
  C   C1618     1.0  0.88920  0.60728  0.58123  1.0000
  H   H2866     1.0  0.71679  0.69816  0.74457  1.0000
  H   H2867     1.0  0.87817  0.55859  0.54263  1.0000
  C   C1619     1.0  0.74732  0.00061  0.68199  1.0000
  H   H2868     1.0  0.87074  0.59091  0.53771  1.0000
  H   H2869     1.0  0.78679  0.62997  0.55099  1.0000
  C   C1620     1.0  0.89090  0.73751  0.61863  1.0000
  H   H2870     1.0  0.58433  0.91411  0.61229  1.0000
  H   H2871     1.0  0.54705  0.97832  0.63093  1.0000
  H   H2872     1.0  0.59145  0.86794  0.66250  1.0000
  H   H2873     1.0  0.56700  0.98678  0.52455  1.0000
  H   H2874     1.0  0.53850  0.93704  0.62656  1.0000
  H   H2875     1.0  0.59567  0.92559  0.66626  1.0000
  C   C1621     1.0  0.87804  0.57573  0.74508  1.0000
  H   H2876     1.0  0.59339  0.99876  0.56226  1.0000
  H   H2877     1.0  0.50773  0.00191  0.56597  1.0000
  H   H2878     1.0  0.54720  0.78615  0.52005  1.0000
  H   H2879     1.0  0.54919  0.99043  0.50685  1.0000
  H   H2880     1.0  0.69370  0.99378  0.65654  1.0000
  H   H2881     1.0  0.57933  0.79645  0.74630  1.0000
  N   N90       1.0  0.99827  0.64447  0.65140  1.0000
  H   H2882     1.0  0.99696  0.69010  0.63092  1.0000
  C   C1622     1.0  0.87042  0.56692  0.51133  1.0000
  H   H2883     1.0  0.79895  0.50866  0.58574  1.0000
  H   H2884     1.0  0.50889  0.97020  0.55932  1.0000
  H   H2885     1.0  0.89020  0.61587  0.74603  1.0000
  C   C1623     1.0  0.50994  0.86795  0.51430  1.0000
  H   H2886     1.0  0.66402  0.98704  0.61707  1.0000
  H   H2887     1.0  0.85810  0.52590  0.74524  1.0000
  H   H2888     1.0  0.84699  0.72191  0.75146  1.0000
  H   H2889     1.0  0.50634  0.90470  0.62345  1.0000
  H   H2890     1.0  0.67073  0.00457  0.73521  1.0000
  S   S361      1.0  0.50546  0.91361  0.56048  1.0000
  H   H2891     1.0  0.50515  0.89812  0.64435  1.0000
  Fe  Fe182     1.0  0.67590  0.79113  0.82733  1.0000
  S   S362      1.0  0.68146  0.83231  0.81836  1.0000
  S   S363      1.0  0.71429  0.76886  0.82994  1.0000
  Fe  Fe183     1.0  0.61748  0.79890  0.82911  1.0000
  S   S364      1.0  0.62022  0.83935  0.82008  1.0000
  S   S365      1.0  0.57722  0.78718  0.83746  1.0000
  Fe  Fe184     1.0  0.64939  0.82583  0.80270  1.0000
  S   S366      1.0  0.64579  0.84792  0.77929  1.0000
  Fe  Fe185     1.0  0.65184  0.84325  0.83645  1.0000
  S   S367      1.0  0.64914  0.88288  0.84636  1.0000
  S   S368      1.0  0.64480  0.78433  0.81051  1.0000
  S   S369      1.0  0.64807  0.80288  0.84667  1.0000
  Fe  Fe186     1.0  0.64558  0.96946  0.91762  1.0000
  H   H2892     1.0  0.73648  0.93242  0.89944  1.0000
  S   S370      1.0  0.65110  0.92710  0.91380  1.0000
  H   H2893     1.0  0.88656  0.59775  0.92950  1.0000
  C   C1624     1.0  0.90084  0.52393  0.94011  1.0000
  C   C1625     1.0  0.92623  0.60574  0.93303  1.0000
  H   H2894     1.0  0.55894  0.93350  0.86749  1.0000
  S   S371      1.0  0.61852  0.98380  0.93635  1.0000
  H   H2895     1.0  0.98944  0.52912  0.99460  1.0000
  Fe  Fe187     1.0  0.83655  0.59056  0.82097  1.0000
  S   S372      1.0  0.87521  0.60763  0.82141  1.0000
  S   S373      1.0  0.83958  0.55109  0.81083  1.0000
  Fe  Fe188     1.0  0.81123  0.64112  0.83141  1.0000
  S   S374      1.0  0.84915  0.66044  0.83302  1.0000
  S   S375      1.0  0.77052  0.65836  0.83414  1.0000
  Fe  Fe189     1.0  0.85855  0.64312  0.81008  1.0000
  S   S376      1.0  0.88174  0.66328  0.79035  1.0000
  Fe  Fe190     1.0  0.86319  0.62293  0.84436  1.0000
  S   S377      1.0  0.89290  0.60969  0.86220  1.0000
  S   S378      1.0  0.82057  0.62550  0.80789  1.0000
  S   S379      1.0  0.82457  0.60439  0.84445  1.0000
  C   C1626     1.0  0.56748  0.92928  0.87904  1.0000
  S   S380      1.0  0.96880  0.65319  0.91014  1.0000
  C   C1627     1.0  0.56861  0.88236  0.88152  1.0000
  H   H2896     1.0  0.83955  0.60603  0.75705  1.0000
  C   C1628     1.0  0.93780  0.53324  0.90745  1.0000
  H   H2897     1.0  0.79646  0.75048  0.75796  1.0000
  H   H2898     1.0  0.82893  0.58807  0.78446  1.0000
  H   H2899     1.0  0.94057  0.59375  0.78566  1.0000
  H   H2900     1.0  0.83537  0.64951  0.77563  1.0000
  C   C1629     1.0  0.83027  0.52014  0.81830  1.0000
  H   H2901     1.0  0.94453  0.60605  0.92617  1.0000
  H   H2902     1.0  0.80488  0.53255  0.83662  1.0000
  C   C1630     1.0  0.91534  0.62413  0.87377  1.0000
  C   C1631     1.0  0.93638  0.60937  0.87873  1.0000
  C   C1632     1.0  0.95298  0.61815  0.88965  1.0000
  C   C1633     1.0  0.94901  0.64208  0.89566  1.0000
  C   C1634     1.0  0.92865  0.65743  0.89014  1.0000
  C   C1635     1.0  0.91181  0.64850  0.87930  1.0000
  H   H2903     1.0  0.93946  0.59062  0.87439  1.0000
  H   H2904     1.0  0.96855  0.60614  0.89362  1.0000
  H   H2905     1.0  0.92545  0.67610  0.89458  1.0000
  H   H2906     1.0  0.89569  0.66013  0.87563  1.0000
  H   H2907     1.0  0.89887  0.56241  0.94666  1.0000
  H   H2908     1.0  0.81657  0.69792  0.76969  1.0000
  H   H2909     1.0  0.82416  0.74818  0.76979  1.0000
  C   C1636     1.0  0.53016  0.96413  0.92808  1.0000
  C   C1637     1.0  0.54961  0.98152  0.92416  1.0000
  C   C1638     1.0  0.56502  0.86704  0.78564  1.0000
  H   H2910     1.0  0.88468  0.53593  0.91299  1.0000
  H   H2911     1.0  0.92128  0.52474  0.90220  1.0000
  H   H2912     1.0  0.53441  0.94616  0.93433  1.0000
  H   H2913     1.0  0.56884  0.97681  0.92724  1.0000
  S   S381      1.0  0.63099  0.99598  0.89853  1.0000
  C   C1639     1.0  0.72934  0.73781  0.83106  1.0000
  C   C1640     1.0  0.71597  0.71520  0.82991  1.0000
  C   C1641     1.0  0.72883  0.69124  0.83098  1.0000
  C   C1642     1.0  0.75527  0.68933  0.83315  1.0000
  C   C1643     1.0  0.76864  0.71194  0.83425  1.0000
  C   C1644     1.0  0.75581  0.73589  0.83316  1.0000
  H   H2914     1.0  0.69567  0.71614  0.82834  1.0000
  H   H2915     1.0  0.71814  0.67400  0.83016  1.0000
  H   H2916     1.0  0.78883  0.71094  0.83621  1.0000
  H   H2917     1.0  0.76644  0.75312  0.83418  1.0000
  H   H2918     1.0  0.91544  0.64468  0.92527  1.0000
  H   H2919     1.0  0.66420  0.97985  0.97864  1.0000
  C   C1645     1.0  0.87870  0.58782  0.77267  1.0000
  C   C1646     1.0  0.64824  0.89366  0.86553  1.0000
  C   C1647     1.0  0.64072  0.91907  0.86758  1.0000
  C   C1648     1.0  0.64128  0.92935  0.88229  1.0000
  C   C1649     1.0  0.64947  0.91439  0.89519  1.0000
  C   C1650     1.0  0.65623  0.88871  0.89328  1.0000
  C   C1651     1.0  0.65563  0.87835  0.87852  1.0000
  H   H2920     1.0  0.63454  0.93093  0.85766  1.0000
  H   H2921     1.0  0.63541  0.94887  0.88363  1.0000
  H   H2922     1.0  0.66239  0.87686  0.90322  1.0000
  H   H2923     1.0  0.66147  0.85874  0.87713  1.0000
  C   C1652     1.0  0.54331  0.76398  0.81947  1.0000
  C   C1653     1.0  0.54960  0.78654  0.82617  1.0000
  C   C1654     1.0  0.53105  0.80609  0.82693  1.0000
  H   H2924     1.0  0.55700  0.74838  0.81929  1.0000
  H   H2925     1.0  0.53553  0.82335  0.83239  1.0000
  H   H2926     1.0  0.85655  0.74157  0.80524  1.0000
  H   H2927     1.0  0.56800  0.87102  0.81064  1.0000
  S   S382      1.0  0.67737  0.99532  0.92353  1.0000
  C   C1655     1.0  0.57532  0.97701  0.87713  1.0000
  C   C1656     1.0  0.50951  0.92585  0.88924  1.0000
  H   H2928     1.0  0.87089  0.58298  0.78469  1.0000
  H   H2929     1.0  0.78297  0.76823  0.78011  1.0000
  H   H2930     1.0  0.60314  0.85814  0.86141  1.0000
  H   H2931     1.0  0.56211  0.98038  0.86742  1.0000
  C   C1657     1.0  0.72502  0.99329  0.86404  1.0000
  H   H2932     1.0  0.56351  0.78771  0.87706  1.0000
  C   C1658     1.0  0.91902  0.63326  0.93630  1.0000
  C   C1659     1.0  0.59785  0.78635  0.77847  1.0000
  H   H2933     1.0  0.55604  0.97701  0.97447  1.0000
  C   C1660     1.0  0.96596  0.64562  0.83820  1.0000
  H   H2934     1.0  0.91744  0.59021  0.76192  1.0000
  C   C1661     1.0  0.53785  0.82761  0.76931  1.0000
  H   H2935     1.0  0.97464  0.63937  0.82707  1.0000
  H   H2936     1.0  0.92931  0.59535  0.94443  1.0000
  H   H2937     1.0  0.72845  0.76563  0.79451  1.0000
  H   H2938     1.0  0.87554  0.60877  0.77088  1.0000
  H   H2939     1.0  0.74243  0.98407  0.86903  1.0000
  H   H2940     1.0  0.73960  0.64027  0.78498  1.0000
  H   H2941     1.0  0.78246  0.59190  0.78238  1.0000
  C   C1662     1.0  0.54619  0.79374  0.88378  1.0000
  H   H2942     1.0  0.70842  0.97821  0.83606  1.0000
  H   H2943     1.0  0.93489  0.64214  0.94208  1.0000
  C   C1663     1.0  0.74329  0.77356  0.78611  1.0000
  C   C1664     1.0  0.56966  0.79531  0.77745  1.0000
  C   C1665     1.0  0.52304  0.79249  0.87365  1.0000
  H   H2944     1.0  0.78528  0.58865  0.76162  1.0000
  H   H2945     1.0  0.74542  0.65297  0.80348  1.0000
  H   H2946     1.0  0.85614  0.54389  0.77885  1.0000
  H   H2947     1.0  0.66451  0.96907  0.86364  1.0000
  H   H2948     1.0  0.58799  0.92547  0.87626  1.0000
  N   N91       1.0  0.55528  0.90601  0.88723  1.0000
  H   H2949     1.0  0.52164  0.77243  0.87049  1.0000
  H   H2950     1.0  0.99838  0.66686  0.84418  1.0000
  H   H2951     1.0  0.52537  0.90536  0.87056  1.0000
  H   H2952     1.0  0.88959  0.53388  0.85209  1.0000
  Fe  Fe191     1.0  0.99673  0.62778  0.92413  1.0000
  C   C1666     1.0  0.58278  0.85500  0.85926  1.0000
  H   H2953     1.0  0.51979  0.88585  0.88802  1.0000
  C   C1667     1.0  0.86367  0.54588  0.76657  1.0000
  C   C1668     1.0  0.70958  0.96294  0.84549  1.0000
  C   C1669     1.0  0.79503  0.59538  0.77181  1.0000
  C   C1670     1.0  0.51877  0.76072  0.81397  1.0000
  H   H2954     1.0  0.69290  0.92452  0.84909  1.0000
  H   H2955     1.0  0.69397  0.95023  0.81605  1.0000
  C   C1671     1.0  0.51840  0.82130  0.78294  1.0000
  H   H2956     1.0  0.58931  0.74595  0.77761  1.0000
  H   H2957     1.0  0.53262  0.81550  0.75979  1.0000
  C   C1672     1.0  0.69103  0.94195  0.84125  1.0000
  C   C1673     1.0  0.55731  0.90521  0.90473  1.0000
  H   H2958     1.0  0.57987  0.95266  0.89772  1.0000
  C   C1674     1.0  0.91960  0.59659  0.78611  1.0000
  H   H2959     1.0  0.90262  0.52222  0.96548  1.0000
  C   C1675     1.0  0.58462  0.90159  0.91078  1.0000
  H   H2960     1.0  0.94332  0.52127  0.91787  1.0000
  C   C1676     1.0  0.58592  0.90847  0.92774  1.0000
  H   H2961     1.0  0.77057  0.63637  0.79316  1.0000
  H   H2962     1.0  0.54571  0.88939  0.91034  1.0000
  H   H2963     1.0  0.54910  0.92271  0.90959  1.0000
  H   H2964     1.0  0.86449  0.52098  0.86514  1.0000
  C   C1677     1.0  0.66282  0.99347  0.98758  1.0000
  H   H2965     1.0  0.70511  0.91875  0.89967  1.0000
  H   H2966     1.0  0.60227  0.83088  0.76175  1.0000
  H   H2967     1.0  0.68675  0.96295  0.89416  1.0000
  N   N92       1.0  0.86470  0.57362  0.76093  1.0000
  H   H2968     1.0  0.59093  0.88137  0.91017  1.0000
  H   H2969     1.0  0.59826  0.91359  0.90365  1.0000
  H   H2970     1.0  0.84491  0.70971  0.78661  1.0000
  H   H2971     1.0  0.60835  0.79823  0.78619  1.0000
  H   H2972     1.0  0.83924  0.56533  0.89790  1.0000
  C   C1678     1.0  0.81285  0.51630  0.83090  1.0000
  H   H2973     1.0  0.58204  0.92917  0.92872  1.0000
  H   H2974     1.0  0.57198  0.89730  0.93527  1.0000
  H   H2975     1.0  0.60531  0.90411  0.93196  1.0000
  H   H2976     1.0  0.59491  0.97371  0.87231  1.0000
  H   H2977     1.0  0.90174  0.63387  0.94411  1.0000
  H   H2978     1.0  0.57529  0.99443  0.88384  1.0000
  C   C1679     1.0  0.76203  0.67473  0.78332  1.0000
  C   C1680     1.0  0.89010  0.67361  0.75892  1.0000
  H   H2979     1.0  0.52245  0.83170  0.79337  1.0000
  H   H2980     1.0  0.59612  0.88025  0.79893  1.0000
  H   H2981     1.0  0.81591  0.56051  0.77647  1.0000
  H   H2982     1.0  0.56460  0.82962  0.79784  1.0000
  H   H2983     1.0  0.56829  0.90066  0.79886  1.0000
  H   H2984     1.0  0.52242  0.99831  0.95507  1.0000
  H   H2985     1.0  0.51372  0.94425  0.88272  1.0000
  H   H2986     1.0  0.57659  0.83722  0.86586  1.0000
  N   N93       1.0  0.79020  0.71432  0.78622  1.0000
  C   C1681     1.0  0.80902  0.72401  0.79723  1.0000
  C   C1682     1.0  0.76605  0.73047  0.78649  1.0000
  C   C1683     1.0  0.78328  0.68752  0.79208  1.0000
  H   H2987     1.0  0.54652  0.87339  0.86124  1.0000
  C   C1684     1.0  0.58686  0.98357  0.99010  1.0000
  C   C1685     1.0  0.83484  0.70942  0.79819  1.0000
  H   H2988     1.0  0.79825  0.61622  0.77005  1.0000
  C   C1686     1.0  0.76868  0.75946  0.78845  1.0000
  C   C1687     1.0  0.90789  0.58294  0.77299  1.0000
  C   C1688     1.0  0.85229  0.72159  0.80936  1.0000
  C   C1689     1.0  0.75400  0.64955  0.79177  1.0000
  H   H2989     1.0  0.80028  0.72381  0.80921  1.0000
  H   H2990     1.0  0.81370  0.74424  0.79430  1.0000
  C   C1690     1.0  0.70868  0.95158  0.87341  1.0000
  H   H2991     1.0  0.75305  0.72373  0.79643  1.0000
  H   H2992     1.0  0.77732  0.68727  0.80461  1.0000
  H   H2993     1.0  0.80003  0.67440  0.79145  1.0000
  C   C1691     1.0  0.57481  0.96867  0.97762  1.0000
  C   C1692     1.0  0.98655  0.65122  0.84956  1.0000
  H   H2994     1.0  0.59080  0.00305  0.98491  1.0000
  H   H2995     1.0  0.54395  0.78075  0.89441  1.0000
  H   H2996     1.0  0.83220  0.68935  0.80259  1.0000
  H   H2997     1.0  0.85756  0.53279  0.84569  1.0000
  H   H2998     1.0  0.55185  0.99612  0.00135  1.0000
  H   H2999     1.0  0.56153  0.86498  0.88831  1.0000
  H   H3000     1.0  0.77446  0.76264  0.80048  1.0000
  H   H3001     1.0  0.74543  0.79406  0.78822  1.0000
  C   C1693     1.0  0.56678  0.95427  0.88787  1.0000
  C   C1694     1.0  0.56636  0.87780  0.86394  1.0000
  C   C1695     1.0  0.96009  0.53251  0.89554  1.0000
  H   H3002     1.0  0.51093  0.92808  0.90188  1.0000
  H   H3003     1.0  0.56028  0.79018  0.78902  1.0000
  H   H3004     1.0  0.84334  0.72131  0.82128  1.0000
  H   H3005     1.0  0.51408  0.74283  0.80924  1.0000
  H   H3006     1.0  0.90566  0.60439  0.91223  1.0000
  C   C1696     1.0  0.99741  0.51568  0.92857  1.0000
  N   N94       1.0  0.90824  0.56513  0.92178  1.0000
  C   C1697     1.0  0.88474  0.55685  0.91398  1.0000
  C   C1698     1.0  0.54399  0.00502  0.91642  1.0000
  C   C1699     1.0  0.90538  0.59347  0.92374  1.0000
  C   C1700     1.0  0.93217  0.56080  0.91206  1.0000
  H   H3007     1.0  0.71845  0.97524  0.89293  1.0000
  C   C1701     1.0  0.88053  0.56882  0.89728  1.0000
  H   H3008     1.0  0.95504  0.54287  0.88441  1.0000
  H   H3009     1.0  0.68321  0.91865  0.82209  1.0000
  H   H3010     1.0  0.91207  0.58877  0.79762  1.0000
  H   H3011     1.0  0.95437  0.66315  0.83563  1.0000
  C   C1702     1.0  0.85605  0.55920  0.89079  1.0000
  Fe  Fe192     1.0  0.00336  0.57397  0.93800  1.0000
  H   H3012     1.0  0.86750  0.56115  0.92136  1.0000
  H   H3013     1.0  0.96504  0.51242  0.89323  1.0000
  C   C1703     1.0  0.81233  0.73779  0.76198  1.0000
  H   H3014     1.0  0.91245  0.56234  0.77484  1.0000
  C   C1704     1.0  0.52756  0.90456  0.88339  1.0000
  H   H3015     1.0  0.73694  0.77208  0.77404  1.0000
  H   H3016     1.0  0.93196  0.57324  0.90124  1.0000
  H   H3017     1.0  0.94917  0.56666  0.91821  1.0000
  C   C1705     1.0  0.91020  0.55183  0.93784  1.0000
  C   C1706     1.0  0.84884  0.65653  0.76665  1.0000
  H   H3018     1.0  0.87868  0.58988  0.89709  1.0000
  H   H3019     1.0  0.89648  0.56377  0.88916  1.0000
  H   H3020     1.0  0.97708  0.54140  0.90009  1.0000
  C   C1707     1.0  0.80141  0.71292  0.76991  1.0000
  H   H3021     1.0  0.56029  0.78322  0.76922  1.0000
  H   H3022     1.0  0.99344  0.61765  0.99049  1.0000
  H   H3023     1.0  0.74774  0.99835  0.84217  1.0000
  H   H3024     1.0  0.66207  0.79926  0.76681  1.0000
  H   H3025     1.0  0.74468  0.68693  0.78241  1.0000
  H   H3026     1.0  0.72928  0.95488  0.84443  1.0000
  H   H3027     1.0  0.71257  0.94099  0.91387  1.0000
  H   H3028     1.0  0.60525  0.97396  0.99272  1.0000
  H   H3029     1.0  0.85403  0.56736  0.87865  1.0000
  H   H3030     1.0  0.71629  0.92611  0.82345  1.0000
  C   C1708     1.0  0.00278  0.62698  0.85379  1.0000
  H   H3031     1.0  0.72736  0.94177  0.87131  1.0000
  H   H3032     1.0  0.95304  0.63059  0.84338  1.0000
  S   S383      1.0  0.98790  0.60953  0.94821  1.0000
  H   H3033     1.0  0.88315  0.53740  0.76695  1.0000
  N   N95       1.0  0.70529  0.97346  0.86137  1.0000
  C   C1709     1.0  0.87279  0.66448  0.77072  1.0000
  C   C1710     1.0  0.70683  0.95854  0.89073  1.0000
  H   H3034     1.0  0.59357  0.83738  0.78794  1.0000
  H   H3035     1.0  0.58942  0.88297  0.88351  1.0000
  H   H3036     1.0  0.76896  0.67047  0.77140  1.0000
  C   C1711     1.0  0.57264  0.83831  0.78661  1.0000
  H   H3037     1.0  0.98883  0.61342  0.85967  1.0000
  H   H3038     1.0  0.75535  0.72825  0.77576  1.0000
  H   H3039     1.0  0.54404  0.86961  0.78589  1.0000
  H   H3040     1.0  0.00328  0.64709  0.88225  1.0000
  S   S384      1.0  0.98341  0.53656  0.94159  1.0000
  H   H3041     1.0  0.62005  0.75242  0.78495  1.0000
  H   H3042     1.0  0.53452  0.84759  0.76467  1.0000
  C   C1712     1.0  0.59976  0.75866  0.78492  1.0000
  H   H3043     1.0  0.67640  0.99218  0.87532  1.0000
  C   C1713     1.0  0.66664  0.98545  0.00332  1.0000
  C   C1714     1.0  0.57496  0.88047  0.79941  1.0000
  H   H3044     1.0  0.57238  0.94839  0.98178  1.0000
  N   N96       1.0  0.56543  0.82328  0.77306  1.0000
  H   H3045     1.0  0.91539  0.61740  0.78490  1.0000
  H   H3046     1.0  0.50579  0.85657  0.83937  1.0000
  H   H3047     1.0  0.67103  0.94892  0.84185  1.0000
  H   H3048     1.0  0.57301  0.87696  0.77486  1.0000
  H   H3049     1.0  0.87054  0.71064  0.80993  1.0000
  H   H3050     1.0  0.58743  0.96926  0.96695  1.0000
  H   H3051     1.0  0.69399  0.93686  0.87247  1.0000
  H   H3052     1.0  0.93021  0.55213  0.94164  1.0000
  C   C1715     1.0  0.67879  0.98436  0.86362  1.0000
  H   H3053     1.0  0.52704  0.80487  0.86297  1.0000
  H   H3054     1.0  0.58099  0.85231  0.84664  1.0000
  C   C1716     1.0  0.82025  0.58100  0.77406  1.0000
  H   H3055     1.0  0.57261  0.89479  0.85656  1.0000
  H   H3056     1.0  0.54762  0.95882  0.89275  1.0000
  C   C1717     1.0  0.87196  0.52245  0.85289  1.0000
  C   C1718     1.0  0.71584  0.93626  0.90153  1.0000
  C   C1719     1.0  0.69658  0.93387  0.82468  1.0000
  H   H3057     1.0  0.85648  0.53809  0.89065  1.0000
  H   H3058     1.0  0.59186  0.75679  0.79710  1.0000
  H   H3059     1.0  0.67333  0.00068  0.83965  1.0000
  H   H3060     1.0  0.54895  0.81351  0.88721  1.0000
  H   H3061     1.0  0.97662  0.65804  0.86021  1.0000
  H   H3062     1.0  0.87969  0.52383  0.94037  1.0000
  C   C1720     1.0  0.84813  0.52839  0.75666  1.0000
  H   H3063     1.0  0.60765  0.78755  0.76680  1.0000
  H   H3064     1.0  0.57807  0.85229  0.75562  1.0000
  H   H3065     1.0  0.90866  0.67985  0.76199  1.0000
  H   H3066     1.0  0.63037  0.99727  0.85321  1.0000
  H   H3067     1.0  0.93074  0.50994  0.95547  1.0000
  C   C1721     1.0  0.90960  0.51122  0.95550  1.0000
  H   H3068     1.0  0.78692  0.70654  0.76197  1.0000
  C   C1722     1.0  0.50632  0.80278  0.82145  1.0000
  C   C1723     1.0  0.00146  0.54611  0.99548  1.0000
  H   H3069     1.0  0.98904  0.56334  0.99632  1.0000
  C   C1724     1.0  0.83834  0.58511  0.75952  1.0000
  H   H3070     1.0  0.90777  0.51196  0.93067  1.0000
  H   H3071     1.0  0.51921  0.00402  0.98333  1.0000
  C   C1725     1.0  0.65723  0.83934  0.76071  1.0000
  H   H3072     1.0  0.51887  0.80054  0.78620  1.0000
  C   C1726     1.0  0.66330  0.81410  0.75754  1.0000
  C   C1727     1.0  0.58177  0.83185  0.75896  1.0000
  C   C1728     1.0  0.50516  0.97019  0.92408  1.0000
