data_image0
_chemical_formula_structural       CH5CHNH2CHCH3C2H2CH3C2H5SC2H6C2HCH2C2H3FeS2FeHFeSHSCFeHSH4S2CFeC6H4C2H2C2HC2H6SHC2H2FeHSH2CHCH2CH6C2HCHSHCH3CNC4HCHSHFe2CH8CH5CH4CHCH2C2H4SHNCHC2FeHCFeHSFeHFeHS2C3FeH2FeSCFeS2FeSFeS4H4CHS3FeC2H5CH3CH2CHC2HCHC2H4C4HC2SCHCH2SHC3H3CHCHCH2C2SH2SHCH2CH2CHCHCH7NC10H22CH3CH2CH6CHCHCH4NC4H2C3HSC3H6CH8CH4C2H4FeHCHC3H6SH4C2HCH4CHCHFeH3CH3SH2CNC8HC2H14CH3CNH6NSHFeSCHCSH2CHSH2CSNH3CHFeCH4CH3C2H4C2HCHCH6C2H2CHCHC2H5FeC2HC5H3SH4SH2C2HCH5FeNHC2SH2CHCH3CHSC2HC3FeS2FeSHFeS2HSFeHFeSHSFeS2FeS2Fe3S3HCFeS2FeS2FeSFeS3H2C2H2CH2SHC6H3C3HC2HCHC6H6C7H5C5HC7H4CFeCH4C6HCH12CHC2H2C2H2CH3C3HCHCHC2HC3H8CH2CHNH4CHCNCH2CH2C2H7C2NC4H2CHC2HC2H7CH5CH3CHCHCHCH3NC12H30SHSH2CHC3HCH2SCH2CH6CHNH2CH2C3H3NH2S2H3C2HCH2SCHCH10CH3C2H3CFeH2C2NH2SH6NCH8C3H7CH2CHCSH2CHCH3C2HCH10C3H2CHCHSCHC2HCH2SHFeS2FeS2FeSFeHS2HCFeH3CHNH3CHCH2NH2CH3C6H4C6H4C8H6C2FeH4C2HCH5C2SHCH2C2H2CH7CH4CH2CH8C5H2SH4SHCH6S2C2H3C2H3FeH6SCH2SHCHCH2FeHCHCSC3H5CH2CHC2HSC2H2C3H2C2H2C2H3CH2NH8C2H5CH2CHC3HCH2NH3SFeS2FeSCFeSFeS3NHSH2FeSH2SHC6H4C4HC2H6C3HC3HC2HCH2CHCSC3H3CH6CH3CHCHNH4C2H5CHNH2C2HC3H3C3H4NH4CH2CHCHSH9CH4C4HC2H5C3H2CH2C2SH2CH4CH4C2FeHCFeH2C4H4CHCH2CHCHCNHCH10FeCH3C2HCH10NCH2CHC2H2C3HCH7CHCSCH7CHC3H6SH3CH2C4HCH3NC3HCH5FeSHFeSFeSFeCS2FeSCFeS2FeS2FeS2FeSFeS3HSCH2FeS2FeS2FeSFeS3C3HC3H4C6H4C6H4C6H2SHC6NH3C6H5C5H2CHC7H6C2H2CH2CHNHCHC2H5CH4CHCH3NH6CHC2H3C2H4C2FeH5CH2NCH4NC12H27NC5HC2SCH9C2H8C3HCNCHC4HC2HCH3S2H8C2H7SH2CH2CNC9HC2H19CH8C2SH3CHCHSH2CH3CH3CHCH2CHCHCH3SHCH3FeH4SH3CH5CH5CHCH4C2HSCH2CHCH2C2H2CH7C2HCH7CSH14FeHCH2CHCNC4HC2H2CHFeS2FeSHFeHFeSHSFeHSFeHSH2CHS2FeS2FeS2Fe2HS2C3SCFeS2C6H7C3HC6H2CNCHCH2C8H4CHCHCH2CH2CHCH5NC6HCHC2SH12C2H14NC7H2C3H2CH14FeH9C2H5CHSFeCH3SH2CSHCH4CH2C2HNCHCH4FeCHC2H2SCHSCHCH3C2H3CH2CHCH2C2HCHCHCH2C2H2SCH3NH5NHFeCH6CHCH4CHC2H3SCH2SH2CHSH3CHC2H7C2HC2HNHC2HCH5SHCH4CH16CHSH2C4H3CH2CSH2CH3CH2CH4CHC2H4C2HCH6CHCH4S2C2HNH3FeHSC2HCHCH3CH4CHCHC2H8C2H2CHCH3C3H5FeCSHFeHSH2FeSFeSHCHSH7FeH2CHCHC3H3C7H2C3HS2NCH7SHC3H2C4H2C2H8C4SH2C2HFeSHCHNHC2FeCSC3HSHCH2CH9C2H3CH4C2HCHSH5
_chemical_formula_sum              "C864 H1536 N48 S192 Fe96"
_cell_length_a       58.0509
_cell_length_b       60.6395
_cell_length_c       59.7599
_cell_angle_alpha    79.1413
_cell_angle_beta     74.4373
_cell_angle_gamma    77.1098

_space_group_name_H-M_alt    "P 1"
_space_group_IT_number       1

loop_
  _space_group_symop_operation_xyz
  'x, y, z'

loop_
  _atom_site_type_symbol
  _atom_site_label
  _atom_site_symmetry_multiplicity
  _atom_site_fract_x
  _atom_site_fract_y
  _atom_site_fract_z
  _atom_site_occupancy
  C   C1        1.0  0.42815  0.00711  0.48070  1.0000
  H   H1        1.0  0.43477  0.05901  0.44855  1.0000
  H   H2        1.0  0.47084  0.07263  0.43191  1.0000
  H   H3        1.0  0.46636  0.09247  0.39256  1.0000
  H   H4        1.0  0.48593  0.06141  0.46666  1.0000
  H   H5        1.0  0.48272  0.11542  0.48019  1.0000
  C   C2        1.0  0.48307  0.09186  0.39851  1.0000
  H   H6        1.0  0.48305  0.03706  0.45605  1.0000
  N   N1        1.0  0.35943  0.99278  0.45597  1.0000
  H   H7        1.0  0.39058  0.05414  0.40308  1.0000
  H   H8        1.0  0.36761  0.03939  0.44182  1.0000
  C   C3        1.0  0.43340  0.02344  0.46106  1.0000
  H   H9        1.0  0.47439  0.14880  0.34438  1.0000
  C   C4        1.0  0.49816  0.12756  0.44457  1.0000
  H   H10       1.0  0.35878  0.03066  0.41865  1.0000
  H   H11       1.0  0.43905  0.01837  0.44371  1.0000
  H   H12       1.0  0.48622  0.05587  0.40879  1.0000
  C   C5        1.0  0.48311  0.20385  0.44020  1.0000
  C   C6        1.0  0.37984  0.00262  0.43840  1.0000
  H   H13       1.0  0.33117  0.00959  0.43797  1.0000
  H   H14       1.0  0.43842  0.20542  0.47111  1.0000
  C   C7        1.0  0.43121  0.04644  0.46386  1.0000
  H   H15       1.0  0.37973  0.02149  0.47589  1.0000
  H   H16       1.0  0.41071  0.03436  0.41888  1.0000
  H   H17       1.0  0.33738  0.02378  0.46880  1.0000
  C   C8        1.0  0.48669  0.07078  0.41670  1.0000
  C   C9        1.0  0.37350  0.02807  0.42799  1.0000
  H   H18       1.0  0.48101  0.10769  0.40617  1.0000
  H   H19       1.0  0.48109  0.15499  0.37008  1.0000
  H   H20       1.0  0.39584  0.00054  0.44604  1.0000
  H   H21       1.0  0.48865  0.22513  0.47762  1.0000
  H   H22       1.0  0.46463  0.20415  0.43817  1.0000
  S   S1        1.0  0.48933  0.01072  0.37218  1.0000
  C   C10       1.0  0.48910  0.15127  0.35179  1.0000
  C   C11       1.0  0.48787  0.18915  0.46338  1.0000
  H   H23       1.0  0.48807  0.17100  0.46221  1.0000
  H   H24       1.0  0.48362  0.12434  0.43821  1.0000
  H   H25       1.0  0.49575  0.17886  0.41594  1.0000
  H   H26       1.0  0.45775  0.23242  0.47631  1.0000
  H   H27       1.0  0.49877  0.09128  0.38303  1.0000
  H   H28       1.0  0.49237  0.31382  0.44767  1.0000
  C   C12       1.0  0.34792  0.00728  0.47543  1.0000
  C   C13       1.0  0.49620  0.04451  0.46159  1.0000
  H   H29       1.0  0.48523  0.22170  0.43965  1.0000
  C   C14       1.0  0.39553  0.03594  0.41032  1.0000
  H   H30       1.0  0.40184  0.02564  0.39555  1.0000
  H   H31       1.0  0.48669  0.18643  0.33641  1.0000
  C   C15       1.0  0.49745  0.12284  0.46848  1.0000
  C   C16       1.0  0.34031  0.99198  0.44345  1.0000
  H   H32       1.0  0.29298  0.99709  0.43794  1.0000
  H   H33       1.0  0.38648  0.99286  0.42319  1.0000
  H   H34       1.0  0.44723  0.17553  0.47954  1.0000
  Fe  Fe1       1.0  0.45747  0.07488  0.56135  1.0000
  S   S2        1.0  0.41944  0.09018  0.55696  1.0000
  S   S3        1.0  0.46720  0.04313  0.58594  1.0000
  Fe  Fe2       1.0  0.48000  0.10942  0.52424  1.0000
  H   H35       1.0  0.39088  0.22981  0.61586  1.0000
  Fe  Fe3       1.0  0.43064  0.12423  0.55478  1.0000
  S   S4        1.0  0.40871  0.15781  0.56685  1.0000
  H   H36       1.0  0.43005  0.27896  0.65269  1.0000
  S   S5        1.0  0.46678  0.10850  0.56294  1.0000
  C   C17       1.0  0.49718  0.30750  0.48301  1.0000
  Fe  Fe4       1.0  0.44776  0.26991  0.57737  1.0000
  H   H37       1.0  0.41433  0.04183  0.52333  1.0000
  S   S6        1.0  0.45914  0.23195  0.58857  1.0000
  H   H38       1.0  0.39153  0.27021  0.63992  1.0000
  H   H39       1.0  0.33810  0.02002  0.52022  1.0000
  H   H40       1.0  0.40518  0.17105  0.49967  1.0000
  H   H41       1.0  0.48330  0.25777  0.49664  1.0000
  S   S7        1.0  0.42944  0.29489  0.60303  1.0000
  S   S8        1.0  0.47689  0.29048  0.55908  1.0000
  C   C18       1.0  0.36863  0.27725  0.53160  1.0000
  Fe  Fe5       1.0  0.43700  0.09155  0.51831  1.0000
  C   C19       1.0  0.42445  0.17807  0.57105  1.0000
  C   C20       1.0  0.41589  0.20145  0.56518  1.0000
  C   C21       1.0  0.42709  0.21801  0.56958  1.0000
  C   C22       1.0  0.44638  0.21143  0.58064  1.0000
  C   C23       1.0  0.45531  0.18805  0.58607  1.0000
  C   C24       1.0  0.44461  0.17142  0.58101  1.0000
  H   H42       1.0  0.40063  0.20674  0.55707  1.0000
  H   H43       1.0  0.42080  0.23587  0.56454  1.0000
  H   H44       1.0  0.47035  0.18272  0.59451  1.0000
  H   H45       1.0  0.45135  0.15347  0.58567  1.0000
  C   C25       1.0  0.41943  0.03686  0.50594  1.0000
  C   C26       1.0  0.47909  0.02127  0.50007  1.0000
  H   H46       1.0  0.47656  0.16258  0.50557  1.0000
  H   H47       1.0  0.41655  0.00152  0.51842  1.0000
  C   C27       1.0  0.40186  0.18870  0.50402  1.0000
  C   C28       1.0  0.35484  0.26374  0.55340  1.0000
  H   H48       1.0  0.37121  0.22200  0.59023  1.0000
  C   C29       1.0  0.46418  0.22896  0.51098  1.0000
  C   C30       1.0  0.46929  0.31763  0.92132  1.0000
  H   H49       1.0  0.46600  0.18486  0.52302  1.0000
  H   H50       1.0  0.42901  0.25693  0.67751  1.0000
  H   H51       1.0  0.38843  0.27009  0.52808  1.0000
  H   H52       1.0  0.36575  0.29552  0.53391  1.0000
  H   H53       1.0  0.45054  0.26514  0.50168  1.0000
  H   H54       1.0  0.48338  0.00899  0.51520  1.0000
  S   S9        1.0  0.46553  0.31175  0.49585  1.0000
  H   H55       1.0  0.38300  0.25591  0.57176  1.0000
  C   C31       1.0  0.42510  0.19419  0.50733  1.0000
  C   C32       1.0  0.46519  0.25804  0.65526  1.0000
  H   H56       1.0  0.34565  0.18438  0.60662  1.0000
  H   H57       1.0  0.33438  0.99877  0.48921  1.0000
  Fe  Fe6       1.0  0.40753  0.31166  0.57659  1.0000
  H   H58       1.0  0.38757  0.18975  0.52062  1.0000
  S   S10       1.0  0.42371  0.28502  0.55254  1.0000
  H   H59       1.0  0.47700  0.21938  0.52170  1.0000
  H   H60       1.0  0.46499  0.99557  0.59767  1.0000
  C   C33       1.0  0.46587  0.25410  0.50854  1.0000
  H   H61       1.0  0.47324  0.24830  0.66985  1.0000
  C   C34       1.0  0.42076  0.01399  0.50312  1.0000
  H   H62       1.0  0.33523  0.27103  0.55548  1.0000
  H   H63       1.0  0.32812  0.18779  0.58504  1.0000
  C   C35       1.0  0.47890  0.99764  0.58164  1.0000
  H   H64       1.0  0.41448  0.24474  0.63651  1.0000
  H   H65       1.0  0.44040  0.28226  0.67765  1.0000
  H   H66       1.0  0.28669  0.32020  0.60528  1.0000
  H   H67       1.0  0.33069  0.22876  0.57502  1.0000
  H   H68       1.0  0.47068  0.28749  0.62872  1.0000
  H   H69       1.0  0.46317  0.24611  0.64424  1.0000
  C   C36       1.0  0.47826  0.18042  0.50609  1.0000
  C   C37       1.0  0.43963  0.26986  0.66644  1.0000
  H   H70       1.0  0.46188  0.30572  0.93679  1.0000
  C   C38       1.0  0.38733  0.24843  0.61660  1.0000
  H   H71       1.0  0.38438  0.24265  0.65433  1.0000
  S   S11       1.0  0.44453  0.12699  0.51581  1.0000
  H   H72       1.0  0.39511  0.20099  0.48988  1.0000
  C   C39       1.0  0.34232  0.19434  0.58981  1.0000
  H   H73       1.0  0.40247  0.31406  0.64883  1.0000
  H   H74       1.0  0.35933  0.19157  0.57585  1.0000
  H   H75       1.0  0.35839  0.24580  0.54993  1.0000
  C   C40       1.0  0.33394  0.21976  0.59209  1.0000
  N   N2        1.0  0.34980  0.25483  0.59860  1.0000
  C   C41       1.0  0.32320  0.26577  0.60353  1.0000
  C   C42       1.0  0.35276  0.22915  0.60014  1.0000
  C   C43       1.0  0.36028  0.25952  0.61746  1.0000
  C   C44       1.0  0.36383  0.26480  0.57521  1.0000
  H   H76       1.0  0.44572  0.22689  0.52106  1.0000
  C   C45       1.0  0.48368  0.01944  0.57174  1.0000
  H   H77       1.0  0.43026  0.18164  0.52193  1.0000
  S   S12       1.0  0.47411  0.07466  0.52307  1.0000
  H   H78       1.0  0.46526  0.03572  0.50687  1.0000
  Fe  Fe7       1.0  0.45201  0.30707  0.53545  1.0000
  Fe  Fe8       1.0  0.45597  0.31713  0.58225  1.0000
  C   C46       1.0  0.39478  0.25177  0.63822  1.0000
  H   H79       1.0  0.31366  0.25838  0.62122  1.0000
  H   H80       1.0  0.31401  0.26183  0.59112  1.0000
  H   H81       1.0  0.31626  0.22175  0.60529  1.0000
  H   H82       1.0  0.35178  0.22080  0.61860  1.0000
  H   H83       1.0  0.34918  0.25390  0.63514  1.0000
  H   H84       1.0  0.35944  0.27811  0.61666  1.0000
  H   H85       1.0  0.36485  0.28281  0.57548  1.0000
  H   H86       1.0  0.39945  0.25651  0.60103  1.0000
  C   C47       1.0  0.48100  0.27569  0.64088  1.0000
  H   H87       1.0  0.48997  0.26315  0.59964  1.0000
  H   H88       1.0  0.49752  0.18425  0.54432  1.0000
  H   H89       1.0  0.46366  0.31462  0.90595  1.0000
  H   H90       1.0  0.42044  0.21163  0.51215  1.0000
  H   H91       1.0  0.36194  0.27629  0.51612  1.0000
  C   C48       1.0  0.31748  0.29219  0.60243  1.0000
  H   H92       1.0  0.47163  0.01216  0.49001  1.0000
  H   H93       1.0  0.46513  0.25849  0.52593  1.0000
  H   H94       1.0  0.48202  0.28614  0.65388  1.0000
  H   H95       1.0  0.49630  0.23736  0.61757  1.0000
  C   C49       1.0  0.35210  0.02825  0.50678  1.0000
  H   H96       1.0  0.32343  0.29766  0.61633  1.0000
  C   C50       1.0  0.36561  0.01265  0.48824  1.0000
  H   H97       1.0  0.32645  0.30059  0.58513  1.0000
  H   H98       1.0  0.28017  0.29394  0.62341  1.0000
  C   C51       1.0  0.42504  0.05316  0.48631  1.0000
  C   C52       1.0  0.47035  0.22097  0.48651  1.0000
  H   H99       1.0  0.48946  0.31380  0.91792  1.0000
  H   H100      1.0  0.37057  0.31871  0.64963  1.0000
  H   H101      1.0  0.28319  0.29722  0.59201  1.0000
  H   H102      1.0  0.36522  0.03169  0.51566  1.0000
  S   S13       1.0  0.42413  0.08204  0.48905  1.0000
  H   H103      1.0  0.37476  0.99679  0.49728  1.0000
  N   N3        1.0  0.47032  0.19618  0.48570  1.0000
  C   C53       1.0  0.29018  0.30133  0.60603  1.0000
  H   H104      1.0  0.34333  0.04484  0.49854  1.0000
  C   C54       1.0  0.44560  0.19269  0.48471  1.0000
  C   C55       1.0  0.21210  0.61871  0.46860  1.0000
  Fe  Fe9       1.0  0.39883  0.62046  0.06723  1.0000
  H   H105      1.0  0.47514  0.49373  0.24495  1.0000
  C   C56       1.0  0.02159  0.45288  0.38863  1.0000
  Fe  Fe10      1.0  0.40882  0.58328  0.03497  1.0000
  H   H106      1.0  0.42846  0.60038  0.16330  1.0000
  S   S14       1.0  0.39351  0.55199  0.03505  1.0000
  Fe  Fe11      1.0  0.45031  0.60125  0.04377  1.0000
  H   H107      1.0  0.30817  0.42164  0.46832  1.0000
  Fe  Fe12      1.0  0.41856  0.63058  0.01399  1.0000
  H   H108      1.0  0.43477  0.56552  0.41058  1.0000
  S   S15       1.0  0.42012  0.58488  0.06763  1.0000
  S   S16       1.0  0.38483  0.61787  0.03620  1.0000
  C   C57       1.0  0.34213  0.56232  0.29442  1.0000
  C   C58       1.0  0.43427  0.59269  0.14680  1.0000
  C   C59       1.0  0.41359  0.61033  0.39509  1.0000
  Fe  Fe13      1.0  0.40057  0.60679  0.24968  1.0000
  H   H109      1.0  0.47580  0.52062  0.27213  1.0000
  H   H110      1.0  0.33966  0.53408  0.45958  1.0000
  Fe  Fe14      1.0  0.05177  0.62345  0.39708  1.0000
  S   S17       1.0  0.07002  0.61247  0.36154  1.0000
  C   C60       1.0  0.49675  0.47579  0.26893  1.0000
  Fe  Fe15      1.0  0.08729  0.59011  0.42066  1.0000
  S   S18       1.0  0.10742  0.57547  0.38776  1.0000
  S   S19       1.0  0.10329  0.57868  0.45182  1.0000
  Fe  Fe16      1.0  0.10522  0.61196  0.37128  1.0000
  S   S20       1.0  0.14128  0.62100  0.34907  1.0000
  Fe  Fe17      1.0  0.07064  0.57693  0.38150  1.0000
  S   S21       1.0  0.06558  0.54683  0.36681  1.0000
  S   S22       1.0  0.08659  0.62635  0.40472  1.0000
  S   S23       1.0  0.05067  0.58800  0.41639  1.0000
  S   S24       1.0  0.13089  0.47287  0.45457  1.0000
  H   H111      1.0  0.03007  0.62768  0.47541  1.0000
  H   H112      1.0  0.35908  0.64148  0.38345  1.0000
  H   H113      1.0  0.40875  0.58885  0.37142  1.0000
  H   H114      1.0  0.24986  0.47687  0.48061  1.0000
  C   C61       1.0  0.10819  0.51486  0.43989  1.0000
  H   H115      1.0  0.47198  0.64019  0.06533  1.0000
  S   S25       1.0  0.26057  0.60337  0.41007  1.0000
  S   S26       1.0  0.28036  0.60546  0.46605  1.0000
  S   S27       1.0  0.42436  0.60788  0.21330  1.0000
  Fe  Fe18      1.0  0.45404  0.60949  0.22983  1.0000
  C   C62       1.0  0.35388  0.59503  0.30316  1.0000
  C   C63       1.0  0.33656  0.59399  0.32482  1.0000
  H   H116      1.0  0.36480  0.60825  0.29804  1.0000
  H   H117      1.0  0.33388  0.60647  0.33644  1.0000
  H   H118      1.0  0.12858  0.64335  0.45195  1.0000
  H   H119      1.0  0.48860  0.64815  0.01952  1.0000
  H   H120      1.0  0.42860  0.60554  0.13257  1.0000
  C   C64       1.0  0.36524  0.60817  0.43233  1.0000
  H   H121      1.0  0.41071  0.48311  0.02869  1.0000
  H   H122      1.0  0.29300  0.61122  0.30448  1.0000
  H   H123      1.0  0.47470  0.53380  0.99317  1.0000
  C   C65       1.0  0.15972  0.62999  0.36369  1.0000
  H   H124      1.0  0.49076  0.59407  0.29757  1.0000
  H   H125      1.0  0.47380  0.53356  0.23482  1.0000
  C   C66       1.0  0.23358  0.55343  0.43813  1.0000
  H   H126      1.0  0.08882  0.44436  0.45786  1.0000
  C   C67       1.0  0.48601  0.61111  0.30359  1.0000
  C   C68       1.0  0.03830  0.53670  0.37007  1.0000
  H   H127      1.0  0.47966  0.65021  0.13360  1.0000
  C   C69       1.0  0.37619  0.62865  0.38001  1.0000
  H   H128      1.0  0.38280  0.62962  0.31982  1.0000
  C   C70       1.0  0.00791  0.59147  0.34342  1.0000
  C   C71       1.0  0.03726  0.52412  0.35309  1.0000
  H   H129      1.0  0.18961  0.57266  0.46443  1.0000
  H   H130      1.0  0.47533  0.41178  0.24238  1.0000
  H   H131      1.0  0.48430  0.54199  0.01629  1.0000
  H   H132      1.0  0.05272  0.52122  0.33841  1.0000
  C   C72       1.0  0.11242  0.54941  0.45170  1.0000
  C   C73       1.0  0.47040  0.53439  0.01229  1.0000
  C   C74       1.0  0.46818  0.43478  0.04279  1.0000
  C   C75       1.0  0.12654  0.50249  0.45065  1.0000
  H   H133      1.0  0.34036  0.59615  0.46416  1.0000
  C   C76       1.0  0.13092  0.53715  0.46249  1.0000
  C   C77       1.0  0.45500  0.54240  0.23442  1.0000
  S   S28       1.0  0.38851  0.64482  0.24777  1.0000
  C   C78       1.0  0.40796  0.53723  0.99094  1.0000
  H   H134      1.0  0.38733  0.65203  0.34803  1.0000
  C   C79       1.0  0.47242  0.61670  0.15183  1.0000
  H   H135      1.0  0.25891  0.54561  0.31810  1.0000
  H   H136      1.0  0.39548  0.51490  0.09785  1.0000
  S   S29       1.0  0.27741  0.63966  0.36338  1.0000
  H   H137      1.0  0.40600  0.57324  0.31894  1.0000
  C   C80       1.0  0.35649  0.57923  0.28790  1.0000
  C   C81       1.0  0.02794  0.50881  0.44937  1.0000
  C   C82       1.0  0.48227  0.64787  0.16893  1.0000
  H   H138      1.0  0.04257  0.51516  0.45364  1.0000
  H   H139      1.0  0.47503  0.64437  0.99728  1.0000
  H   H140      1.0  0.20931  0.62683  0.45095  1.0000
  C   C83       1.0  0.17617  0.42308  0.46623  1.0000
  H   H141      1.0  0.42444  0.56560  0.13383  1.0000
  C   C84       1.0  0.37870  0.63155  0.14750  1.0000
  H   H142      1.0  0.41961  0.60705  0.41181  1.0000
  C   C85       1.0  0.45148  0.49907  0.01999  1.0000
  H   H143      1.0  0.40273  0.48413  0.10259  1.0000
  H   H144      1.0  0.42561  0.50094  0.10066  1.0000
  C   C86       1.0  0.09616  0.40793  0.45945  1.0000
  C   C87       1.0  0.25793  0.55701  0.33099  1.0000
  S   S30       1.0  0.42987  0.63692  0.04506  1.0000
  H   H145      1.0  0.43211  0.46368  0.07097  1.0000
  H   H146      1.0  0.02812  0.58821  0.33893  1.0000
  S   S31       1.0  0.49656  0.48832  0.07713  1.0000
  H   H147      1.0  0.39423  0.58116  0.40144  1.0000
  C   C88       1.0  0.20355  0.58366  0.46060  1.0000
  H   H148      1.0  0.05871  0.60953  0.47388  1.0000
  H   H149      1.0  0.00149  0.60159  0.32801  1.0000
  C   C89       1.0  0.10124  0.53833  0.44027  1.0000
  H   H150      1.0  0.45947  0.56724  0.08666  1.0000
  H   H151      1.0  0.23390  0.56473  0.42115  1.0000
  C   C90       1.0  0.32261  0.57670  0.33143  1.0000
  H   H152      1.0  0.16698  0.56126  0.29727  1.0000
  C   C91       1.0  0.43264  0.56859  0.39225  1.0000
  H   H153      1.0  0.45288  0.62483  0.15603  1.0000
  C   C92       1.0  0.39077  0.53834  0.01248  1.0000
  H   H154      1.0  0.34384  0.55030  0.28255  1.0000
  H   H155      1.0  0.43464  0.55559  0.20740  1.0000
  H   H156      1.0  0.16984  0.62021  0.44560  1.0000
  H   H157      1.0  0.37323  0.62811  0.98527  1.0000
  H   H158      1.0  0.01513  0.50753  0.34029  1.0000
  H   H159      1.0  0.13940  0.54579  0.47147  1.0000
  H   H160      1.0  0.42047  0.45477  0.04058  1.0000
  N   N4        1.0  0.07267  0.45996  0.41644  1.0000
  C   C93       1.0  0.05931  0.45993  0.39798  1.0000
  C   C94       1.0  0.09625  0.46831  0.40463  1.0000
  C   C95       1.0  0.07910  0.43557  0.42762  1.0000
  C   C96       1.0  0.05779  0.47399  0.43561  1.0000
  C   C97       1.0  0.03856  0.49472  0.42911  1.0000
  C   C98       1.0  0.03765  0.44702  0.40614  1.0000
  C   C99       1.0  0.09548  0.43174  0.44526  1.0000
  C   C100      1.0  0.09437  0.49195  0.38921  1.0000
  C   C101      1.0  0.11954  0.49789  0.37786  1.0000
  C   C102      1.0  0.49605  0.56603  0.25761  1.0000
  H   H161      1.0  0.47868  0.45953  0.01217  1.0000
  H   H162      1.0  0.07204  0.45195  0.38286  1.0000
  H   H163      1.0  0.05249  0.47759  0.39037  1.0000
  H   H164      1.0  0.10610  0.46941  0.41787  1.0000
  H   H165      1.0  0.10856  0.45571  0.39330  1.0000
  H   H166      1.0  0.08835  0.42424  0.41390  1.0000
  H   H167      1.0  0.06227  0.42888  0.43746  1.0000
  H   H168      1.0  0.04749  0.46322  0.45036  1.0000
  H   H169      1.0  0.06999  0.48019  0.44362  1.0000
  H   H170      1.0  0.02327  0.48906  0.42531  1.0000
  H   H171      1.0  0.04631  0.50609  0.41356  1.0000
  H   H172      1.0  0.04445  0.42827  0.40773  1.0000
  H   H173      1.0  0.42168  0.56073  0.34189  1.0000
  H   H174      1.0  0.13009  0.64261  0.39120  1.0000
  H   H175      1.0  0.11445  0.43328  0.43576  1.0000
  H   H176      1.0  0.08544  0.49244  0.37484  1.0000
  H   H177      1.0  0.08421  0.50556  0.39995  1.0000
  H   H178      1.0  0.13061  0.48523  0.36615  1.0000
  H   H179      1.0  0.11755  0.51505  0.36723  1.0000
  H   H180      1.0  0.12909  0.49838  0.39150  1.0000
  H   H181      1.0  0.46665  0.55662  0.19808  1.0000
  H   H182      1.0  0.45678  0.52968  0.20207  1.0000
  C   C103      1.0  0.22870  0.56752  0.45818  1.0000
  H   H183      1.0  0.00511  0.62077  0.35998  1.0000
  H   H184      1.0  0.49540  0.44571  0.17583  1.0000
  H   H185      1.0  0.21933  0.54293  0.44123  1.0000
  C   C104      1.0  0.40080  0.65201  0.38886  1.0000
  H   H186      1.0  0.09850  0.50622  0.43229  1.0000
  H   H187      1.0  0.35486  0.61827  0.46745  1.0000
  C   C105      1.0  0.16482  0.56947  0.31301  1.0000
  H   H188      1.0  0.33061  0.62519  0.45210  1.0000
  H   H189      1.0  0.29051  0.43894  0.44856  1.0000
  H   H190      1.0  0.37987  0.59392  0.43644  1.0000
  H   H191      1.0  0.46223  0.50258  0.29648  1.0000
  H   H192      1.0  0.29039  0.40851  0.45592  1.0000
  H   H193      1.0  0.10256  0.39456  0.44764  1.0000
  C   C106      1.0  0.40999  0.49983  0.09376  1.0000
  H   H194      1.0  0.35499  0.50355  0.00599  1.0000
  C   C107      1.0  0.48638  0.63677  0.14696  1.0000
  H   H195      1.0  0.21953  0.63074  0.35988  1.0000
  C   C108      1.0  0.36985  0.51287  0.00165  1.0000
  H   H196      1.0  0.46692  0.57282  0.15645  1.0000
  H   H197      1.0  0.17031  0.58646  0.30719  1.0000
  H   H198      1.0  0.45627  0.62842  0.32897  1.0000
  H   H199      1.0  0.08653  0.54766  0.43243  1.0000
  N   N5        1.0  0.43728  0.52210  0.27574  1.0000
  C   C109      1.0  0.46219  0.50911  0.27779  1.0000
  C   C110      1.0  0.43228  0.54366  0.28669  1.0000
  C   C111      1.0  0.41888  0.50703  0.28807  1.0000
  C   C112      1.0  0.43578  0.52856  0.25045  1.0000
  H   H200      1.0  0.42715  0.64348  0.41136  1.0000
  H   H201      1.0  0.45235  0.54540  0.01760  1.0000
  C   C113      1.0  0.39176  0.51866  0.29104  1.0000
  C   C114      1.0  0.42992  0.54040  0.31355  1.0000
  C   C115      1.0  0.42352  0.56346  0.32264  1.0000
  H   H202      1.0  0.46566  0.51220  0.04466  1.0000
  S   S32       1.0  0.37599  0.62832  0.10310  1.0000
  C   C116      1.0  0.37499  0.50192  0.30449  1.0000
  C   C117      1.0  0.13800  0.51355  0.46196  1.0000
  C   C118      1.0  0.29086  0.42419  0.46274  1.0000
  H   H203      1.0  0.44716  0.55355  0.27866  1.0000
  H   H204      1.0  0.41561  0.55520  0.28279  1.0000
  H   H205      1.0  0.42183  0.49912  0.30571  1.0000
  H   H206      1.0  0.42136  0.49241  0.27836  1.0000
  H   H207      1.0  0.43677  0.51312  0.24244  1.0000
  H   H208      1.0  0.41778  0.53929  0.24927  1.0000
  C   C119      1.0  0.47228  0.48828  0.26413  1.0000
  H   H209      1.0  0.36997  0.61208  0.38353  1.0000
  H   H210      1.0  0.44256  0.39842  0.98603  1.0000
  H   H211      1.0  0.22956  0.55533  0.47440  1.0000
  H   H212      1.0  0.38731  0.52482  0.27373  1.0000
  H   H213      1.0  0.38730  0.53337  0.30095  1.0000
  H   H214      1.0  0.46188  0.52543  0.09693  1.0000
  H   H215      1.0  0.44734  0.53128  0.31787  1.0000
  H   H216      1.0  0.45978  0.47582  0.26938  1.0000
  C   C120      1.0  0.47016  0.51043  0.02584  1.0000
  H   H217      1.0  0.43810  0.57355  0.31421  1.0000
  H   H218      1.0  0.49471  0.46856  0.28773  1.0000
  H   H219      1.0  0.37516  0.60672  0.34284  1.0000
  H   H220      1.0  0.19315  0.62017  0.33841  1.0000
  C   C121      1.0  0.38801  0.63336  0.35341  1.0000
  C   C122      1.0  0.34668  0.61229  0.45541  1.0000
  H   H221      1.0  0.49686  0.44095  0.21447  1.0000
  H   H222      1.0  0.35572  0.51061  0.30632  1.0000
  H   H223      1.0  0.37806  0.48707  0.29497  1.0000
  H   H224      1.0  0.37813  0.49582  0.32235  1.0000
  Fe  Fe19      1.0  0.41517  0.64570  0.21232  1.0000
  H   H225      1.0  0.48086  0.57835  0.26530  1.0000
  C   C123      1.0  0.45306  0.54623  0.20893  1.0000
  H   H226      1.0  0.41545  0.53060  0.32331  1.0000
  C   C124      1.0  0.29195  0.57681  0.47524  1.0000
  C   C125      1.0  0.37614  0.62981  0.42085  1.0000
  C   C126      1.0  0.47022  0.45961  0.03118  1.0000
  H   H227      1.0  0.49667  0.64400  0.23471  1.0000
  H   H228      1.0  0.24367  0.57717  0.45479  1.0000
  H   H229      1.0  0.42305  0.54611  0.98712  1.0000
  H   H230      1.0  0.40159  0.49940  0.06098  1.0000
  H   H231      1.0  0.24549  0.44302  0.46008  1.0000
  H   H232      1.0  0.48390  0.46464  0.03829  1.0000
  S   S33       1.0  0.20726  0.65152  0.40311  1.0000
  H   H233      1.0  0.42394  0.51628  0.05955  1.0000
  H   H234      1.0  0.00807  0.44141  0.39377  1.0000
  H   H235      1.0  0.46319  0.43386  0.06218  1.0000
  H   H236      1.0  0.47373  0.62586  0.27187  1.0000
  C   C127      1.0  0.40502  0.65206  0.11602  1.0000
  C   C128      1.0  0.30887  0.63749  0.27831  1.0000
  H   H237      1.0  0.31184  0.64199  0.25902  1.0000
  C   C129      1.0  0.47622  0.53227  0.08364  1.0000
  H   H238      1.0  0.21245  0.47144  0.47269  1.0000
  H   H239      1.0  0.03255  0.45041  0.37065  1.0000
  H   H240      1.0  0.26811  0.54758  0.34426  1.0000
  H   H241      1.0  0.24420  0.41447  0.47298  1.0000
  C   C130      1.0  0.37191  0.52596  0.01771  1.0000
  H   H242      1.0  0.37953  0.63475  0.18270  1.0000
  C   C131      1.0  0.38680  0.63953  0.16418  1.0000
  H   H243      1.0  0.00729  0.61512  0.43903  1.0000
  Fe  Fe20      1.0  0.42118  0.64332  0.26211  1.0000
  H   H244      1.0  0.35876  0.52643  0.03442  1.0000
  H   H245      1.0  0.43016  0.55240  0.38786  1.0000
  H   H246      1.0  0.17035  0.42942  0.44955  1.0000
  C   C132      1.0  0.14950  0.63967  0.38442  1.0000
  H   H247      1.0  0.39569  0.46268  0.00349  1.0000
  H   H248      1.0  0.41320  0.43476  0.01051  1.0000
  H   H249      1.0  0.44944  0.57354  0.38015  1.0000
  S   S34       1.0  0.31602  0.61431  0.39682  1.0000
  H   H250      1.0  0.42950  0.61527  0.38131  1.0000
  H   H251      1.0  0.27850  0.62097  0.28019  1.0000
  C   C133      1.0  0.43852  0.47937  0.06062  1.0000
  N   N6        1.0  0.19199  0.55226  0.36847  1.0000
  C   C134      1.0  0.18957  0.56687  0.38705  1.0000
  C   C135      1.0  0.21863  0.54583  0.35693  1.0000
  C   C136      1.0  0.17783  0.56562  0.35096  1.0000
  C   C137      1.0  0.18193  0.53069  0.37898  1.0000
  C   C138      1.0  0.19007  0.51742  0.40129  1.0000
  C   C139      1.0  0.16333  0.57477  0.40116  1.0000
  C   C140      1.0  0.18054  0.55439  0.32893  1.0000
  C   C141      1.0  0.23149  0.56583  0.34283  1.0000
  H   H252      1.0  0.49095  0.40116  0.04561  1.0000
  C   C142      1.0  0.18273  0.49393  0.40763  1.0000
  C   C143      1.0  0.16355  0.58685  0.42123  1.0000
  H   H253      1.0  0.45439  0.42832  0.03734  1.0000
  H   H254      1.0  0.19659  0.58286  0.37902  1.0000
  H   H255      1.0  0.20109  0.55818  0.39948  1.0000
  H   H256      1.0  0.20902  0.43699  0.45379  1.0000
  H   H257      1.0  0.22144  0.53285  0.34507  1.0000
  H   H258      1.0  0.18248  0.58291  0.34509  1.0000
  H   H259      1.0  0.15804  0.56878  0.35935  1.0000
  H   H260      1.0  0.16164  0.53433  0.38347  1.0000
  H   H261      1.0  0.18707  0.51864  0.36578  1.0000
  H   H262      1.0  0.18132  0.52691  0.41650  1.0000
  H   H263      1.0  0.21004  0.51479  0.39889  1.0000
  H   H264      1.0  0.15295  0.58721  0.38971  1.0000
  H   H265      1.0  0.15339  0.56043  0.40862  1.0000
  H   H266      1.0  0.17459  0.53761  0.33390  1.0000
  C   C144      1.0  0.48488  0.63028  0.28238  1.0000
  H   H267      1.0  0.22241  0.57545  0.32888  1.0000
  H   H268      1.0  0.23181  0.57793  0.35450  1.0000
  H   H269      1.0  0.01903  0.54945  0.40247  1.0000
  C   C145      1.0  0.43354  0.46258  0.00271  1.0000
  N   N7        1.0  0.44685  0.47681  0.03489  1.0000
  H   H270      1.0  0.19280  0.48289  0.39394  1.0000
  H   H271      1.0  0.18691  0.48553  0.42465  1.0000
  H   H272      1.0  0.16293  0.49558  0.40939  1.0000
  H   H273      1.0  0.16818  0.57407  0.43599  1.0000
  H   H274      1.0  0.17679  0.59864  0.41527  1.0000
  H   H275      1.0  0.14532  0.59717  0.42741  1.0000
  N   N8        1.0  0.39182  0.62959  0.39620  1.0000
  S   S35       1.0  0.30117  0.57439  0.35839  1.0000
  H   H276      1.0  0.32004  0.57244  0.44368  1.0000
  Fe  Fe21      1.0  0.29171  0.60418  0.37851  1.0000
  S   S36       1.0  0.43118  0.60493  0.26638  1.0000
  C   C146      1.0  0.32555  0.56083  0.31624  1.0000
  H   H277      1.0  0.31474  0.54752  0.32121  1.0000
  C   C147      1.0  0.47466  0.55586  0.07757  1.0000
  S   S37       1.0  0.44163  0.59585  0.01100  1.0000
  H   H278      1.0  0.02625  0.45112  0.42343  1.0000
  H   H279      1.0  0.19963  0.55188  0.31850  1.0000
  C   C148      1.0  0.47159  0.61649  0.11042  1.0000
  H   H280      1.0  0.25155  0.54190  0.43688  1.0000
  S   S38       1.0  0.44674  0.64766  0.22670  1.0000
  H   H281      1.0  0.15607  0.65430  0.41178  1.0000
  H   H282      1.0  0.46568  0.60614  0.10011  1.0000
  C   C149      1.0  0.38776  0.63773  0.12336  1.0000
  S   S39       1.0  0.37739  0.57979  0.26052  1.0000
  N   N9        1.0  0.47783  0.60223  0.13237  1.0000
  H   H283      1.0  0.40054  0.57986  0.15522  1.0000
  H   H284      1.0  0.00185  0.57471  0.34741  1.0000
  H   H285      1.0  0.20310  0.59331  0.44287  1.0000
  C   C150      1.0  0.48113  0.64717  0.07581  1.0000
  H   H286      1.0  0.36525  0.62060  0.15331  1.0000
  Fe  Fe22      1.0  0.28334  0.61677  0.42727  1.0000
  C   C151      1.0  0.41781  0.49985  0.06723  1.0000
  H   H287      1.0  0.30782  0.60242  0.27613  1.0000
  H   H288      1.0  0.45541  0.63001  0.11532  1.0000
  H   H289      1.0  0.45396  0.48078  0.06763  1.0000
  H   H290      1.0  0.35510  0.63438  0.34218  1.0000
  C   C152      1.0  0.29620  0.61681  0.28527  1.0000
  H   H291      1.0  0.45082  0.45020  0.99904  1.0000
  H   H292      1.0  0.35585  0.60282  0.42098  1.0000
  H   H293      1.0  0.18556  0.40502  0.46581  1.0000
  C   C153      1.0  0.42703  0.46925  0.02783  1.0000
  C   C154      1.0  0.16431  0.64638  0.39606  1.0000
  H   H294      1.0  0.22908  0.53739  0.37030  1.0000
  H   H295      1.0  0.14530  0.57198  0.32242  1.0000
  H   H296      1.0  0.26688  0.57165  0.32158  1.0000
  H   H297      1.0  0.42527  0.55973  0.16457  1.0000
  C   C155      1.0  0.31224  0.56469  0.46113  1.0000
  C   C156      1.0  0.46218  0.58405  0.14068  1.0000
  H   H298      1.0  0.21882  0.51090  0.47332  1.0000
  C   C157      1.0  0.41054  0.58719  0.38971  1.0000
  H   H299      1.0  0.46567  0.57279  0.12700  1.0000
  C   C158      1.0  0.42041  0.57316  0.15033  1.0000
  H   H300      1.0  0.43419  0.51154  0.02101  1.0000
  H   H301      1.0  0.00647  0.59395  0.37889  1.0000
  H   H302      1.0  0.41358  0.65213  0.37129  1.0000
  H   H303      1.0  0.02848  0.59149  0.46650  1.0000
  H   H304      1.0  0.47577  0.60571  0.16827  1.0000
  H   H305      1.0  0.45821  0.49675  0.00116  1.0000
  C   C159      1.0  0.20004  0.63319  0.36680  1.0000
  C   C160      1.0  0.32333  0.54302  0.47016  1.0000
  H   H306      1.0  0.45211  0.55946  0.23997  1.0000
  H   H307      1.0  0.32688  0.63234  0.28260  1.0000
  C   C161      1.0  0.37437  0.62547  0.33873  1.0000
  H   H308      1.0  0.40730  0.62472  0.34911  1.0000
  C   C162      1.0  0.18506  0.62716  0.35469  1.0000
  H   H309      1.0  0.38661  0.63204  0.43308  1.0000
  C   C163      1.0  0.01816  0.54017  0.38907  1.0000
  C   C164      1.0  0.46145  0.61211  0.32139  1.0000
  H   H310      1.0  0.01449  0.52367  0.44423  1.0000
  H   H311      1.0  0.23178  0.61145  0.46541  1.0000
  H   H312      1.0  0.43515  0.47800  0.98942  1.0000
  H   H313      1.0  0.44709  0.61083  0.31286  1.0000
  H   H314      1.0  0.48879  0.63530  0.18301  1.0000
  Fe  Fe23      1.0  0.24798  0.63970  0.39660  1.0000
  C   C165      1.0  0.41380  0.45149  0.99920  1.0000
  C   C166      1.0  0.16182  0.62659  0.46265  1.0000
  H   H315      1.0  0.35995  0.60353  0.00014  1.0000
  C   C167      1.0  0.49187  0.62805  0.09279  1.0000
  C   C168      1.0  0.00225  0.65168  0.43227  1.0000
  C   C169      1.0  0.18962  0.64295  0.38750  1.0000
  C   C170      1.0  0.01601  0.51614  0.35426  1.0000
  C   C171      1.0  0.13414  0.63086  0.46656  1.0000
  H   H316      1.0  0.46253  0.59771  0.33583  1.0000
  H   H317      1.0  0.47412  0.64597  0.28983  1.0000
  H   H318      1.0  0.16735  0.64329  0.46121  1.0000
  S   S40       1.0  0.48815  0.59355  0.04893  1.0000
  H   H319      1.0  0.08386  0.63807  0.45402  1.0000
  H   H320      1.0  0.24100  0.65077  0.46665  1.0000
  H   H321      1.0  0.01866  0.49842  0.46518  1.0000
  H   H322      1.0  0.48934  0.45417  0.13406  1.0000
  S   S41       1.0  0.49094  0.58979  0.21466  1.0000
  H   H323      1.0  0.02715  0.55259  0.46405  1.0000
  H   H324      1.0  0.12779  0.61478  0.46691  1.0000
  C   C172      1.0  0.49265  0.56466  0.05965  1.0000
  C   C173      1.0  0.03269  0.57856  0.48129  1.0000
  H   H325      1.0  0.18288  0.45574  0.46852  1.0000
  C   C174      1.0  0.19309  0.43788  0.46902  1.0000
  H   H326      1.0  0.00924  0.38401  0.47675  1.0000
  H   H327      1.0  0.29009  0.65109  0.31037  1.0000
  H   H328      1.0  0.49706  0.41743  0.01687  1.0000
  H   H329      1.0  0.01172  0.47083  0.38866  1.0000
  H   H330      1.0  0.48878  0.50027  0.02115  1.0000
  Fe  Fe24      1.0  0.29965  0.65022  0.38395  1.0000
  N   N10       1.0  0.19735  0.60002  0.47843  1.0000
  H   H331      1.0  0.05259  0.57274  0.47762  1.0000
  C   C175      1.0  0.06866  0.65110  0.46198  1.0000
  C   C176      1.0  0.00173  0.42042  0.46705  1.0000
  S   S42       1.0  0.02022  0.65266  0.40337  1.0000
  H   H332      1.0  0.15157  0.50376  0.47108  1.0000
  H   H333      1.0  0.36094  0.64480  0.42135  1.0000
  C   C177      1.0  0.00465  0.44156  0.47129  1.0000
  H   H334      1.0  0.00335  0.57655  0.43247  1.0000
  C   C178      1.0  0.49379  0.40175  0.24268  1.0000
  H   H335      1.0  0.07780  0.40607  0.47058  1.0000
  H   H336      1.0  0.49244  0.38343  0.24807  1.0000
  H   H337      1.0  0.49849  0.54405  0.13404  1.0000
  C   C179      1.0  0.02118  0.55813  0.48168  1.0000
  H   H338      1.0  0.10880  0.40534  0.47113  1.0000
  S   S43       1.0  0.26882  0.65356  0.41586  1.0000
  C   C180      1.0  0.24468  0.43153  0.47706  1.0000
  C   C181      1.0  0.49235  0.41853  0.03596  1.0000
  H   H339      1.0  0.15966  0.42396  0.48089  1.0000
  C   C182      1.0  0.49588  0.51762  0.07180  1.0000
  C   C183      1.0  0.01135  0.40038  0.47989  1.0000
  C   C184      1.0  0.36732  0.61275  0.98264  1.0000
  Fe  Fe25      1.0  0.44076  0.50666  0.88367  1.0000
  S   S44       1.0  0.40414  0.49692  0.89210  1.0000
  S   S45       1.0  0.44885  0.53994  0.86300  1.0000
  Fe  Fe26      1.0  0.42523  0.46225  0.88385  1.0000
  S   S46       1.0  0.42254  0.43831  0.85980  1.0000
  H   H340      1.0  0.49436  0.64750  0.75163  1.0000
  Fe  Fe27      1.0  0.07075  0.49175  0.52929  1.0000
  S   S47       1.0  0.06900  0.45874  0.55349  1.0000
  S   S48       1.0  0.05191  0.52492  0.54312  1.0000
  H   H341      1.0  0.00101  0.56272  0.48624  1.0000
  S   S49       1.0  0.04081  0.42166  0.52408  1.0000
  Fe  Fe28      1.0  0.06680  0.44507  0.52178  1.0000
  H   H342      1.0  0.38927  0.55421  0.59486  1.0000
  Fe  Fe29      1.0  0.10968  0.45118  0.54012  1.0000
  S   S50       1.0  0.13679  0.43683  0.56289  1.0000
  H   H343      1.0  0.22038  0.54649  0.52732  1.0000
  S   S51       1.0  0.11131  0.48506  0.51790  1.0000
  Fe  Fe30      1.0  0.41460  0.46263  0.67309  1.0000
  S   S52       1.0  0.45146  0.44024  0.66480  1.0000
  S   S53       1.0  0.40095  0.47965  0.64048  1.0000
  Fe  Fe31      1.0  0.41271  0.45414  0.72644  1.0000
  S   S54       1.0  0.44848  0.43002  0.72138  1.0000
  S   S55       1.0  0.39334  0.46794  0.76104  1.0000
  Fe  Fe32      1.0  0.46056  0.45658  0.69135  1.0000
  Fe  Fe33      1.0  0.10653  0.46767  0.49013  1.0000
  Fe  Fe34      1.0  0.43550  0.41608  0.69533  1.0000
  S   S56       1.0  0.43762  0.37851  0.69322  1.0000
  S   S57       1.0  0.42526  0.48109  0.69697  1.0000
  S   S58       1.0  0.39815  0.43804  0.70301  1.0000
  H   H344      1.0  0.01121  0.60326  0.55758  1.0000
  C   C185      1.0  0.45646  0.50381  0.63147  1.0000
  Fe  Fe35      1.0  0.25722  0.47589  0.55919  1.0000
  S   S59       1.0  0.28269  0.46684  0.52538  1.0000
  S   S60       1.0  0.21841  0.49300  0.55894  1.0000
  Fe  Fe36      1.0  0.29804  0.46393  0.58516  1.0000
  S   S61       1.0  0.32677  0.45404  0.55341  1.0000
  S   S62       1.0  0.30461  0.46190  0.62130  1.0000
  Fe  Fe37      1.0  0.30787  0.48522  0.53394  1.0000
  S   S63       1.0  0.32946  0.50712  0.50468  1.0000
  Fe  Fe38      1.0  0.29922  0.43649  0.54741  1.0000
  S   S64       1.0  0.31065  0.40317  0.53267  1.0000
  S   S65       1.0  0.28139  0.49677  0.56622  1.0000
  S   S66       1.0  0.27151  0.44381  0.58072  1.0000
  H   H345      1.0  0.17074  0.57387  0.52019  1.0000
  H   H346      1.0  0.08546  0.56174  0.54050  1.0000
  C   C186      1.0  0.29240  0.54458  0.50651  1.0000
  C   C187      1.0  0.39555  0.38644  0.89410  1.0000
  H   H347      1.0  0.36509  0.55887  0.56307  1.0000
  H   H348      1.0  0.42221  0.49578  0.84029  1.0000
  C   C188      1.0  0.32011  0.58266  0.54413  1.0000
  H   H349      1.0  0.28478  0.53696  0.52407  1.0000
  H   H350      1.0  0.42218  0.38134  0.92594  1.0000
  S   S67       1.0  0.47537  0.33808  0.59625  1.0000
  H   H351      1.0  0.32693  0.59021  0.55607  1.0000
  C   C189      1.0  0.35197  0.34466  0.57516  1.0000
  C   C190      1.0  0.36309  0.35259  0.55213  1.0000
  C   C191      1.0  0.35038  0.37069  0.53917  1.0000
  C   C192      1.0  0.32682  0.38130  0.54940  1.0000
  C   C193      1.0  0.31581  0.37348  0.57252  1.0000
  C   C194      1.0  0.32824  0.35495  0.58524  1.0000
  H   H352      1.0  0.38137  0.34465  0.54419  1.0000
  H   H353      1.0  0.35886  0.37657  0.52121  1.0000
  H   H354      1.0  0.29751  0.38144  0.58038  1.0000
  C   C195      1.0  0.10025  0.52429  0.58304  1.0000
  C   C196      1.0  0.44767  0.36778  0.66595  1.0000
  C   C197      1.0  0.44080  0.34764  0.66367  1.0000
  H   H355      1.0  0.27816  0.51681  0.63303  1.0000
  C   C198      1.0  0.47082  0.36949  0.62536  1.0000
  C   C199      1.0  0.46275  0.37864  0.64668  1.0000
  H   H356      1.0  0.42929  0.33905  0.67855  1.0000
  C   C200      1.0  0.44669  0.64185  0.88014  1.0000
  H   H357      1.0  0.46851  0.39390  0.64831  1.0000
  C   C201      1.0  0.37483  0.47282  0.63550  1.0000
  C   C202      1.0  0.35515  0.46831  0.65402  1.0000
  C   C203      1.0  0.33388  0.46462  0.64941  1.0000
  C   C204      1.0  0.33226  0.46505  0.62631  1.0000
  C   C205      1.0  0.35238  0.46841  0.60784  1.0000
  C   C206      1.0  0.37347  0.47265  0.61240  1.0000
  H   H358      1.0  0.35604  0.46830  0.67188  1.0000
  H   H359      1.0  0.31846  0.46179  0.66381  1.0000
  H   H360      1.0  0.35159  0.46783  0.59011  1.0000
  H   H361      1.0  0.38884  0.47569  0.59806  1.0000
  H   H362      1.0  0.19075  0.54043  0.54255  1.0000
  H   H363      1.0  0.38047  0.52111  0.58129  1.0000
  C   C207      1.0  0.23787  0.39992  0.55005  1.0000
  C   C208      1.0  0.15932  0.45250  0.56238  1.0000
  C   C209      1.0  0.17774  0.44284  0.57442  1.0000
  C   C210      1.0  0.19612  0.45499  0.57363  1.0000
  C   C211      1.0  0.19583  0.47701  0.56113  1.0000
  C   C212      1.0  0.17683  0.48694  0.55012  1.0000
  C   C213      1.0  0.15893  0.47468  0.55049  1.0000
  H   H364      1.0  0.17803  0.42580  0.58401  1.0000
  H   H365      1.0  0.21048  0.44736  0.58261  1.0000
  H   H366      1.0  0.17608  0.50416  0.54098  1.0000
  H   H367      1.0  0.14471  0.48261  0.54173  1.0000
  H   H368      1.0  0.36851  0.48061  0.53531  1.0000
  C   C214      1.0  0.46357  0.34965  0.62295  1.0000
  C   C215      1.0  0.44860  0.33867  0.64221  1.0000
  C   C216      1.0  0.43206  0.38889  0.90865  1.0000
  C   C217      1.0  0.48319  0.56171  0.86820  1.0000
  C   C218      1.0  0.02033  0.52844  0.54694  1.0000
  H   H369      1.0  0.42946  0.40383  0.94927  1.0000
  C   C219      1.0  0.38698  0.51139  0.98026  1.0000
  C   C220      1.0  0.41541  0.44768  0.83196  1.0000
  C   C221      1.0  0.42800  0.43568  0.81296  1.0000
  C   C222      1.0  0.42177  0.44183  0.79104  1.0000
  C   C223      1.0  0.40244  0.45973  0.78804  1.0000
  C   C224      1.0  0.38975  0.47158  0.80709  1.0000
  C   C225      1.0  0.39626  0.46572  0.82886  1.0000
  H   H370      1.0  0.44256  0.42144  0.81524  1.0000
  H   H371      1.0  0.43157  0.43240  0.77663  1.0000
  H   H372      1.0  0.37466  0.48533  0.80505  1.0000
  H   H373      1.0  0.38604  0.47481  0.84342  1.0000
  C   C226      1.0  0.27970  0.52869  0.61630  1.0000
  Fe  Fe39      1.0  0.41144  0.48608  0.92817  1.0000
  C   C227      1.0  0.38107  0.49020  0.53887  1.0000
  H   H374      1.0  0.39793  0.48870  0.52463  1.0000
  H   H375      1.0  0.11618  0.46302  0.63514  1.0000
  H   H376      1.0  0.41979  0.52217  0.95871  1.0000
  H   H377      1.0  0.11117  0.56395  0.51592  1.0000
  C   C228      1.0  0.42747  0.60910  0.90567  1.0000
  C   C229      1.0  0.41340  0.57383  0.92594  1.0000
  C   C230      1.0  0.44153  0.58820  0.94114  1.0000
  C   C231      1.0  0.46584  0.57643  0.92635  1.0000
  C   C232      1.0  0.38968  0.57727  0.91745  1.0000
  C   C233      1.0  0.38455  0.55435  0.91485  1.0000
  H   H378      1.0  0.12895  0.45621  0.60613  1.0000
  C   C234      1.0  0.49502  0.65353  0.73276  1.0000
  H   H379      1.0  0.41129  0.61554  0.89811  1.0000
  H   H380      1.0  0.44050  0.59821  0.89298  1.0000
  H   H381      1.0  0.42804  0.56464  0.91285  1.0000
  H   H382      1.0  0.41160  0.56161  0.94236  1.0000
  H   H383      1.0  0.47476  0.65201  0.54452  1.0000
  H   H384      1.0  0.46371  0.56055  0.92108  1.0000
  H   H385      1.0  0.37375  0.58541  0.93006  1.0000
  H   H386      1.0  0.39118  0.58802  0.90010  1.0000
  H   H387      1.0  0.36757  0.55709  0.90869  1.0000
  H   H388      1.0  0.39971  0.54575  0.90181  1.0000
  H   H389      1.0  0.47649  0.52679  0.60459  1.0000
  H   H390      1.0  0.08132  0.47270  0.66124  1.0000
  C   C235      1.0  0.35108  0.55040  0.57636  1.0000
  H   H391      1.0  0.03950  0.47060  0.62114  1.0000
  C   C236      1.0  0.34504  0.51824  0.55853  1.0000
  C   C237      1.0  0.28192  0.56665  0.49785  1.0000
  H   H392      1.0  0.07371  0.56934  0.50277  1.0000
  H   H393      1.0  0.31396  0.50917  0.60118  1.0000
  C   C238      1.0  0.22453  0.43253  0.51983  1.0000
  C   C239      1.0  0.48113  0.53645  0.67323  1.0000
  H   H394      1.0  0.02977  0.49834  0.63132  1.0000
  H   H395      1.0  0.35393  0.52072  0.60454  1.0000
  C   C240      1.0  0.04452  0.62080  0.48526  1.0000
  H   H396      1.0  0.19965  0.56571  0.54671  1.0000
  H   H397      1.0  0.22612  0.40916  0.56462  1.0000
  H   H398      1.0  0.38508  0.61713  0.93560  1.0000
  C   C241      1.0  0.43294  0.50406  0.80254  1.0000
  C   C242      1.0  0.20106  0.42999  0.49252  1.0000
  C   C243      1.0  0.09412  0.57368  0.52582  1.0000
  H   H399      1.0  0.38719  0.52965  0.61716  1.0000
  C   C244      1.0  0.36929  0.51534  0.53947  1.0000
  H   H400      1.0  0.30022  0.58326  0.55097  1.0000
  C   C245      1.0  0.47576  0.54099  0.86992  1.0000
  H   H401      1.0  0.05551  0.51614  0.59717  1.0000
  C   C246      1.0  0.01681  0.49527  0.60215  1.0000
  C   C247      1.0  0.03679  0.48930  0.61568  1.0000
  H   H402      1.0  0.49561  0.56582  0.72439  1.0000
  C   C248      1.0  0.44652  0.39156  0.95065  1.0000
  C   C249      1.0  0.46356  0.63749  0.95638  1.0000
  C   C250      1.0  0.37671  0.54319  0.60653  1.0000
  H   H403      1.0  0.26933  0.52363  0.60557  1.0000
  H   H404      1.0  0.10758  0.48928  0.57607  1.0000
  H   H405      1.0  0.46220  0.41634  0.88413  1.0000
  H   H406      1.0  0.49482  0.46624  0.95624  1.0000
  H   H407      1.0  0.34770  0.50608  0.57425  1.0000
  H   H408      1.0  0.23556  0.51464  0.49342  1.0000
  H   H409      1.0  0.45913  0.47379  0.56945  1.0000
  H   H410      1.0  0.38249  0.52458  0.54234  1.0000
  C   C251      1.0  0.10366  0.49824  0.59175  1.0000
  H   H411      1.0  0.42809  0.36115  0.89152  1.0000
  H   H412      1.0  0.26629  0.57603  0.50886  1.0000
  C   C252      1.0  0.33343  0.55769  0.54187  1.0000
  H   H413      1.0  0.09871  0.58738  0.53292  1.0000
  N   N11       1.0  0.03411  0.60751  0.50842  1.0000
  H   H414      1.0  0.20828  0.44086  0.53189  1.0000
  H   H415      1.0  0.46312  0.62304  0.96999  1.0000
  H   H416      1.0  0.04618  0.51755  0.67196  1.0000
  H   H417      1.0  0.12855  0.52300  0.55065  1.0000
  C   C253      1.0  0.06044  0.49722  0.60054  1.0000
  H   H418      1.0  0.04558  0.58546  0.53796  1.0000
  C   C254      1.0  0.20100  0.55435  0.53367  1.0000
  N   N12       1.0  0.45920  0.38416  0.90657  1.0000
  C   C255      1.0  0.00506  0.54806  0.55525  1.0000
  H   H419      1.0  0.48673  0.45194  0.73956  1.0000
  H   H420      1.0  0.08621  0.52943  0.57266  1.0000
  C   C256      1.0  0.43287  0.50752  0.82719  1.0000
  H   H421      1.0  0.35192  0.55868  0.53051  1.0000
  H   H422      1.0  0.19814  0.60019  0.51439  1.0000
  C   C257      1.0  0.47006  0.35930  0.90528  1.0000
  C   C258      1.0  0.05298  0.59739  0.52248  1.0000
  H   H423      1.0  0.32410  0.55049  0.53164  1.0000
  H   H424      1.0  0.38205  0.58172  0.96768  1.0000
  H   H425      1.0  0.47964  0.55783  0.95629  1.0000
  H   H426      1.0  0.02251  0.63704  0.52709  1.0000
  H   H427      1.0  0.25641  0.40402  0.54591  1.0000
  H   H428      1.0  0.08967  0.45711  0.59857  1.0000
  H   H429      1.0  0.05317  0.49271  0.69257  1.0000
  C   C259      1.0  0.48019  0.49821  0.57261  1.0000
  C   C260      1.0  0.12377  0.53090  0.56702  1.0000
  N   N13       1.0  0.45093  0.51707  0.75859  1.0000
  C   C261      1.0  0.44924  0.51893  0.78385  1.0000
  C   C262      1.0  0.46729  0.53264  0.74235  1.0000
  C   C263      1.0  0.42556  0.52496  0.75448  1.0000
  C   C264      1.0  0.45943  0.49274  0.75338  1.0000
  H   H430      1.0  0.23902  0.39636  0.51458  1.0000
  H   H431      1.0  0.00004  0.48945  0.61330  1.0000
  C   C265      1.0  0.42374  0.52956  0.72849  1.0000
  H   H432      1.0  0.48617  0.57684  0.78480  1.0000
  C   C266      1.0  0.02334  0.40121  0.49705  1.0000
  C   C267      1.0  0.43645  0.52402  0.63886  1.0000
  H   H433      1.0  0.35261  0.61817  0.97304  1.0000
  C   C268      1.0  0.39730  0.53375  0.72670  1.0000
  C   C269      1.0  0.46520  0.39222  0.92656  1.0000
  H   H434      1.0  0.18811  0.64523  0.48952  1.0000
  H   H435      1.0  0.47424  0.52685  0.72474  1.0000
  H   H436      1.0  0.45677  0.55027  0.73939  1.0000
  H   H437      1.0  0.41660  0.54102  0.76215  1.0000
  H   H438      1.0  0.41387  0.51209  0.76359  1.0000
  H   H439      1.0  0.44561  0.48206  0.76313  1.0000
  H   H440      1.0  0.46089  0.49183  0.73463  1.0000
  C   C270      1.0  0.48442  0.48051  0.75801  1.0000
  H   H441      1.0  0.22343  0.58249  0.49884  1.0000
  H   H442      1.0  0.16424  0.61832  0.49890  1.0000
  H   H443      1.0  0.43975  0.48568  0.80097  1.0000
  H   H444      1.0  0.43364  0.51492  0.71920  1.0000
  H   H445      1.0  0.43149  0.54482  0.71900  1.0000
  C   C271      1.0  0.23255  0.47955  0.49409  1.0000
  H   H446      1.0  0.20508  0.50914  0.50445  1.0000
  H   H447      1.0  0.38969  0.40531  0.89240  1.0000
  H   H448      1.0  0.19663  0.47102  0.50273  1.0000
  C   C272      1.0  0.02675  0.42206  0.50114  1.0000
  H   H449      1.0  0.47485  0.57493  0.81639  1.0000
  C   C273      1.0  0.11360  0.45424  0.62156  1.0000
  H   H450      1.0  0.20903  0.40145  0.53332  1.0000
  C   C274      1.0  0.19042  0.56762  0.51318  1.0000
  H   H451      1.0  0.23995  0.43862  0.52287  1.0000
  C   C275      1.0  0.48337  0.63738  0.93663  1.0000
  H   H452      1.0  0.38900  0.51844  0.73497  1.0000
  H   H453      1.0  0.38653  0.54869  0.73543  1.0000
  H   H454      1.0  0.39655  0.53717  0.70796  1.0000
  N   N14       1.0  0.36533  0.38864  0.62023  1.0000
  C   C276      1.0  0.38228  0.38568  0.59647  1.0000
  C   C277      1.0  0.36455  0.36566  0.63535  1.0000
  C   C278      1.0  0.34009  0.39845  0.61653  1.0000
  C   C279      1.0  0.37223  0.40509  0.63222  1.0000
  C   C280      1.0  0.39734  0.39809  0.63836  1.0000
  C   C281      1.0  0.38344  0.40742  0.57805  1.0000
  C   C282      1.0  0.31902  0.39972  0.63904  1.0000
  C   C283      1.0  0.38839  0.34765  0.63265  1.0000
  C   C284      1.0  0.06799  0.48769  0.65608  1.0000
  C   C285      1.0  0.40423  0.41810  0.64554  1.0000
  C   C286      1.0  0.40176  0.40201  0.55520  1.0000
  C   C287      1.0  0.29433  0.40342  0.63304  1.0000
  H   H455      1.0  0.37696  0.37285  0.58865  1.0000
  H   H456      1.0  0.40122  0.37849  0.59793  1.0000
  H   H457      1.0  0.35821  0.36797  0.65423  1.0000
  H   H458      1.0  0.35111  0.35712  0.63156  1.0000
  H   H459      1.0  0.33573  0.38851  0.60486  1.0000
  H   H460      1.0  0.33907  0.41627  0.60730  1.0000
  H   H461      1.0  0.37114  0.42227  0.62168  1.0000
  H   H462      1.0  0.35877  0.40780  0.64910  1.0000
  H   H463      1.0  0.41211  0.39231  0.62345  1.0000
  H   H464      1.0  0.39658  0.38428  0.65353  1.0000
  H   H465      1.0  0.36559  0.41428  0.57363  1.0000
  H   H466      1.0  0.38915  0.42089  0.58446  1.0000
  H   H467      1.0  0.31916  0.41423  0.64789  1.0000
  H   H468      1.0  0.32016  0.38400  0.65186  1.0000
  H   H469      1.0  0.39339  0.34175  0.61521  1.0000
  H   H470      1.0  0.40380  0.35456  0.63419  1.0000
  H   H471      1.0  0.41988  0.51768  0.64979  1.0000
  H   H472      1.0  0.23919  0.38129  0.55596  1.0000
  H   H473      1.0  0.31322  0.61518  0.52221  1.0000
  H   H474      1.0  0.38945  0.42559  0.65961  1.0000
  H   H475      1.0  0.42084  0.41224  0.65233  1.0000
  H   H476      1.0  0.40806  0.43133  0.63015  1.0000
  H   H477      1.0  0.40218  0.41773  0.54220  1.0000
  H   H478      1.0  0.42030  0.39559  0.55824  1.0000
  H   H479      1.0  0.39646  0.38896  0.54772  1.0000
  H   H480      1.0  0.29264  0.38839  0.62587  1.0000
  H   H481      1.0  0.27955  0.40593  0.64907  1.0000
  H   H482      1.0  0.29206  0.41879  0.61992  1.0000
  H   H483      1.0  0.41383  0.50868  0.80090  1.0000
  H   H484      1.0  0.44243  0.53705  0.78705  1.0000
  S   S68       1.0  0.46140  0.47297  0.87307  1.0000
  H   H485      1.0  0.27120  0.44399  0.49026  1.0000
  S   S69       1.0  0.10733  0.43325  0.51134  1.0000
  H   H486      1.0  0.01266  0.56054  0.56033  1.0000
  H   H487      1.0  0.06800  0.51835  0.63043  1.0000
  C   C288      1.0  0.48058  0.51199  0.61798  1.0000
  H   H488      1.0  0.36582  0.52231  0.52186  1.0000
  C   C289      1.0  0.45951  0.34226  0.92622  1.0000
  C   C290      1.0  0.43838  0.63036  0.90523  1.0000
  C   C291      1.0  0.22722  0.40648  0.52843  1.0000
  H   H489      1.0  0.42476  0.64317  0.91521  1.0000
  C   C292      1.0  0.07933  0.50095  0.63216  1.0000
  H   H490      1.0  0.05183  0.48117  0.65568  1.0000
  H   H491      1.0  0.43172  0.53530  0.62320  1.0000
  S   S70       1.0  0.43305  0.33545  0.55714  1.0000
  C   C293      1.0  0.48926  0.53604  0.75070  1.0000
  H   H492      1.0  0.46357  0.49595  0.54480  1.0000
  H   H493      1.0  0.49331  0.46757  0.63632  1.0000
  C   C294      1.0  0.30959  0.54309  0.57981  1.0000
  H   H494      1.0  0.45167  0.50381  0.82976  1.0000
  H   H495      1.0  0.07464  0.45706  0.62843  1.0000
  H   H496      1.0  0.15995  0.59542  0.48704  1.0000
  H   H497      1.0  0.10146  0.42564  0.64677  1.0000
  H   H498      1.0  0.38644  0.37872  0.91172  1.0000
  H   H499      1.0  0.34006  0.56396  0.58710  1.0000
  C   C295      1.0  0.47849  0.51349  0.67967  1.0000
  H   H500      1.0  0.46104  0.50893  0.68193  1.0000
  N   N15       1.0  0.42056  0.59518  0.92937  1.0000
  H   H501      1.0  0.43685  0.57609  0.95739  1.0000
  H   H502      1.0  0.42438  0.52533  0.83035  1.0000
  C   C296      1.0  0.06053  0.50277  0.67559  1.0000
  H   H503      1.0  0.46556  0.54951  0.67088  1.0000
  H   H504      1.0  0.46687  0.39297  0.86855  1.0000
  C   C297      1.0  0.02237  0.58900  0.50453  1.0000
  C   C298      1.0  0.45637  0.39858  0.96908  1.0000
  C   C299      1.0  0.42320  0.38003  0.89022  1.0000
  H   H505      1.0  0.38966  0.38012  0.88063  1.0000
  H   H506      1.0  0.18462  0.43416  0.50694  1.0000
  H   H507      1.0  0.27147  0.54628  0.62036  1.0000
  N   N16       1.0  0.33512  0.54214  0.56458  1.0000
  H   H508      1.0  0.49278  0.50890  0.56046  1.0000
  H   H509      1.0  0.44496  0.60312  0.94724  1.0000
  S   S71       1.0  0.44664  0.49832  0.92022  1.0000
  S   S72       1.0  0.42876  0.45017  0.92115  1.0000
  H   H510      1.0  0.36230  0.55353  0.61872  1.0000
  H   H511      1.0  0.05761  0.61093  0.52985  1.0000
  H   H512      1.0  0.38588  0.48244  0.55576  1.0000
  C   C300      1.0  0.36541  0.53212  0.59215  1.0000
  C   C301      1.0  0.07708  0.58382  0.50949  1.0000
  H   H513      1.0  0.33153  0.51204  0.55223  1.0000
  C   C302      1.0  0.39993  0.60944  0.94478  1.0000
  H   H514      1.0  0.31544  0.53258  0.61535  1.0000
  H   H515      1.0  0.48276  0.37784  0.61067  1.0000
  S   S73       1.0  0.38350  0.49372  0.96139  1.0000
  C   C303      1.0  0.30651  0.52724  0.60356  1.0000
  H   H516      1.0  0.29754  0.53928  0.56984  1.0000
  C   C304      1.0  0.38878  0.59698  0.96919  1.0000
  H   H517      1.0  0.46757  0.41035  0.92186  1.0000
  H   H518      1.0  0.46866  0.35435  0.88873  1.0000
  H   H519      1.0  0.40613  0.62428  0.94834  1.0000
  H   H520      1.0  0.30177  0.56057  0.58446  1.0000
  H   H521      1.0  0.47272  0.58793  0.91036  1.0000
  H   H522      1.0  0.09475  0.53428  0.59797  1.0000
  H   H523      1.0  0.11389  0.41939  0.61690  1.0000
  H   H524      1.0  0.43940  0.34494  0.93001  1.0000
  H   H525      1.0  0.42504  0.40762  0.90772  1.0000
  H   H526      1.0  0.48440  0.50457  0.87901  1.0000
  C   C305      1.0  0.32360  0.59762  0.52026  1.0000
  H   H527      1.0  0.12126  0.54973  0.56222  1.0000
  H   H528      1.0  0.02707  0.54368  0.49461  1.0000
  H   H529      1.0  0.31677  0.59067  0.50785  1.0000
  C   C306      1.0  0.48842  0.45493  0.75678  1.0000
  C   C307      1.0  0.11570  0.42872  0.63050  1.0000
  H   H530      1.0  0.13902  0.52536  0.57595  1.0000
  H   H531      1.0  0.02257  0.48672  0.58613  1.0000
  H   H532      1.0  0.47490  0.44680  0.77094  1.0000
  C   C308      1.0  0.20337  0.58811  0.50124  1.0000
  Fe  Fe40      1.0  0.46379  0.46342  0.91068  1.0000
  H   H533      1.0  0.47249  0.57752  0.86192  1.0000
  H   H534      1.0  0.09706  0.50376  0.63391  1.0000
  C   C309      1.0  0.08900  0.46433  0.61465  1.0000
  C   C310      1.0  0.48534  0.56993  0.94039  1.0000
  N   N17       1.0  0.22190  0.43983  0.49496  1.0000
  H   H535      1.0  0.07647  0.50911  0.67723  1.0000
  H   H536      1.0  0.43100  0.38744  0.87208  1.0000
  S   S74       1.0  0.06592  0.47861  0.49837  1.0000
  H   H537      1.0  0.19211  0.55545  0.50091  1.0000
  H   H538      1.0  0.13383  0.42189  0.63440  1.0000
  H   H539      1.0  0.23610  0.47506  0.51182  1.0000
  H   H540      1.0  0.45445  0.62568  0.91284  1.0000
  H   H541      1.0  0.48028  0.47054  0.60170  1.0000
  H   H542      1.0  0.34310  0.59858  0.51281  1.0000
  N   N18       1.0  0.08281  0.49007  0.61042  1.0000
  C   C311      1.0  0.05581  0.64129  0.48648  1.0000
  H   H543      1.0  0.12063  0.49387  0.59819  1.0000
  H   H544      1.0  0.46733  0.51432  0.78802  1.0000
  H   H545      1.0  0.31958  0.34884  0.60305  1.0000
  H   H546      1.0  0.06442  0.49131  0.58315  1.0000
  H   H547      1.0  0.46509  0.34404  0.94206  1.0000
  H   H548      1.0  0.38223  0.54303  0.93193  1.0000
  H   H549      1.0  0.44227  0.53407  0.64937  1.0000
  H   H550      1.0  0.48260  0.54607  0.76565  1.0000
  C   C312      1.0  0.01747  0.44234  0.48815  1.0000
  C   C313      1.0  0.31357  0.53300  0.49291  1.0000
  C   C314      1.0  0.47057  0.39788  0.88404  1.0000
  H   H551      1.0  0.46119  0.62995  0.86971  1.0000
  H   H552      1.0  0.38123  0.33166  0.66911  1.0000
  H   H553      1.0  0.44971  0.49479  0.62075  1.0000
  H   H554      1.0  0.03017  0.38550  0.50715  1.0000
  H   H555      1.0  0.20573  0.41101  0.49449  1.0000
  H   H556      1.0  0.48991  0.35622  0.90427  1.0000
  H   H557      1.0  0.40239  0.59151  0.98004  1.0000
  C   C315      1.0  0.48896  0.58082  0.80115  1.0000
  H   H558      1.0  0.48616  0.48228  0.77555  1.0000
  H   H559      1.0  0.48311  0.38264  0.92956  1.0000
  C   C316      1.0  0.48956  0.52065  0.87815  1.0000
  H   H560      1.0  0.43116  0.64750  0.87160  1.0000
  C   C317      1.0  0.49273  0.48231  0.59118  1.0000
  S   S75       1.0  0.49639  0.46734  0.68815  1.0000
  H   H561      1.0  0.21465  0.63096  0.50010  1.0000
  H   H562      1.0  0.41774  0.44869  0.98060  1.0000
  C   C318      1.0  0.01454  0.62392  0.52250  1.0000
  H   H563      1.0  0.08674  0.59516  0.49497  1.0000
  C   C319      1.0  0.22226  0.50513  0.49107  1.0000
  H   H564      1.0  0.48841  0.47285  0.54868  1.0000
  H   H565      1.0  0.44189  0.37439  0.95715  1.0000
  H   H566      1.0  0.27157  0.41410  0.49771  1.0000
  C   C320      1.0  0.26944  0.42875  0.48370  1.0000
  C   C321      1.0  0.21470  0.46554  0.49088  1.0000
  H   H567      1.0  0.02184  0.49635  0.53563  1.0000
  C   C322      1.0  0.38536  0.32676  0.65126  1.0000
  H   H568      1.0  0.48691  0.59965  0.79978  1.0000
  H   H569      1.0  0.46049  0.41612  0.96352  1.0000
  H   H570      1.0  0.01242  0.51403  0.59705  1.0000
  H   H571      1.0  0.45906  0.49203  0.64757  1.0000
  H   H572      1.0  0.48637  0.51930  0.63082  1.0000
  H   H573      1.0  0.01956  0.45858  0.49160  1.0000
  H   H574      1.0  0.46359  0.50962  0.58092  1.0000
  H   H575      1.0  0.48852  0.58534  0.94571  1.0000
  H   H576      1.0  0.47320  0.38655  0.97177  1.0000
  H   H577      1.0  0.00154  0.63351  0.51178  1.0000
  C   C323      1.0  0.01030  0.51182  0.54147  1.0000
  C   C324      1.0  0.47241  0.48427  0.55802  1.0000
  C   C325      1.0  0.99938  0.61307  0.54595  1.0000
  H   H578      1.0  0.06934  0.63615  0.49740  1.0000
  H   H579      1.0  0.02277  0.57465  0.51894  1.0000
  C   C326      1.0  0.40623  0.52349  0.97497  1.0000
  H   H580      1.0  0.00275  0.59542  0.50498  1.0000
  C   C327      1.0  0.20767  0.63779  0.48411  1.0000
  H   H581      1.0  0.44328  0.32318  0.64066  1.0000
  S   S76       1.0  0.36742  0.32220  0.59190  1.0000
  C   C328      1.0  0.17043  0.60958  0.48296  1.0000
  H   H582      1.0  0.12520  0.63790  0.48327  1.0000
  C   C329      1.0  0.49865  0.39578  0.87864  1.0000
  C   C330      1.0  0.49856  0.49650  0.68246  1.0000
  H   H583      1.0  0.49794  0.62283  0.93494  1.0000
  C   C331      1.0  0.34630  0.84236  0.25431  1.0000
  H   H584      1.0  0.46264  0.68626  0.98795  1.0000
  H   H585      1.0  0.44331  0.67159  0.37841  1.0000
  S   S77       1.0  0.41478  0.93064  0.39122  1.0000
  H   H586      1.0  0.07620  0.66605  0.46308  1.0000
  Fe  Fe41      1.0  0.40262  0.74715  0.39693  1.0000
  S   S78       1.0  0.43882  0.73219  0.37553  1.0000
  S   S79       1.0  0.37717  0.72325  0.41826  1.0000
  Fe  Fe42      1.0  0.41197  0.79660  0.38002  1.0000
  S   S80       1.0  0.44826  0.78461  0.35665  1.0000
  S   S81       1.0  0.39427  0.83431  0.37952  1.0000
  Fe  Fe43      1.0  0.43004  0.75984  0.34691  1.0000
  S   S82       1.0  0.43413  0.75381  0.30950  1.0000
  Fe  Fe44      1.0  0.45329  0.75807  0.38763  1.0000
  H   H587      1.0  0.48674  0.69848  0.45968  1.0000
  S   S83       1.0  0.39313  0.77376  0.36787  1.0000
  S   S84       1.0  0.41770  0.77109  0.41163  1.0000
  H   H588      1.0  0.32077  0.67504  0.41479  1.0000
  C   C332      1.0  0.47563  0.86253  0.43317  1.0000
  Fe  Fe45      1.0  0.44864  0.96547  0.44285  1.0000
  H   H589      1.0  0.48261  0.68666  0.21605  1.0000
  H   H590      1.0  0.29236  0.71428  0.29252  1.0000
  H   H591      1.0  0.45766  0.77935  0.42775  1.0000
  C   C333      1.0  0.27510  0.69341  0.32384  1.0000
  H   H592      1.0  0.39652  0.84954  0.29592  1.0000
  N   N19       1.0  0.30438  0.67896  0.28641  1.0000
  H   H593      1.0  0.47722  0.82190  0.38201  1.0000
  H   H594      1.0  0.36538  0.84532  0.33293  1.0000
  H   H595      1.0  0.46973  0.84868  0.40517  1.0000
  C   C334      1.0  0.38027  0.95118  0.44935  1.0000
  H   H596      1.0  0.46773  0.66036  0.08551  1.0000
  C   C335      1.0  0.42816  0.67745  0.39310  1.0000
  H   H597      1.0  0.45097  0.81739  0.28157  1.0000
  H   H598      1.0  0.28973  0.68742  0.33339  1.0000
  N   N20       1.0  0.37639  0.82162  0.30744  1.0000
  H   H599      1.0  0.49579  0.65552  0.06370  1.0000
  H   H600      1.0  0.44612  0.74060  0.44574  1.0000
  C   C336      1.0  0.32623  0.67395  0.29696  1.0000
  H   H601      1.0  0.31085  0.97099  0.42719  1.0000
  H   H602      1.0  0.39676  0.95574  0.43645  1.0000
  H   H603      1.0  0.48918  0.97358  0.47297  1.0000
  C   C337      1.0  0.42971  0.72702  0.30546  1.0000
  C   C338      1.0  0.43045  0.72275  0.28292  1.0000
  C   C339      1.0  0.42727  0.70136  0.27942  1.0000
  C   C340      1.0  0.42391  0.68398  0.29840  1.0000
  C   C341      1.0  0.42292  0.68841  0.32086  1.0000
  C   C342      1.0  0.42556  0.70983  0.32444  1.0000
  H   H604      1.0  0.43345  0.73604  0.26816  1.0000
  H   H605      1.0  0.42769  0.69827  0.26206  1.0000
  H   H606      1.0  0.42011  0.67520  0.33562  1.0000
  H   H607      1.0  0.42453  0.71297  0.34189  1.0000
  C   C343      1.0  0.36166  0.71100  0.40331  1.0000
  C   C344      1.0  0.36569  0.71495  0.37884  1.0000
  C   C345      1.0  0.35359  0.70450  0.36739  1.0000
  C   C346      1.0  0.33737  0.69000  0.38024  1.0000
  C   C347      1.0  0.33330  0.68608  0.40470  1.0000
  C   C348      1.0  0.34544  0.69651  0.41616  1.0000
  H   H608      1.0  0.37826  0.72593  0.36872  1.0000
  H   H609      1.0  0.35696  0.70757  0.34848  1.0000
  H   H610      1.0  0.34219  0.69341  0.43508  1.0000
  H   H611      1.0  0.47637  0.69071  0.01030  1.0000
  C   C349      1.0  0.25940  0.71496  0.33337  1.0000
  C   C350      1.0  0.40335  0.65453  0.15685  1.0000
  C   C351      1.0  0.41096  0.90290  0.38859  1.0000
  C   C352      1.0  0.42842  0.88289  0.39091  1.0000
  C   C353      1.0  0.42389  0.86148  0.38827  1.0000
  C   C354      1.0  0.40192  0.86009  0.38332  1.0000
  C   C355      1.0  0.38476  0.88015  0.38106  1.0000
  C   C356      1.0  0.38923  0.90124  0.38361  1.0000
  H   H612      1.0  0.44532  0.88408  0.39451  1.0000
  H   H613      1.0  0.43719  0.84609  0.39002  1.0000
  H   H614      1.0  0.36775  0.87942  0.37728  1.0000
  H   H615      1.0  0.37564  0.91645  0.38169  1.0000
  H   H616      1.0  0.46491  0.79731  0.45858  1.0000
  H   H617      1.0  0.39623  0.91523  0.44965  1.0000
  C   C357      1.0  0.47554  0.77589  0.43120  1.0000
  C   C358      1.0  0.45108  0.71438  0.47527  1.0000
  Fe  Fe46      1.0  0.44379  0.94278  0.40266  1.0000
  H   H618      1.0  0.31878  0.67920  0.21389  1.0000
  H   H619      1.0  0.48856  0.68087  0.26678  1.0000
  H   H620      1.0  0.39670  0.79159  0.29119  1.0000
  H   H621      1.0  0.40094  0.92797  0.47264  1.0000
  C   C359      1.0  0.36632  0.75932  0.30871  1.0000
  C   C360      1.0  0.36966  0.96920  0.46654  1.0000
  H   H622      1.0  0.33230  0.84650  0.36862  1.0000
  C   C361      1.0  0.30487  0.69419  0.21958  1.0000
  H   H623      1.0  0.42183  0.80274  0.31689  1.0000
  H   H624      1.0  0.21505  0.66464  0.45458  1.0000
  H   H625      1.0  0.48417  0.72826  0.45967  1.0000
  H   H626      1.0  0.26346  0.68022  0.32807  1.0000
  H   H627      1.0  0.34795  0.81970  0.38114  1.0000
  C   C362      1.0  0.48545  0.67407  0.25206  1.0000
  C   C363      1.0  0.45092  0.86042  0.44987  1.0000
  S   S85       1.0  0.45079  0.92906  0.43818  1.0000
  H   H628      1.0  0.32881  0.67373  0.25254  1.0000
  C   C364      1.0  0.36021  0.78542  0.30445  1.0000
  H   H629      1.0  0.38545  0.66637  0.38686  1.0000
  H   H630      1.0  0.38021  0.84697  0.25894  1.0000
  C   C365      1.0  0.34276  0.81938  0.34638  1.0000
  C   C366      1.0  0.29337  0.68987  0.24585  1.0000
  H   H631      1.0  0.28445  0.67486  0.24887  1.0000
  H   H632      1.0  0.34515  0.80048  0.34966  1.0000
  C   C367      1.0  0.35848  0.83479  0.29334  1.0000
  H   H633      1.0  0.40829  0.82619  0.27942  1.0000
  H   H634      1.0  0.48083  0.82764  0.42649  1.0000
  H   H635      1.0  0.35340  0.84293  0.23504  1.0000
  H   H636      1.0  0.43675  0.86259  0.43989  1.0000
  H   H637      1.0  0.25189  0.71094  0.35254  1.0000
  H   H638      1.0  0.40066  0.66469  0.42096  1.0000
  H   H639      1.0  0.35091  0.75199  0.30740  1.0000
  C   C368      1.0  0.39997  0.83052  0.29750  1.0000
  H   H640      1.0  0.36709  0.94970  0.43955  1.0000
  H   H641      1.0  0.37714  0.81768  0.26195  1.0000
  H   H642      1.0  0.38033  0.81798  0.34305  1.0000
  H   H643      1.0  0.31679  0.82259  0.37990  1.0000
  C   C369      1.0  0.41993  0.82145  0.31156  1.0000
  H   H644      1.0  0.34298  0.79089  0.31705  1.0000
  H   H645      1.0  0.34102  0.82848  0.29922  1.0000
  C   C370      1.0  0.36708  0.82671  0.33243  1.0000
  H   H646      1.0  0.46678  0.67022  0.25737  1.0000
  H   H647      1.0  0.27047  0.72844  0.33053  1.0000
  H   H648      1.0  0.36807  0.70366  0.30521  1.0000
  H   H649      1.0  0.36975  0.75328  0.32649  1.0000
  H   H650      1.0  0.42507  0.67251  0.12692  1.0000
  H   H651      1.0  0.47389  0.88005  0.42337  1.0000
  H   H652      1.0  0.49562  0.87003  0.37542  1.0000
  H   H653      1.0  0.32798  0.82646  0.33714  1.0000
  C   C371      1.0  0.36742  0.83481  0.26640  1.0000
  C   C372      1.0  0.48332  0.84444  0.41598  1.0000
  C   C373      1.0  0.28535  0.69795  0.29693  1.0000
  C   C374      1.0  0.41243  0.66075  0.13272  1.0000
  C   C375      1.0  0.33624  0.69515  0.29875  1.0000
  H   H654      1.0  0.31947  0.70258  0.25697  1.0000
  H   H655      1.0  0.38272  0.75292  0.29543  1.0000
  S   S86       1.0  0.43849  0.97948  0.40871  1.0000
  H   H656      1.0  0.37457  0.68057  0.28815  1.0000
  H   H657      1.0  0.35679  0.79040  0.28663  1.0000
  H   H658      1.0  0.24398  0.72142  0.32477  1.0000
  H   H659      1.0  0.29065  0.69710  0.20953  1.0000
  S   S87       1.0  0.42971  0.97822  0.47777  1.0000
  H   H660      1.0  0.41577  0.69226  0.38608  1.0000
  C   C376      1.0  0.41413  0.65833  0.40538  1.0000
  H   H661      1.0  0.41533  0.82988  0.32757  1.0000
  H   H662      1.0  0.45825  0.82055  0.30811  1.0000
  H   H663      1.0  0.35359  0.85301  0.29646  1.0000
  H   H664      1.0  0.45080  0.67630  0.01825  1.0000
  H   H665      1.0  0.26931  0.70133  0.28915  1.0000
  H   H666      1.0  0.48889  0.86068  0.44404  1.0000
  S   S88       1.0  0.32323  0.67654  0.36509  1.0000
  S   S89       1.0  0.48831  0.96492  0.42789  1.0000
  C   C377      1.0  0.33450  0.82762  0.37043  1.0000
  C   C378      1.0  0.44470  0.82653  0.29720  1.0000
  H   H667      1.0  0.38474  0.96992  0.47438  1.0000
  H   H668      1.0  0.38803  0.78676  0.32190  1.0000
  H   H669      1.0  0.35582  0.96238  0.48149  1.0000
  C   C379      1.0  0.38141  0.79620  0.30638  1.0000
  C   C380      1.0  0.47969  0.78608  0.44863  1.0000
  H   H670      1.0  0.43579  0.68310  0.40578  1.0000
  H   H671      1.0  0.33635  0.85967  0.25807  1.0000
  H   H672      1.0  0.33350  0.83011  0.26034  1.0000
  Fe  Fe47      1.0  0.47872  0.97748  0.39324  1.0000
  H   H673      1.0  0.49344  0.84117  0.35969  1.0000
  H   H674      1.0  0.37143  0.92146  0.47458  1.0000
  H   H675      1.0  0.27910  0.70496  0.25036  1.0000
  H   H676      1.0  0.44372  0.84518  0.29154  1.0000
  H   H677      1.0  0.49160  0.80749  0.34378  1.0000
  H   H678      1.0  0.32425  0.70410  0.31345  1.0000
  S   S90       1.0  0.41193  0.66674  0.17739  1.0000
  C   C381      1.0  0.36170  0.68833  0.30322  1.0000
  H   H679      1.0  0.33740  0.70754  0.28250  1.0000
  H   H680      1.0  0.46270  0.65483  0.17520  1.0000
  S   S91       1.0  0.48300  0.94220  0.38347  1.0000
  H   H681      1.0  0.42274  0.72348  0.45585  1.0000
  C   C382      1.0  0.31277  0.68619  0.26037  1.0000
  H   H682      1.0  0.31356  0.70953  0.21535  1.0000
  C   C383      1.0  0.49541  0.82452  0.37107  1.0000
  H   H683      1.0  0.27511  0.66163  0.28739  1.0000
  H   H684      1.0  0.34142  0.66241  0.28671  1.0000
  Fe  Fe48      1.0  0.48948  0.93015  0.41954  1.0000
  H   H685      1.0  0.47235  0.70795  0.23569  1.0000
  C   C384      1.0  0.44260  0.72304  0.45254  1.0000
  H   H686      1.0  0.45189  0.84348  0.46096  1.0000
  C   C385      1.0  0.46774  0.67869  0.00480  1.0000
  S   S92       1.0  0.48946  0.74697  0.39760  1.0000
  C   C386      1.0  0.47903  0.71238  0.47089  1.0000
  C   C387      1.0  0.22106  0.65717  0.47101  1.0000
  C   C388      1.0  0.48638  0.69274  0.23091  1.0000
  H   H687      1.0  0.36179  0.67597  0.31947  1.0000
  H   H688      1.0  0.28712  0.96972  0.45372  1.0000
  H   H689      1.0  0.44560  0.87390  0.46151  1.0000
  H   H690      1.0  0.45222  0.71176  0.43895  1.0000
  H   H691      1.0  0.32717  0.96059  0.46296  1.0000
  C   C389      1.0  0.38763  0.92754  0.46247  1.0000
  H   H692      1.0  0.05568  0.65675  0.45042  1.0000
  H   H693      1.0  0.49239  0.66222  0.16484  1.0000
  C   C390      1.0  0.49445  0.76111  0.41852  1.0000
  H   H694      1.0  0.32236  0.66418  0.31492  1.0000
  C   C391      1.0  0.31979  0.97879  0.45770  1.0000
  C   C392      1.0  0.48493  0.65570  0.00221  1.0000
  H   H695      1.0  0.41189  0.65716  0.09748  1.0000
  S   S93       1.0  0.42142  0.65626  0.29524  1.0000
  C   C393      1.0  0.29341  0.65770  0.29131  1.0000
  C   C394      1.0  0.30162  0.97924  0.44317  1.0000
  H   H696      1.0  0.34879  0.98460  0.42677  1.0000
  H   H697      1.0  0.30961  0.98653  0.47374  1.0000
  C   C395      1.0  0.48560  0.68538  0.53425  1.0000
  C   C396      1.0  0.44493  0.67463  0.94018  1.0000
  C   C397      1.0  0.45247  0.91250  0.52886  1.0000
  H   H698      1.0  0.49281  0.93167  0.52501  1.0000
  H   H699      1.0  0.47440  0.75246  0.54027  1.0000
  C   C398      1.0  0.42783  0.91162  0.52477  1.0000
  C   C399      1.0  0.47178  0.66824  0.55180  1.0000
  H   H700      1.0  0.45209  0.73308  0.52226  1.0000
  H   H701      1.0  0.47846  0.66450  0.56814  1.0000
  C   C400      1.0  0.46484  0.67468  0.92075  1.0000
  C   C401      1.0  0.46494  0.74364  0.51051  1.0000
  H   H702      1.0  0.47952  0.77270  0.51388  1.0000
  H   H703      1.0  0.47707  0.93729  0.48637  1.0000
  H   H704      1.0  0.44907  0.77167  0.53100  1.0000
  C   C402      1.0  0.46720  0.76115  0.52477  1.0000
  H   H705      1.0  0.45699  0.69820  0.51634  1.0000
  H   H706      1.0  0.42443  0.89381  0.52869  1.0000
  N   N21       1.0  0.48991  0.70743  0.49209  1.0000
  H   H707      1.0  0.45701  0.75319  0.49571  1.0000
  H   H708      1.0  0.45445  0.93068  0.52510  1.0000
  H   H709      1.0  0.45200  0.67537  0.55634  1.0000
  H   H710      1.0  0.43002  0.68905  0.94131  1.0000
  H   H711      1.0  0.41317  0.92229  0.53642  1.0000
  H   H712      1.0  0.45198  0.90654  0.54769  1.0000
  H   H713      1.0  0.49048  0.89805  0.55136  1.0000
  H   H714      1.0  0.47004  0.87949  0.51901  1.0000
  C   C403      1.0  0.49005  0.72926  0.50070  1.0000
  C   C404      1.0  0.47336  0.89727  0.51322  1.0000
  H   H715      1.0  0.42716  0.91850  0.50630  1.0000
  H   H716      1.0  0.47097  0.90138  0.49490  1.0000
  H   H717      1.0  0.46519  0.68913  0.90700  1.0000
  H   H718      1.0  0.48726  0.96187  0.57802  1.0000
  H   H719      1.0  0.47794  0.67509  0.50442  1.0000
  C   C405      1.0  0.47673  0.69134  0.51117  1.0000
  H   H720      1.0  0.48541  0.96874  0.50404  1.0000
  H   H721      1.0  0.44601  0.69730  0.48197  1.0000
  C   C406      1.0  0.49150  0.97858  0.57050  1.0000
  H   H722      1.0  0.47623  0.66079  0.73077  1.0000
  C   C407      1.0  0.49671  0.96274  0.48737  1.0000
  C   C408      1.0  0.44416  0.65607  0.95808  1.0000
  C   C409      1.0  0.48405  0.65601  0.91881  1.0000
  H   H723      1.0  0.45427  0.65707  0.88040  1.0000
  C   C410      1.0  0.49574  0.93779  0.48730  1.0000
  H   H724      1.0  0.44081  0.72608  0.48813  1.0000
  H   H725      1.0  0.04144  0.65523  0.49383  1.0000
  N   N22       1.0  0.49887  0.89856  0.51377  1.0000
  H   H726      1.0  0.49830  0.87065  0.54246  1.0000
  H   H727      1.0  0.48245  0.70093  0.54274  1.0000
  H   H728      1.0  0.21723  0.67085  0.48222  1.0000
  S   S94       1.0  0.41827  0.65664  0.98171  1.0000
  Fe  Fe49      1.0  0.60884  0.09659  0.39746  1.0000
  S   S95       1.0  0.62605  0.09081  0.36018  1.0000
  S   S96       1.0  0.63075  0.08868  0.42487  1.0000
  Fe  Fe50      1.0  0.56035  0.11904  0.38576  1.0000
  S   S97       1.0  0.57348  0.11436  0.34804  1.0000
  C   C411      1.0  0.52122  0.17531  0.34720  1.0000
  Fe  Fe51      1.0  0.59105  0.07934  0.36179  1.0000
  S   S98       1.0  0.59020  0.04520  0.35198  1.0000
  Fe  Fe52      1.0  0.60653  0.12653  0.35070  1.0000
  S   S99       1.0  0.61927  0.15675  0.32552  1.0000
  S   S100      1.0  0.57526  0.08333  0.39960  1.0000
  S   S101      1.0  0.59207  0.13302  0.38784  1.0000
  N   N23       1.0  0.70397  0.27878  0.31822  1.0000
  H   H729      1.0  0.50876  0.25299  0.41920  1.0000
  S   S102      1.0  0.63274  0.28924  0.39525  1.0000
  H   H730      1.0  0.61520  0.16094  0.42123  1.0000
  H   H731      1.0  0.57871  1.00000  0.35922  1.0000
  Fe  Fe53      1.0  0.62139  0.27149  0.37128  1.0000
  S   S103      1.0  0.64209  0.23536  0.36832  1.0000
  H   H732      1.0  0.57798  0.14760  0.26973  1.0000
  H   H733      1.0  0.74547  0.28320  0.33441  1.0000
  S   S104      1.0  0.58164  0.28084  0.38742  1.0000
  H   H734      1.0  0.54866  0.21141  0.39190  1.0000
  C   C412      1.0  0.62310  0.17892  0.33892  1.0000
  C   C413      1.0  0.63238  0.17392  0.35898  1.0000
  C   C414      1.0  0.63726  0.19153  0.36832  1.0000
  C   C415      1.0  0.63204  0.21438  0.35828  1.0000
  C   C416      1.0  0.62146  0.21957  0.33900  1.0000
  C   C417      1.0  0.61750  0.20183  0.32904  1.0000
  H   H735      1.0  0.63698  0.15634  0.36661  1.0000
  H   H736      1.0  0.64568  0.18734  0.38306  1.0000
  H   H737      1.0  0.61742  0.23712  0.33110  1.0000
  H   H738      1.0  0.61039  0.20584  0.31350  1.0000
  C   C418      1.0  0.56203  0.03558  0.35882  1.0000
  C   C419      1.0  0.56175  0.01211  0.36117  1.0000
  C   C420      1.0  0.61991  0.22885  0.42895  1.0000
  C   C421      1.0  0.51057  0.06876  0.42466  1.0000
  H   H739      1.0  0.67387  0.00488  0.34391  1.0000
  C   C422      1.0  0.53995  0.05102  0.36110  1.0000
  C   C423      1.0  0.55662  0.16649  0.29825  1.0000
  H   H740      1.0  0.53689  0.21953  0.43312  1.0000
  H   H741      1.0  0.66458  0.29831  0.29455  1.0000
  H   H742      1.0  0.53990  0.06913  0.35896  1.0000
  H   H743      1.0  0.59072  0.00553  0.39492  1.0000
  H   H744      1.0  0.57858  0.20993  0.37256  1.0000
  H   H745      1.0  0.68205  0.29535  0.38758  1.0000
  C   C424      1.0  0.53744  0.13850  0.43720  1.0000
  C   C425      1.0  0.59913  0.17751  0.45277  1.0000
  C   C426      1.0  0.51642  0.12644  0.47683  1.0000
  H   H746      1.0  0.55304  0.14426  0.42511  1.0000
  C   C427      1.0  0.62925  0.06382  0.44556  1.0000
  C   C428      1.0  0.61687  0.04697  0.44417  1.0000
  C   C429      1.0  0.69675  0.28837  0.34116  1.0000
  H   H747      1.0  0.55549  0.05016  0.43330  1.0000
  C   C430      1.0  0.69939  0.28309  0.38367  1.0000
  C   C431      1.0  0.52467  0.02780  0.42698  1.0000
  H   H748      1.0  0.60772  0.04919  0.43016  1.0000
  C   C432      1.0  0.68782  0.26199  0.31965  1.0000
  H   H749      1.0  0.71820  0.25916  0.35999  1.0000
  H   H750      1.0  0.77655  0.24970  0.32122  1.0000
  C   C433      1.0  0.67291  0.23639  0.29969  1.0000
  H   H751      1.0  0.51112  0.18200  0.36397  1.0000
  C   C434      1.0  0.64112  0.06082  0.46374  1.0000
  S   S105      1.0  0.62183  0.30162  0.34308  1.0000
  C   C435      1.0  0.74890  0.27987  0.31605  1.0000
  C   C436      1.0  0.69287  0.05459  0.40300  1.0000
  C   C437      1.0  0.53050  0.30624  0.44781  1.0000
  H   H752      1.0  0.68383  0.07051  0.39384  1.0000
  H   H753      1.0  0.52772  0.27189  0.42130  1.0000
  H   H754      1.0  0.73598  0.26229  0.29508  1.0000
  C   C438      1.0  0.53055  0.00383  0.44056  1.0000
  H   H755      1.0  0.65080  0.07372  0.46489  1.0000
  H   H756      1.0  0.51972  0.23539  0.27392  1.0000
  H   H757      1.0  0.69053  0.24746  0.33375  1.0000
  H   H758      1.0  0.58695  0.00420  0.42611  1.0000
  H   H759      1.0  0.53561  0.25731  0.27520  1.0000
  H   H760      1.0  0.65437  0.24696  0.30242  1.0000
  C   C439      1.0  0.58298  0.19792  0.44106  1.0000
  H   H761      1.0  0.60653  0.01441  0.45998  1.0000
  H   H762      1.0  0.60873  0.21574  0.46595  1.0000
  H   H763      1.0  0.50785  0.25363  0.29678  1.0000
  C   C440      1.0  0.69180  0.25124  0.29701  1.0000
  H   H764      1.0  0.51983  0.19022  0.42105  1.0000
  C   C441      1.0  0.70047  0.27094  0.36313  1.0000
  H   H765      1.0  0.53571  0.08706  0.44751  1.0000
  N   N24       1.0  0.51759  0.04753  0.44109  1.0000
  H   H766      1.0  0.69037  0.26446  0.28162  1.0000
  H   H767      1.0  0.71470  0.29254  0.37954  1.0000
  H   H768      1.0  0.66830  0.26990  0.32514  1.0000
  H   H769      1.0  0.67710  0.29610  0.34510  1.0000
  C   C442      1.0  0.64252  0.23542  0.43244  1.0000
  C   C443      1.0  0.53962  0.00412  0.36602  1.0000
  H   H770      1.0  0.52054  0.07306  0.47505  1.0000
  H   H771      1.0  0.68589  0.26050  0.36862  1.0000
  H   H772      1.0  0.67371  0.22262  0.31481  1.0000
  H   H773      1.0  0.50266  0.13511  0.35210  1.0000
  H   H774      1.0  0.59182  0.20057  0.42200  1.0000
  C   C444      1.0  0.51861  0.13450  0.42889  1.0000
  H   H775      1.0  0.67646  0.22834  0.28358  1.0000
  N   N25       1.0  0.53801  0.19114  0.33225  1.0000
  H   H776      1.0  0.51744  0.20249  0.30538  1.0000
  H   H777      1.0  0.53207  0.15843  0.35246  1.0000
  C   C445      1.0  0.54618  0.20255  0.34847  1.0000
  C   C446      1.0  0.56036  0.17781  0.31781  1.0000
  H   H778      1.0  0.54572  0.20954  0.47605  1.0000
  C   C447      1.0  0.53954  0.22768  0.30159  1.0000
  C   C448      1.0  0.55745  0.18635  0.36774  1.0000
  C   C449      1.0  0.60490  0.15685  0.43961  1.0000
  H   H779      1.0  0.58796  0.15134  0.43944  1.0000
  H   H780      1.0  0.73213  0.24968  0.32454  1.0000
  H   H781      1.0  0.67622  0.03146  0.30583  1.0000
  C   C450      1.0  0.56472  0.19975  0.38314  1.0000
  C   C451      1.0  0.53696  0.07140  0.46040  1.0000
  C   C452      1.0  0.52464  0.20973  0.31725  1.0000
  H   H782      1.0  0.56894  0.16360  0.32927  1.0000
  H   H783      1.0  0.70061  0.27040  0.39953  1.0000
  H   H784      1.0  0.78783  0.27616  0.31183  1.0000
  H   H785      1.0  0.56030  0.21277  0.33839  1.0000
  N   N26       1.0  0.57737  0.22003  0.45126  1.0000
  H   H786      1.0  0.57454  0.18855  0.30995  1.0000
  H   H787      1.0  0.63777  0.25210  0.43925  1.0000
  H   H788      1.0  0.62887  0.00886  0.42033  1.0000
  H   H789      1.0  0.53063  0.21478  0.35745  1.0000
  C   C453      1.0  0.51757  0.01961  0.36792  1.0000
  H   H790      1.0  0.57403  0.17484  0.35978  1.0000
  H   H791      1.0  0.54457  0.17574  0.37941  1.0000
  C   C454      1.0  0.62828  0.02428  0.47911  1.0000
  H   H792      1.0  0.71042  0.29272  0.28124  1.0000
  C   C455      1.0  0.60029  0.22722  0.45229  1.0000
  H   H793      1.0  0.52572  0.07066  0.40879  1.0000
  S   S106      1.0  0.52189  0.13563  0.39897  1.0000
  H   H794      1.0  0.59248  0.16882  0.27514  1.0000
  H   H795      1.0  0.61278  0.24216  0.41579  1.0000
  H   H796      1.0  0.71002  0.24017  0.29323  1.0000
  H   H797      1.0  0.51364  0.99945  0.45270  1.0000
  H   H798      1.0  0.63486  0.00591  0.36805  1.0000
  H   H799      1.0  0.54551  0.03485  0.46078  1.0000
  H   H800      1.0  0.59102  0.14231  0.29482  1.0000
  H   H801      1.0  0.57261  0.18758  0.39667  1.0000
  H   H802      1.0  0.50813  0.16668  0.31872  1.0000
  C   C456      1.0  0.53966  0.04995  0.44860  1.0000
  H   H803      1.0  0.53880  0.25192  0.40019  1.0000
  H   H804      1.0  0.54351  0.25288  0.47767  1.0000
  H   H805      1.0  0.64718  0.04421  0.34179  1.0000
  H   H806      1.0  0.71082  0.31192  0.29996  1.0000
  C   C457      1.0  0.56444  0.23832  0.43564  1.0000
  C   C458      1.0  0.53793  0.23656  0.43650  1.0000
  C   C459      1.0  0.58104  0.15570  0.28362  1.0000
  C   C460      1.0  0.54750  0.30079  0.46165  1.0000
  H   H807      1.0  0.57476  0.23815  0.41705  1.0000
  C   C461      1.0  0.67494  0.31023  0.29778  1.0000
  C   C462      1.0  0.50543  0.30949  0.45848  1.0000
  H   H808      1.0  0.67248  0.06171  0.30611  1.0000
  H   H809      1.0  0.54627  0.15249  0.30611  1.0000
  H   H810      1.0  0.50730  0.08424  0.43310  1.0000
  H   H811      1.0  0.55627  0.21939  0.28998  1.0000
  H   H812      1.0  0.56589  0.19197  0.44207  1.0000
  C   C463      1.0  0.51795  0.04308  0.36507  1.0000
  C   C464      1.0  0.70131  0.29832  0.29868  1.0000
  C   C465      1.0  0.53624  0.13468  0.46126  1.0000
  H   H813      1.0  0.56413  0.25565  0.43953  1.0000
  H   H814      1.0  0.62580  0.21242  0.42169  1.0000
  C   C466      1.0  0.63799  0.01466  0.38153  1.0000
  H   H815      1.0  0.77957  0.26317  0.29105  1.0000
  H   H816      1.0  0.54056  0.03038  0.41200  1.0000
  C   C467      1.0  0.50109  0.17092  0.33679  1.0000
  C   C468      1.0  0.52776  0.25441  0.41815  1.0000
  S   S107      1.0  0.57910  0.29563  0.44912  1.0000
  H   H817      1.0  0.55099  0.13730  0.46774  1.0000
  H   H818      1.0  0.65095  0.22213  0.44486  1.0000
  C   C469      1.0  0.73010  0.26655  0.31333  1.0000
  H   H819      1.0  0.54711  0.17898  0.28610  1.0000
  H   H820      1.0  0.59122  0.03051  0.40694  1.0000
  H   H821      1.0  0.70616  0.30285  0.33993  1.0000
  H   H822      1.0  0.54472  0.23789  0.31243  1.0000
  C   C470      1.0  0.67646  0.01811  0.35325  1.0000
  H   H823      1.0  0.61673  0.18177  0.45278  1.0000
  H   H824      1.0  0.54460  0.00268  0.45026  1.0000
  H   H825      1.0  0.52579  0.23959  0.45386  1.0000
  H   H826      1.0  0.65605  0.23701  0.41536  1.0000
  C   C471      1.0  0.62382  0.00416  0.40561  1.0000
  C   C472      1.0  0.66730  0.03089  0.39278  1.0000
  Fe  Fe54      1.0  0.59270  0.30059  0.40964  1.0000
  H   H827      1.0  0.69960  0.04307  0.31226  1.0000
  C   C473      1.0  0.50091  0.19447  0.41878  1.0000
  Fe  Fe55      1.0  0.58303  0.31275  0.36125  1.0000
  H   H828      1.0  0.65667  0.04791  0.38758  1.0000
  H   H829      1.0  0.50831  0.21911  0.32863  1.0000
  C   C474      1.0  0.56178  0.21678  0.47584  1.0000
  C   C475      1.0  0.52467  0.24447  0.28596  1.0000
  C   C476      1.0  0.59645  0.01165  0.40856  1.0000
  C   C477      1.0  0.77476  0.26632  0.30962  1.0000
  H   H830      1.0  0.67048  0.05561  0.34842  1.0000
  H   H831      1.0  0.70412  0.03660  0.37321  1.0000
  H   H832      1.0  0.61621  0.14230  0.44837  1.0000
  H   H833      1.0  0.74820  0.29649  0.30447  1.0000
  C   C478      1.0  0.61620  0.02730  0.46106  1.0000
  H   H834      1.0  0.62879  0.03275  0.37827  1.0000
  C   C479      1.0  0.66695  0.04183  0.34066  1.0000
  H   H835      1.0  0.59594  0.24449  0.45786  1.0000
  H   H836      1.0  0.50682  0.18992  0.46336  1.0000
  C   C480      1.0  0.67533  0.98940  0.38891  1.0000
  H   H837      1.0  0.71173  0.05637  0.40211  1.0000
  C   C481      1.0  0.69336  0.03393  0.39153  1.0000
  H   H838      1.0  0.65895  0.02673  0.41173  1.0000
  C   C482      1.0  0.55919  0.07100  0.46956  1.0000
  N   N27       1.0  0.66488  0.01331  0.37907  1.0000
  H   H839      1.0  0.68293  0.05246  0.42174  1.0000
  C   C483      1.0  0.67969  0.04458  0.31462  1.0000
  H   H840      1.0  0.71441  0.99261  0.37828  1.0000
  H   H841      1.0  0.53666  0.30811  0.42890  1.0000
  H   H842      1.0  0.69640  0.01669  0.35001  1.0000
  H   H843      1.0  0.70266  0.01877  0.40141  1.0000
  H   H844      1.0  0.57446  0.07492  0.45466  1.0000
  H   H845      1.0  0.58967  0.17223  0.47114  1.0000
  H   H846      1.0  0.50992  0.02671  0.41896  1.0000
  H   H847      1.0  0.66522  0.31692  0.31439  1.0000
  H   H848      1.0  0.50015  0.20726  0.40291  1.0000
  H   H849      1.0  0.50109  0.05519  0.36578  1.0000
  Fe  Fe56      1.0  0.63008  0.32032  0.36841  1.0000
  C   C484      1.0  0.64063  0.04117  0.48042  1.0000
  H   H850      1.0  0.56470  0.05423  0.47972  1.0000
  H   H851      1.0  0.55513  0.08453  0.48095  1.0000
  H   H852      1.0  0.52388  0.22233  0.68548  1.0000
  C   C485      1.0  0.54661  0.06165  0.53128  1.0000
  C   C486      1.0  0.55292  0.23852  0.48828  1.0000
  H   H853      1.0  0.54350  0.21946  0.52327  1.0000
  C   C487      1.0  0.54885  0.03034  0.58477  1.0000
  H   H854      1.0  0.53133  0.26140  0.57732  1.0000
  H   H855      1.0  0.64079  0.01590  0.58272  1.0000
  H   H856      1.0  0.50456  0.03546  0.61788  1.0000
  H   H857      1.0  0.57916  0.05830  0.54327  1.0000
  H   H858      1.0  0.51762  0.16797  0.49579  1.0000
  H   H859      1.0  0.55570  0.01796  0.54238  1.0000
  H   H860      1.0  0.52901  0.00464  0.52422  1.0000
  H   H861      1.0  0.54861  0.04908  0.58110  1.0000
  H   H862      1.0  0.54804  0.07950  0.52330  1.0000
  H   H863      1.0  0.51823  0.23047  0.50952  1.0000
  N   N28       1.0  0.57220  0.01788  0.57088  1.0000
  C   C488      1.0  0.51948  0.30393  0.62945  1.0000
  H   H864      1.0  0.51641  0.25933  0.66050  1.0000
  H   H865      1.0  0.55292  0.21783  0.66440  1.0000
  C   C489      1.0  0.52157  0.25225  0.64356  1.0000
  H   H866      1.0  0.63517  0.04438  0.56676  1.0000
  C   C490      1.0  0.59341  0.02544  0.57549  1.0000
  C   C491      1.0  0.63878  0.02582  0.56550  1.0000
  H   H867      1.0  0.54107  0.25367  0.63628  1.0000
  H   H868      1.0  0.53320  0.06228  0.54839  1.0000
  C   C492      1.0  0.51426  0.30209  0.49676  1.0000
  C   C493      1.0  0.51513  0.00267  0.54028  1.0000
  C   C494      1.0  0.50168  0.02998  0.48469  1.0000
  H   H869      1.0  0.57194  0.20389  0.48729  1.0000
  C   C495      1.0  0.61825  0.01955  0.55785  1.0000
  H   H870      1.0  0.52064  0.21245  0.58957  1.0000
  H   H871      1.0  0.61784  0.02919  0.54018  1.0000
  H   H872      1.0  0.55884  0.02659  0.61851  1.0000
  H   H873      1.0  0.55233  0.29462  0.49694  1.0000
  H   H874      1.0  0.54277  0.22293  0.56469  1.0000
  H   H875      1.0  0.62299  0.00108  0.55620  1.0000
  H   H876      1.0  0.52765  0.16928  0.53245  1.0000
  C   C496      1.0  0.57172  0.04852  0.53391  1.0000
  H   H877      1.0  0.64999  0.03900  0.49431  1.0000
  C   C497      1.0  0.52521  0.22790  0.57727  1.0000
  S   S108      1.0  0.62856  0.99971  0.50026  1.0000
  C   C498      1.0  0.52743  0.24627  0.59050  1.0000
  H   H878      1.0  0.65616  0.02174  0.55233  1.0000
  H   H879      1.0  0.53973  0.05378  0.51963  1.0000
  H   H880      1.0  0.52726  0.29525  0.64456  1.0000
  H   H881      1.0  0.53288  0.02809  0.57903  1.0000
  H   H882      1.0  0.53039  0.24952  0.52095  1.0000
  H   H883      1.0  0.53678  0.28052  0.60449  1.0000
  H   H884      1.0  0.58726  0.01233  0.53478  1.0000
  C   C499      1.0  0.57496  0.99235  0.57806  1.0000
  H   H885      1.0  0.59599  0.01774  0.59330  1.0000
  C   C500      1.0  0.54383  0.02382  0.61174  1.0000
  C   C501      1.0  0.53521  0.23408  0.51196  1.0000
  C   C502      1.0  0.52019  0.03823  0.62378  1.0000
  H   H886      1.0  0.56849  0.24412  0.49161  1.0000
  H   H887      1.0  0.54324  0.23990  0.59853  1.0000
  H   H888      1.0  0.51090  0.23453  0.56729  1.0000
  H   H889      1.0  0.58386  0.04862  0.51598  1.0000
  H   H890      1.0  0.58972  0.04415  0.57609  1.0000
  H   H891      1.0  0.50576  0.03861  0.54353  1.0000
  S   S109      1.0  0.51536  0.12053  0.50665  1.0000
  H   H892      1.0  0.55439  0.31233  0.60880  1.0000
  H   H893      1.0  0.50828  0.30085  0.51555  1.0000
  H   H894      1.0  0.54180  0.00567  0.61690  1.0000
  C   C503      1.0  0.57168  0.02318  0.54531  1.0000
  H   H895      1.0  0.53124  0.21761  0.63355  1.0000
  H   H896      1.0  0.53393  0.19643  0.67223  1.0000
  C   C504      1.0  0.52131  0.22619  0.64914  1.0000
  C   C505      1.0  0.51782  0.28644  0.61423  1.0000
  C   C506      1.0  0.50814  0.17156  0.53246  1.0000
  C   C507      1.0  0.53380  0.21510  0.66904  1.0000
  H   H897      1.0  0.52126  0.05668  0.61975  1.0000
  C   C508      1.0  0.53537  0.32109  0.61511  1.0000
  H   H898      1.0  0.51007  0.19667  0.50176  1.0000
  H   H899      1.0  0.50270  0.22236  0.65423  1.0000
  H   H900      1.0  0.50802  0.29598  0.60064  1.0000
  N   N29       1.0  0.50613  0.26628  0.62727  1.0000
  C   C509      1.0  0.50475  0.17974  0.50753  1.0000
  C   C510      1.0  0.50373  0.25305  0.60924  1.0000
  C   C511      1.0  0.50186  0.02190  0.55106  1.0000
  H   H901      1.0  0.51682  0.03324  0.64307  1.0000
  C   C512      1.0  0.53928  0.29872  0.48613  1.0000
  H   H902      1.0  0.50752  0.04042  0.49477  1.0000
  H   H903      1.0  0.50205  0.15493  0.53936  1.0000
  H   H904      1.0  0.51632  0.01499  0.48203  1.0000
  H   H905      1.0  0.50123  0.31395  0.63621  1.0000
  H   H906      1.0  0.53592  0.99060  0.58405  1.0000
  Fe  Fe57      1.0  0.58043  0.48191  0.02296  1.0000
  S   S110      1.0  0.59561  0.44431  0.02687  1.0000
  H   H907      1.0  0.52585  0.61792  0.02682  1.0000
  Fe  Fe58      1.0  0.53229  0.47345  0.05580  1.0000
  S   S111      1.0  0.54387  0.43568  0.06147  1.0000
  Fe  Fe59      1.0  0.57829  0.44402  0.06539  1.0000
  S   S112      1.0  0.59631  0.42752  0.09541  1.0000
  Fe  Fe60      1.0  0.55931  0.44064  0.02245  1.0000
  C   C513      1.0  0.91628  0.63194  0.38282  1.0000
  S   S113      1.0  0.56559  0.48165  0.06164  1.0000
  S   S114      1.0  0.54514  0.47817  0.01655  1.0000
  Fe  Fe61      1.0  0.91286  0.47878  0.44258  1.0000
  S   S115      1.0  0.91944  0.44123  0.44289  1.0000
  C   C514      1.0  0.51411  0.43596  0.16997  1.0000
  Fe  Fe62      1.0  0.91727  0.45000  0.40522  1.0000
  S   S116      1.0  0.89211  0.42956  0.39789  1.0000
  S   S117      1.0  0.90885  0.48783  0.40562  1.0000
  Fe  Fe63      1.0  0.71439  0.46306  0.35652  1.0000
  S   S118      1.0  0.70060  0.44323  0.39132  1.0000
  S   S119      1.0  0.68619  0.48398  0.33733  1.0000
  Fe  Fe64      1.0  0.76669  0.45325  0.36330  1.0000
  S   S120      1.0  0.75650  0.43210  0.39819  1.0000
  S   S121      1.0  0.80332  0.46460  0.34927  1.0000
  Fe  Fe65      1.0  0.73421  0.41734  0.38111  1.0000
  S   S122      1.0  0.73131  0.37998  0.39019  1.0000
  Fe  Fe66      1.0  0.72388  0.45989  0.40501  1.0000
  S   S123      1.0  0.71032  0.47418  0.43939  1.0000
  S   S124      1.0  0.74713  0.43616  0.34515  1.0000
  S   S125      1.0  0.73506  0.48182  0.37110  1.0000
  H   H908      1.0  0.54759  0.62420  0.05442  1.0000
  S   S126      1.0  0.73273  0.57071  0.44377  1.0000
  C   C515      1.0  0.83046  0.60618  0.46377  1.0000
  H   H909      1.0  0.52710  0.55688  0.03519  1.0000
  H   H910      1.0  0.53037  0.54390  0.13084  1.0000
  Fe  Fe67      1.0  0.57439  0.43627  0.25475  1.0000
  S   S127      1.0  0.61028  0.43521  0.22834  1.0000
  S   S128      1.0  0.54943  0.41066  0.26387  1.0000
  Fe  Fe68      1.0  0.57075  0.48566  0.26097  1.0000
  S   S129      1.0  0.60658  0.48896  0.23554  1.0000
  S   S130      1.0  0.54409  0.51295  0.28040  1.0000
  Fe  Fe69      1.0  0.59452  0.47018  0.21273  1.0000
  S   S131      1.0  0.59412  0.48514  0.17490  1.0000
  Fe  Fe70      1.0  0.61965  0.45390  0.25316  1.0000
  S   S132      1.0  0.65627  0.44139  0.26226  1.0000
  S   S133      1.0  0.55784  0.46966  0.23707  1.0000
  S   S134      1.0  0.58470  0.45218  0.28066  1.0000
  C   C516      1.0  0.50837  0.54921  0.27207  1.0000
  C   C517      1.0  0.52842  0.53344  0.26215  1.0000
  C   C518      1.0  0.76907  0.61433  0.41937  1.0000
  H   H911      1.0  0.82023  0.51945  0.40574  1.0000
  C   C519      1.0  0.51517  0.42988  0.21149  1.0000
  C   C520      1.0  0.52394  0.55147  0.22335  1.0000
  C   C521      1.0  0.53595  0.53439  0.23778  1.0000
  H   H912      1.0  0.92020  0.55938  0.42617  1.0000
  H   H913      1.0  0.91702  0.65041  0.37872  1.0000
  H   H914      1.0  0.53031  0.55251  0.20449  1.0000
  H   H915      1.0  0.55150  0.52236  0.23001  1.0000
  C   C522      1.0  0.55351  0.34858  0.32068  1.0000
  C   C523      1.0  0.57262  0.36098  0.31375  1.0000
  C   C524      1.0  0.57175  0.38027  0.29629  1.0000
  C   C525      1.0  0.55183  0.38701  0.28590  1.0000
  C   C526      1.0  0.53303  0.37444  0.29284  1.0000
  C   C527      1.0  0.53384  0.35542  0.31012  1.0000
  H   H916      1.0  0.58800  0.35565  0.32172  1.0000
  H   H917      1.0  0.58652  0.38969  0.29059  1.0000
  H   H918      1.0  0.51765  0.37943  0.28489  1.0000
  H   H919      1.0  0.50878  0.57388  0.00056  1.0000
  C   C528      1.0  0.67756  0.47155  0.31708  1.0000
  C   C529      1.0  0.68833  0.44943  0.31208  1.0000
  C   C530      1.0  0.68148  0.44028  0.29538  1.0000
  C   C531      1.0  0.66347  0.45295  0.28399  1.0000
  C   C532      1.0  0.65218  0.47479  0.28953  1.0000
  C   C533      1.0  0.65948  0.48417  0.30576  1.0000
  H   H920      1.0  0.70222  0.43952  0.32074  1.0000
  H   H921      1.0  0.69029  0.42337  0.29116  1.0000
  H   H922      1.0  0.63838  0.48472  0.28075  1.0000
  H   H923      1.0  0.65119  0.50134  0.30944  1.0000
  C   C534      1.0  0.70946  0.37096  0.38001  1.0000
  C   C535      1.0  0.70536  0.37975  0.35777  1.0000
  C   C536      1.0  0.68940  0.37105  0.34917  1.0000
  C   C537      1.0  0.67668  0.35414  0.36303  1.0000
  C   C538      1.0  0.68015  0.34586  0.38559  1.0000
  C   C539      1.0  0.69690  0.35391  0.39385  1.0000
  H   H924      1.0  0.71501  0.39280  0.34691  1.0000
  H   H925      1.0  0.68691  0.37750  0.33165  1.0000
  S   S135      1.0  0.96793  0.51338  0.37115  1.0000
  H   H926      1.0  0.69995  0.34708  0.41110  1.0000
  C   C540      1.0  0.71680  0.50096  0.44031  1.0000
  C   C541      1.0  0.70546  0.51206  0.46005  1.0000
  C   C542      1.0  0.71031  0.53344  0.46126  1.0000
  C   C543      1.0  0.72651  0.54387  0.44270  1.0000
  C   C544      1.0  0.73766  0.53289  0.42285  1.0000
  C   C545      1.0  0.73299  0.51140  0.42174  1.0000
  N   N30       1.0  0.95840  0.62097  0.39309  1.0000
  H   H927      1.0  0.73951  0.53442  0.31962  1.0000
  H   H928      1.0  0.75009  0.54094  0.40839  1.0000
  H   H929      1.0  0.74211  0.50288  0.40660  1.0000
  C   C546      1.0  0.86622  0.44183  0.38649  1.0000
  C   C547      1.0  0.86661  0.46018  0.36836  1.0000
  C   C548      1.0  0.84700  0.46735  0.35739  1.0000
  C   C549      1.0  0.82644  0.45686  0.36503  1.0000
  C   C550      1.0  0.82550  0.43936  0.38398  1.0000
  C   C551      1.0  0.84558  0.43144  0.39421  1.0000
  H   H930      1.0  0.88255  0.46809  0.36201  1.0000
  H   H931      1.0  0.84793  0.48088  0.34268  1.0000
  H   H932      1.0  0.80969  0.43135  0.39011  1.0000
  H   H933      1.0  0.84524  0.41706  0.40803  1.0000
  H   H934      1.0  0.74710  0.52833  0.34770  1.0000
  C   C552      1.0  0.89541  0.56776  0.45863  1.0000
  C   C553      1.0  0.90727  0.55349  0.44166  1.0000
  C   C554      1.0  0.90330  0.53108  0.44530  1.0000
  C   C555      1.0  0.88733  0.52307  0.46575  1.0000
  C   C556      1.0  0.51308  0.55006  0.04890  1.0000
  H   H935      1.0  0.56053  0.41120  0.21592  1.0000
  H   H936      1.0  0.91309  0.51998  0.43243  1.0000
  C   C557      1.0  0.78887  0.47368  0.47548  1.0000
  H   H937      1.0  0.66528  0.47459  0.41959  1.0000
  C   C558      1.0  0.51432  0.47918  0.18907  1.0000
  C   C559      1.0  0.59580  0.44359  0.11749  1.0000
  C   C560      1.0  0.60907  0.43401  0.13458  1.0000
  C   C561      1.0  0.60867  0.44640  0.15248  1.0000
  C   C562      1.0  0.59562  0.46875  0.15289  1.0000
  C   C563      1.0  0.58316  0.47861  0.13529  1.0000
  C   C564      1.0  0.58253  0.46582  0.11825  1.0000
  H   H938      1.0  0.61954  0.41687  0.13408  1.0000
  H   H939      1.0  0.61869  0.43876  0.16576  1.0000
  H   H940      1.0  0.57299  0.49588  0.13547  1.0000
  H   H941      1.0  0.57151  0.47316  0.10593  1.0000
  H   H942      1.0  0.52958  0.51532  0.04530  1.0000
  H   H943      1.0  0.65035  0.47907  0.03365  1.0000
  C   C565      1.0  0.50417  0.56746  0.23322  1.0000
  C   C566      1.0  0.59681  0.53678  0.06829  1.0000
  H   H944      1.0  0.52393  0.43364  0.22449  1.0000
  H   H945      1.0  0.60749  0.54758  0.05398  1.0000
  C   C567      1.0  0.57109  0.54135  0.06434  1.0000
  H   H946      1.0  0.95704  0.65314  0.36987  1.0000
  H   H947      1.0  0.92936  0.60149  0.40391  1.0000
  C   C568      1.0  0.50770  0.44374  0.12855  1.0000
  H   H948      1.0  0.59563  0.54235  0.08528  1.0000
  N   N31       1.0  0.52948  0.43585  0.18678  1.0000
  H   H949      1.0  0.96364  0.61848  0.35634  1.0000
  C   C569      1.0  0.55263  0.41863  0.18083  1.0000
  H   H950      1.0  0.54883  0.58897  0.21988  1.0000
  C   C570      1.0  0.59071  0.39453  0.19212  1.0000
  C   C571      1.0  0.52314  0.61286  0.25821  1.0000
  H   H951      1.0  0.54701  0.45874  0.19731  1.0000
  H   H952      1.0  0.83486  0.47032  0.47891  1.0000
  H   H953      1.0  0.78441  0.50832  0.43578  1.0000
  H   H954      1.0  0.54845  0.40183  0.17988  1.0000
  H   H955      1.0  0.56354  0.42390  0.16305  1.0000
  C   C572      1.0  0.52330  0.50180  0.18514  1.0000
  H   H956      1.0  0.53258  0.62878  0.29090  1.0000
  H   H957      1.0  0.71221  0.51689  0.02802  1.0000
  H   H958      1.0  0.60331  0.39281  0.20371  1.0000
  H   H959      1.0  0.58340  0.37848  0.19549  1.0000
  C   C573      1.0  0.52231  0.64352  0.28122  1.0000
  H   H960      1.0  0.63280  0.48327  0.42623  1.0000
  C   C574      1.0  0.98415  0.57453  0.43940  1.0000
  H   H961      1.0  0.60799  0.50710  0.05085  1.0000
  H   H962      1.0  0.82416  0.61918  0.44998  1.0000
  H   H963      1.0  0.99737  0.45716  0.46138  1.0000
  N   N32       1.0  0.63379  0.50412  0.07201  1.0000
  H   H964      1.0  0.57152  0.53675  0.04705  1.0000
  H   H965      1.0  0.92274  0.62431  0.36625  1.0000
  H   H966      1.0  0.56840  0.61074  0.03047  1.0000
  H   H967      1.0  0.79383  0.52351  0.39396  1.0000
  H   H968      1.0  0.54912  0.62727  0.22747  1.0000
  H   H969      1.0  0.57828  0.43011  0.19542  1.0000
  C   C575      1.0  0.99570  0.51977  0.37295  1.0000
  H   H970      1.0  0.53227  0.51608  0.98193  1.0000
  C   C576      1.0  0.67795  0.50925  0.05049  1.0000
  C   C577      1.0  0.51545  0.54800  0.12151  1.0000
  H   H971      1.0  0.55321  0.65314  0.25246  1.0000
  H   H972      1.0  0.50500  0.61530  0.08233  1.0000
  H   H973      1.0  0.81903  0.43306  0.47738  1.0000
  C   C578      1.0  0.65032  0.51681  0.05233  1.0000
  C   C579      1.0  0.69245  0.52240  0.02889  1.0000
  H   H974      1.0  0.59595  0.50107  0.08149  1.0000
  H   H975      1.0  0.57859  0.59097  0.22207  1.0000
  H   H976      1.0  0.76859  0.41110  0.44220  1.0000
  H   H977      1.0  0.55263  0.39999  0.34297  1.0000
  C   C580      1.0  0.99847  0.63083  0.44591  1.0000
  C   C581      1.0  0.93176  0.61963  0.40052  1.0000
  Fe  Fe71      1.0  0.94951  0.48648  0.39706  1.0000
  H   H978      1.0  0.97970  0.61411  0.47845  1.0000
  H   H979      1.0  0.51252  0.60671  0.24841  1.0000
  H   H980      1.0  0.53029  0.57587  0.09878  1.0000
  H   H981      1.0  0.62285  0.41946  0.98428  1.0000
  H   H982      1.0  0.70574  0.52101  0.34948  1.0000
  C   C582      1.0  0.52418  0.44553  0.14396  1.0000
  H   H983      1.0  0.49972  0.61247  0.31285  1.0000
  H   H984      1.0  0.52537  0.46383  0.14207  1.0000
  N   N33       1.0  0.80364  0.46161  0.45479  1.0000
  C   C583      1.0  0.60839  0.51110  0.06806  1.0000
  H   H985      1.0  0.82473  0.48845  0.43944  1.0000
  H   H986      1.0  0.68408  0.49084  0.04878  1.0000
  H   H987      1.0  0.66271  0.49406  0.14163  1.0000
  H   H988      1.0  0.63565  0.52858  0.09353  1.0000
  N   N34       1.0  0.61322  0.42014  0.35259  1.0000
  C   C584      1.0  0.61644  0.44447  0.34344  1.0000
  C   C585      1.0  0.63062  0.40488  0.33576  1.0000
  C   C586      1.0  0.58718  0.41840  0.35475  1.0000
  C   C587      1.0  0.61895  0.41262  0.37637  1.0000
  C   C588      1.0  0.64324  0.41767  0.37864  1.0000
  C   C589      1.0  0.60071  0.46258  0.35922  1.0000
  C   C590      1.0  0.58120  0.39395  0.36202  1.0000
  C   C591      1.0  0.62446  0.40629  0.31182  1.0000
  C   C592      1.0  0.64307  0.38963  0.29673  1.0000
  C   C593      1.0  0.64870  0.40650  0.40226  1.0000
  C   C594      1.0  0.60840  0.48582  0.35065  1.0000
  C   C595      1.0  0.55518  0.39384  0.36103  1.0000
  H   H989      1.0  0.61186  0.44983  0.32605  1.0000
  H   H990      1.0  0.63590  0.44597  0.33996  1.0000
  H   H991      1.0  0.64931  0.40864  0.33183  1.0000
  H   H992      1.0  0.63216  0.38678  0.34386  1.0000
  H   H993      1.0  0.58154  0.42606  0.33813  1.0000
  H   H994      1.0  0.57474  0.42871  0.36822  1.0000
  H   H995      1.0  0.60407  0.42030  0.39031  1.0000
  H   H996      1.0  0.61974  0.39384  0.38126  1.0000
  H   H997      1.0  0.64249  0.43631  0.37735  1.0000
  H   H998      1.0  0.65868  0.41107  0.36468  1.0000
  H   H999      1.0  0.58130  0.46480  0.35883  1.0000
  H   H1000     1.0  0.60219  0.45769  0.37767  1.0000
  H   H1001     1.0  0.58289  0.38742  0.38026  1.0000
  H   H1002     1.0  0.59349  0.38175  0.35044  1.0000
  H   H1003     1.0  0.60643  0.40189  0.31397  1.0000
  H   H1004     1.0  0.62434  0.42370  0.30217  1.0000
  H   H1005     1.0  0.66164  0.39336  0.29365  1.0000
  H   H1006     1.0  0.64280  0.37177  0.30542  1.0000
  H   H1007     1.0  0.63858  0.39139  0.27947  1.0000
  H   H1008     1.0  0.63451  0.41379  0.41687  1.0000
  H   H1009     1.0  0.64958  0.38775  0.40450  1.0000
  H   H1010     1.0  0.66659  0.40952  0.40311  1.0000
  H   H1011     1.0  0.59618  0.49864  0.36159  1.0000
  H   H1012     1.0  0.62731  0.48482  0.35210  1.0000
  H   H1013     1.0  0.60726  0.49159  0.33212  1.0000
  H   H1014     1.0  0.54189  0.40482  0.37337  1.0000
  H   H1015     1.0  0.64680  0.51595  0.03509  1.0000
  N   N35       1.0  0.67625  0.54268  0.38881  1.0000
  C   C596      1.0  0.67558  0.51745  0.39473  1.0000
  C   C597      1.0  0.70113  0.54581  0.37391  1.0000
  C   C598      1.0  0.67285  0.55173  0.41165  1.0000
  C   C599      1.0  0.65649  0.55582  0.37675  1.0000
  C   C600      1.0  0.64860  0.54305  0.36054  1.0000
  H   H1016     1.0  0.69288  0.50412  0.47448  1.0000
  C   C601      1.0  0.67674  0.57659  0.40973  1.0000
  C   C602      1.0  0.63196  0.55937  0.34630  1.0000
  S   S136      1.0  0.65753  0.34348  0.35082  1.0000
  C   C603      1.0  0.51238  0.57306  0.11034  1.0000
  H   H1017     1.0  0.69165  0.50823  0.40164  1.0000
  H   H1018     1.0  0.67740  0.50963  0.37886  1.0000
  H   H1019     1.0  0.70295  0.56405  0.37077  1.0000
  H   H1020     1.0  0.68537  0.54066  0.42211  1.0000
  H   H1021     1.0  0.65419  0.55099  0.42271  1.0000
  H   H1022     1.0  0.63955  0.56162  0.38987  1.0000
  H   H1023     1.0  0.66199  0.57185  0.36626  1.0000
  H   H1024     1.0  0.63840  0.52963  0.37106  1.0000
  H   H1025     1.0  0.66419  0.53448  0.34804  1.0000
  C   C604      1.0  0.52479  0.57362  0.98537  1.0000
  C   C605      1.0  0.65276  0.51118  0.41339  1.0000
  H   H1026     1.0  0.66751  0.58826  0.39681  1.0000
  H   H1027     1.0  0.69649  0.57719  0.40432  1.0000
  H   H1028     1.0  0.69709  0.55050  0.33781  1.0000
  H   H1029     1.0  0.64172  0.57255  0.33447  1.0000
  H   H1030     1.0  0.62624  0.54963  0.33535  1.0000
  H   H1031     1.0  0.61543  0.56781  0.35810  1.0000
  H   H1032     1.0  0.51909  0.34592  0.31535  1.0000
  H   H1033     1.0  0.50594  0.61454  0.00151  1.0000
  C   C606      1.0  0.65330  0.44429  0.04996  1.0000
  C   C607      1.0  0.60510  0.53000  0.98485  1.0000
  C   C608      1.0  0.65093  0.49526  0.10981  1.0000
  H   H1034     1.0  0.79612  0.48916  0.47552  1.0000
  C   C609      1.0  0.53741  0.59378  0.98332  1.0000
  N   N36       1.0  0.81787  0.57321  0.44936  1.0000
  C   C610      1.0  0.84084  0.57512  0.43038  1.0000
  H   H1035     1.0  0.87879  0.63821  0.37986  1.0000
  C   C611      1.0  0.81838  0.54818  0.45846  1.0000
  C   C612      1.0  0.79531  0.58212  0.44009  1.0000
  C   C613      1.0  0.79180  0.60751  0.42916  1.0000
  C   C614      1.0  0.84523  0.56191  0.40932  1.0000
  H   H1036     1.0  0.76765  0.63229  0.41065  1.0000
  C   C615      1.0  0.54616  0.63689  0.99521  1.0000
  C   C616      1.0  0.64083  0.46932  0.04975  1.0000
  H   H1037     1.0  0.50626  0.63127  0.14100  1.0000
  C   C617      1.0  0.53566  0.63239  0.02193  1.0000
  H   H1038     1.0  0.85690  0.56877  0.43816  1.0000
  H   H1039     1.0  0.84181  0.59318  0.42301  1.0000
  H   H1040     1.0  0.56269  0.62368  0.99028  1.0000
  S   S137      1.0  0.59084  0.33348  0.38478  1.0000
  S   S138      1.0  0.55603  0.41778  0.99801  1.0000
  H   H1041     1.0  0.81768  0.53861  0.44459  1.0000
  H   H1042     1.0  0.79447  0.57158  0.42708  1.0000
  H   H1043     1.0  0.85138  0.33686  0.29776  1.0000
  H   H1044     1.0  0.56132  0.61525  0.25294  1.0000
  H   H1045     1.0  0.88787  0.61136  0.39704  1.0000
  H   H1046     1.0  0.84831  0.54319  0.41498  1.0000
  H   H1047     1.0  0.82969  0.56677  0.40083  1.0000
  H   H1048     1.0  0.50221  0.48078  0.17710  1.0000
  C   C618      1.0  0.51103  0.40484  0.21846  1.0000
  C   C619      1.0  0.64998  0.48668  0.41368  1.0000
  H   H1049     1.0  0.54249  0.43591  0.13672  1.0000
  H   H1050     1.0  0.62186  0.47027  0.04862  1.0000
  H   H1051     1.0  0.67289  0.44244  0.04948  1.0000
  H   H1052     1.0  0.83689  0.63202  0.48091  1.0000
  H   H1053     1.0  0.75251  0.61312  0.43377  1.0000
  H   H1054     1.0  0.85033  0.60060  0.45750  1.0000
  H   H1055     1.0  0.63581  0.53983  0.99150  1.0000
  S   S139      1.0  0.55308  0.32433  0.34222  1.0000
  H   H1056     1.0  0.80708  0.35906  0.33297  1.0000
  H   H1057     1.0  0.88208  0.63777  0.40914  1.0000
  C   C620      1.0  0.70822  0.53864  0.34908  1.0000
  H   H1058     1.0  0.55296  0.65317  0.99221  1.0000
  H   H1059     1.0  0.67570  0.57432  0.44689  1.0000
  C   C621      1.0  0.50396  0.65200  0.24606  1.0000
  N   N37       1.0  0.83493  0.38768  0.34298  1.0000
  C   C622      1.0  0.81569  0.40532  0.33362  1.0000
  C   C623      1.0  0.82526  0.38062  0.36887  1.0000
  C   C624      1.0  0.85642  0.39905  0.34035  1.0000
  C   C625      1.0  0.84350  0.36710  0.33000  1.0000
  C   C626      1.0  0.82457  0.35994  0.31998  1.0000
  C   C627      1.0  0.82454  0.41801  0.30866  1.0000
  C   C628      1.0  0.87653  0.38545  0.35285  1.0000
  C   C629      1.0  0.80180  0.37029  0.37619  1.0000
  C   C630      1.0  0.79278  0.36667  0.40289  1.0000
  H   H1060     1.0  0.50248  0.54843  0.29093  1.0000
  C   C631      1.0  0.80328  0.43122  0.29827  1.0000
  C   C632      1.0  0.89921  0.39642  0.34511  1.0000
  H   H1061     1.0  0.80784  0.41854  0.34555  1.0000
  H   H1062     1.0  0.79990  0.39788  0.33361  1.0000
  H   H1063     1.0  0.83900  0.36749  0.37623  1.0000
  H   H1064     1.0  0.82188  0.39549  0.37845  1.0000
  H   H1065     1.0  0.85023  0.41590  0.34690  1.0000
  H   H1066     1.0  0.86551  0.40292  0.32150  1.0000
  H   H1067     1.0  0.85900  0.36984  0.31468  1.0000
  H   H1068     1.0  0.85106  0.35203  0.34143  1.0000
  H   H1069     1.0  0.82061  0.37247  0.30475  1.0000
  H   H1070     1.0  0.65554  0.33849  0.27792  1.0000
  H   H1071     1.0  0.83546  0.43065  0.30943  1.0000
  H   H1072     1.0  0.83609  0.40593  0.29655  1.0000
  H   H1073     1.0  0.88187  0.36755  0.34904  1.0000
  H   H1074     1.0  0.87000  0.38540  0.37213  1.0000
  H   H1075     1.0  0.78679  0.38152  0.36907  1.0000
  H   H1076     1.0  0.80556  0.35328  0.37033  1.0000
  H   H1077     1.0  0.80697  0.35533  0.41116  1.0000
  H   H1078     1.0  0.78764  0.38327  0.40985  1.0000
  H   H1079     1.0  0.77642  0.35854  0.40780  1.0000
  C   C633      1.0  0.54898  0.61332  0.24239  1.0000
  H   H1080     1.0  0.53761  0.55733  0.98794  1.0000
  H   H1081     1.0  0.52321  0.64797  0.02788  1.0000
  H   H1082     1.0  0.79244  0.44470  0.30909  1.0000
  H   H1083     1.0  0.81032  0.43966  0.28030  1.0000
  H   H1084     1.0  0.79137  0.41960  0.29726  1.0000
  H   H1085     1.0  0.91273  0.38717  0.35532  1.0000
  H   H1086     1.0  0.90765  0.39569  0.32618  1.0000
  H   H1087     1.0  0.89455  0.41452  0.34834  1.0000
  C   C634      1.0  0.55947  0.59093  0.23208  1.0000
  C   C635      1.0  0.53597  0.45897  0.18471  1.0000
  S   S140      1.0  0.90280  0.59452  0.45584  1.0000
  H   H1088     1.0  0.55148  0.37614  0.36601  1.0000
  H   H1089     1.0  0.61475  0.51018  0.10765  1.0000
  H   H1090     1.0  0.54791  0.46314  0.16730  1.0000
  C   C636      1.0  0.55578  0.62674  0.03527  1.0000
  H   H1091     1.0  0.60114  0.39705  0.17362  1.0000
  C   C637      1.0  0.57005  0.41480  0.19741  1.0000
  H   H1092     1.0  0.74565  0.43148  0.45870  1.0000
  S   S141      1.0  0.88415  0.49457  0.47102  1.0000
  H   H1093     1.0  0.50297  0.39976  0.20581  1.0000
  H   H1094     1.0  0.87127  0.55669  0.37622  1.0000
  C   C638      1.0  0.84395  0.45659  0.46790  1.0000
  H   H1095     1.0  0.50758  0.51597  0.18881  1.0000
  H   H1096     1.0  0.64696  0.58675  0.43926  1.0000
  H   H1097     1.0  0.86583  0.58526  0.38341  1.0000
  C   C639      1.0  0.96966  0.58428  0.42087  1.0000
  H   H1098     1.0  0.55922  0.57604  0.24616  1.0000
  H   H1099     1.0  0.50611  0.42569  0.12930  1.0000
  H   H1100     1.0  0.83735  0.32318  0.32634  1.0000
  C   C640      1.0  0.99830  0.60440  0.36465  1.0000
  H   H1101     1.0  0.52010  0.53682  0.10759  1.0000
  C   C641      1.0  0.73486  0.53987  0.33728  1.0000
  H   H1102     1.0  0.98132  0.53437  0.40515  1.0000
  H   H1103     1.0  0.71533  0.53649  0.38337  1.0000
  C   C642      1.0  0.86804  0.56688  0.39076  1.0000
  H   H1104     1.0  0.95094  0.58106  0.42852  1.0000
  C   C643      1.0  0.88962  0.62965  0.39286  1.0000
  H   H1105     1.0  0.88423  0.56209  0.39842  1.0000
  C   C644      1.0  0.96969  0.61014  0.41340  1.0000
  H   H1106     1.0  0.68755  0.54106  0.02977  1.0000
  H   H1107     1.0  0.56307  0.55976  0.06447  1.0000
  H   H1108     1.0  0.63223  0.50935  0.14233  1.0000
  S   S142      1.0  0.95244  0.48101  0.43438  1.0000
  H   H1109     1.0  0.68395  0.32481  0.26088  1.0000
  C   C645      1.0  0.81364  0.47836  0.43428  1.0000
  H   H1110     1.0  0.73808  0.55760  0.33524  1.0000
  H   H1111     1.0  0.55926  0.53126  0.07834  1.0000
  H   H1112     1.0  0.95992  0.61833  0.42933  1.0000
  Fe  Fe72      1.0  0.95886  0.44398  0.43092  1.0000
  H   H1113     1.0  0.65444  0.51256  0.43117  1.0000
  H   H1114     1.0  0.97769  0.57458  0.40591  1.0000
  H   H1115     1.0  0.53530  0.50125  0.19701  1.0000
  H   H1116     1.0  0.63589  0.52281  0.41034  1.0000
  S   S143      1.0  0.95785  0.44909  0.39283  1.0000
  H   H1117     1.0  0.53361  0.50542  0.16670  1.0000
  H   H1118     1.0  0.78924  0.61861  0.44273  1.0000
  H   H1119     1.0  0.64456  0.43368  0.06589  1.0000
  C   C646      1.0  0.64089  0.47854  0.07227  1.0000
  H   H1120     1.0  0.83545  0.43491  0.44749  1.0000
  H   H1121     1.0  0.51163  0.41830  0.16993  1.0000
  H   H1122     1.0  0.65794  0.52223  0.12528  1.0000
  H   H1123     1.0  0.64524  0.47842  0.11655  1.0000
  H   H1124     1.0  0.96408  0.59194  0.37451  1.0000
  C   C647      1.0  0.65090  0.50598  0.13101  1.0000
  H   H1125     1.0  0.52575  0.59922  0.27306  1.0000
  H   H1126     1.0  0.82626  0.46895  0.42010  1.0000
  H   H1127     1.0  0.66982  0.49220  0.09916  1.0000
  H   H1128     1.0  0.68372  0.34358  0.28131  1.0000
  H   H1129     1.0  0.50985  0.48770  0.26432  1.0000
  C   C648      1.0  0.97003  0.60867  0.37194  1.0000
  H   H1130     1.0  0.75637  0.40364  0.47303  1.0000
  C   C649      1.0  0.51876  0.61649  0.98413  1.0000
  H   H1131     1.0  0.50721  0.42439  0.04033  1.0000
  H   H1132     1.0  0.62840  0.46984  0.08708  1.0000
  H   H1133     1.0  0.65173  0.43783  0.03433  1.0000
  H   H1134     1.0  0.51802  0.45723  0.98781  1.0000
  C   C650      1.0  0.81726  0.58538  0.46961  1.0000
  C   C651      1.0  0.83415  0.33662  0.31148  1.0000
  H   H1135     1.0  0.52842  0.39290  0.21921  1.0000
  S   S144      1.0  0.98728  0.41750  0.44547  1.0000
  C   C652      1.0  0.98262  0.63027  0.46825  1.0000
  H   H1136     1.0  0.92328  0.62626  0.41759  1.0000
  H   H1137     1.0  0.49987  0.57612  0.09862  1.0000
  C   C653      1.0  0.80759  0.51052  0.40138  1.0000
  H   H1138     1.0  0.78240  0.48810  0.41779  1.0000
  C   C654      1.0  0.76190  0.41781  0.45927  1.0000
  H   H1139     1.0  0.77263  0.45849  0.44245  1.0000
  H   H1140     1.0  0.80748  0.61104  0.41455  1.0000
  C   C655      1.0  0.82524  0.44540  0.46176  1.0000
  C   C656      1.0  0.78200  0.42680  0.46486  1.0000
  H   H1141     1.0  0.79794  0.41262  0.46431  1.0000
  H   H1142     1.0  0.68264  0.51292  0.06603  1.0000
  C   C657      1.0  0.51452  0.52649  0.05476  1.0000
  H   H1143     1.0  0.80003  0.44108  0.43045  1.0000
  H   H1144     1.0  0.56616  0.64090  0.03131  1.0000
  H   H1145     1.0  0.77874  0.58020  0.45437  1.0000
  H   H1146     1.0  0.98868  0.61309  0.40955  1.0000
  H   H1147     1.0  0.51569  0.45026  0.11009  1.0000
  H   H1148     1.0  0.68888  0.51897  0.01261  1.0000
  H   H1149     1.0  0.56612  0.64819  0.29003  1.0000
  C   C658      1.0  0.79490  0.49628  0.42324  1.0000
  C   C659      1.0  0.67467  0.33048  0.27821  1.0000
  H   H1150     1.0  0.98188  0.64601  0.38320  1.0000
  C   C660      1.0  0.63305  0.51059  0.09554  1.0000
  H   H1151     1.0  0.65918  0.47209  0.07579  1.0000
  H   H1152     1.0  0.64616  0.53533  0.05393  1.0000
  H   H1153     1.0  0.54642  0.59064  0.99812  1.0000
  H   H1154     1.0  0.87073  0.42526  0.47053  1.0000
  H   H1155     1.0  0.50428  0.46152  0.25828  1.0000
  H   H1156     1.0  0.50794  0.58112  0.14570  1.0000
  H   H1157     1.0  0.64954  0.48371  0.39601  1.0000
  C   C661      1.0  0.78935  0.44773  0.44700  1.0000
  S   S145      1.0  0.60789  0.50475  0.00498  1.0000
  H   H1158     1.0  0.83609  0.54046  0.46308  1.0000
  H   H1159     1.0  0.50231  0.63552  0.10144  1.0000
  H   H1160     1.0  0.81792  0.49950  0.38777  1.0000
  H   H1161     1.0  0.50911  0.65295  0.29510  1.0000
  H   H1162     1.0  0.79816  0.59135  0.47908  1.0000
  H   H1163     1.0  0.51666  0.60240  0.12277  1.0000
  H   H1164     1.0  0.70119  0.54194  0.47647  1.0000
  H   H1165     1.0  0.97071  0.51166  0.46075  1.0000
  H   H1166     1.0  0.78400  0.53587  0.47309  1.0000
  H   H1167     1.0  0.76982  0.60318  0.40632  1.0000
  H   H1168     1.0  0.75698  0.49188  0.46154  1.0000
  H   H1169     1.0  0.98369  0.55611  0.44423  1.0000
  H   H1170     1.0  0.82053  0.33226  0.30385  1.0000
  H   H1171     1.0  0.67119  0.60293  0.43174  1.0000
  Fe  Fe73      1.0  0.72043  0.58115  0.48006  1.0000
  H   H1172     1.0  0.97622  0.58316  0.45525  1.0000
  C   C662      1.0  0.96221  0.64539  0.38665  1.0000
  H   H1173     1.0  0.67016  0.33313  0.39658  1.0000
  H   H1174     1.0  0.50350  0.47686  0.20744  1.0000
  C   C663      1.0  0.87851  0.56014  0.47849  1.0000
  H   H1175     1.0  0.85573  0.46404  0.45158  1.0000
  C   C664      1.0  0.50403  0.59011  0.12865  1.0000
  N   N38       1.0  0.50907  0.63497  0.26689  1.0000
  C   C665      1.0  0.66698  0.58562  0.43338  1.0000
  C   C666      1.0  0.97118  0.65056  0.47752  1.0000
  C   C667      1.0  0.99699  0.53141  0.39069  1.0000
  C   C668      1.0  0.95967  0.52042  0.47593  1.0000
  H   H1176     1.0  0.94154  0.52871  0.47268  1.0000
  C   C669      1.0  0.79714  0.54239  0.47954  1.0000
  C   C670      1.0  0.76104  0.48120  0.47761  1.0000
  H   H1177     1.0  0.50068  0.40740  0.25590  1.0000
  H   H1178     1.0  0.96884  0.53390  0.47789  1.0000
  C   C671      1.0  0.86052  0.43902  0.48126  1.0000
  H   H1179     1.0  0.75196  0.46625  0.48084  1.0000
  Fe  Fe74      1.0  0.58346  0.59960  0.90355  1.0000
  S   S146      1.0  0.54441  0.59615  0.91591  1.0000
  S   S147      1.0  0.60455  0.59505  0.93118  1.0000
  Fe  Fe75      1.0  0.58241  0.60723  0.85115  1.0000
  S   S148      1.0  0.54316  0.60460  0.86001  1.0000
  H   H1180     1.0  0.68882  0.60857  0.67515  1.0000
  Fe  Fe76      1.0  0.53844  0.62598  0.88831  1.0000
  H   H1181     1.0  0.56891  0.51542  0.57989  1.0000
  Fe  Fe77      1.0  0.55346  0.57539  0.88654  1.0000
  S   S149      1.0  0.54485  0.54073  0.89133  1.0000
  H   H1182     1.0  0.75644  0.51077  0.49518  1.0000
  S   S150      1.0  0.59305  0.57640  0.87623  1.0000
  Fe  Fe78      1.0  0.87831  0.61156  0.53848  1.0000
  H   H1183     1.0  0.52648  0.59828  0.58601  1.0000
  S   S151      1.0  0.83879  0.62272  0.55620  1.0000
  Fe  Fe79      1.0  0.92353  0.57447  0.53560  1.0000
  H   H1184     1.0  0.61144  0.65379  0.51248  1.0000
  S   S152      1.0  0.93889  0.53951  0.55182  1.0000
  H   H1185     1.0  0.94675  0.51367  0.51290  1.0000
  H   H1186     1.0  0.72290  0.64000  0.59928  1.0000
  C   C672      1.0  0.52622  0.51213  0.96727  1.0000
  H   H1187     1.0  0.55667  0.47190  0.96055  1.0000
  S   S153      1.0  0.91217  0.60694  0.55192  1.0000
  S   S154      1.0  0.88871  0.57796  0.52488  1.0000
  Fe  Fe80      1.0  0.55499  0.59663  0.70552  1.0000
  S   S155      1.0  0.53151  0.61588  0.68125  1.0000
  S   S156      1.0  0.53993  0.60334  0.74309  1.0000
  Fe  Fe81      1.0  0.59175  0.57353  0.66637  1.0000
  S   S157      1.0  0.57126  0.59079  0.63912  1.0000
  S   S158      1.0  0.62871  0.55218  0.65591  1.0000
  Fe  Fe82      1.0  0.56628  0.62208  0.65587  1.0000
  Fe  Fe83      1.0  0.53844  0.58267  0.66699  1.0000
  H   H1188     1.0  0.57417  0.55954  0.94396  1.0000
  S   S159      1.0  0.58933  0.60540  0.68122  1.0000
  S   S160      1.0  0.55939  0.56283  0.69311  1.0000
  C   C673      1.0  0.54774  0.50766  0.94641  1.0000
  C   C674      1.0  0.87995  0.51491  0.54791  1.0000
  C   C675      1.0  0.56116  0.45585  0.88925  1.0000
  S   S161      1.0  0.72372  0.55328  0.50995  1.0000
  C   C676      1.0  0.62147  0.56407  0.96512  1.0000
  Fe  Fe84      1.0  0.68719  0.57109  0.52769  1.0000
  S   S162      1.0  0.65581  0.55333  0.54609  1.0000
  S   S163      1.0  0.70258  0.59256  0.54445  1.0000
  C   C677      1.0  0.63638  0.55166  0.62551  1.0000
  C   C678      1.0  0.66011  0.55313  0.61267  1.0000
  C   C679      1.0  0.66626  0.55366  0.58822  1.0000
  C   C680      1.0  0.64872  0.55228  0.57667  1.0000
  C   C681      1.0  0.62511  0.55028  0.58958  1.0000
  C   C682      1.0  0.61890  0.55012  0.61396  1.0000
  H   H1189     1.0  0.67356  0.55407  0.62171  1.0000
  H   H1190     1.0  0.68462  0.55474  0.57839  1.0000
  H   H1191     1.0  0.61158  0.54899  0.58071  1.0000
  H   H1192     1.0  0.60073  0.54833  0.62390  1.0000
  H   H1193     1.0  0.54375  0.50188  0.61875  1.0000
  H   H1194     1.0  0.57414  0.44813  0.93231  1.0000
  H   H1195     1.0  0.84376  0.57411  0.55776  1.0000
  C   C683      1.0  0.54350  0.59880  0.59086  1.0000
  C   C684      1.0  0.98518  0.51517  0.54363  1.0000
  C   C685      1.0  0.61757  0.63388  0.57026  1.0000
  H   H1196     1.0  0.54163  0.53021  0.66962  1.0000
  C   C686      1.0  0.82017  0.60606  0.55067  1.0000
  C   C687      1.0  0.82723  0.58233  0.55233  1.0000
  C   C688      1.0  0.95695  0.50365  0.49851  1.0000
  C   C689      1.0  0.79070  0.57940  0.54142  1.0000
  C   C690      1.0  0.78355  0.60315  0.53962  1.0000
  C   C691      1.0  0.79811  0.61644  0.54462  1.0000
  H   H1197     1.0  0.98866  0.60146  0.54273  1.0000
  H   H1198     1.0  0.76680  0.61123  0.53454  1.0000
  C   C692      1.0  0.53885  0.42562  0.97637  1.0000
  N   N39       1.0  0.52895  0.63815  0.97988  1.0000
  C   C693      1.0  0.50856  0.47643  0.62628  1.0000
  H   H1199     1.0  0.80705  0.62469  0.49200  1.0000
  C   C694      1.0  0.61769  0.49430  0.89501  1.0000
  H   H1200     1.0  0.49911  0.48750  0.74430  1.0000
  H   H1201     1.0  0.59171  0.59629  0.58060  1.0000
  C   C695      1.0  0.53054  0.45740  0.61839  1.0000
  C   C696      1.0  0.81251  0.56905  0.54781  1.0000
  C   C697      1.0  0.58568  0.60898  0.79274  1.0000
  C   C698      1.0  0.59718  0.60021  0.77154  1.0000
  C   C699      1.0  0.58354  0.59883  0.75574  1.0000
  C   C700      1.0  0.55832  0.60625  0.76113  1.0000
  C   C701      1.0  0.54698  0.61556  0.78197  1.0000
  C   C702      1.0  0.56059  0.61703  0.79762  1.0000
  H   H1202     1.0  0.61663  0.59412  0.76755  1.0000
  H   H1203     1.0  0.59245  0.59163  0.73968  1.0000
  H   H1204     1.0  0.52752  0.62156  0.78616  1.0000
  H   H1205     1.0  0.63418  0.63368  0.61034  1.0000
  C   C703      1.0  0.98145  0.63134  0.55946  1.0000
  H   H1206     1.0  0.61965  0.60361  0.59766  1.0000
  C   C704      1.0  0.51791  0.54140  0.88364  1.0000
  H   H1207     1.0  0.72919  0.49943  0.49972  1.0000
  C   C705      1.0  0.74913  0.49480  0.49811  1.0000
  H   H1208     1.0  0.52078  0.50497  0.89180  1.0000
  H   H1209     1.0  0.97746  0.50223  0.53972  1.0000
  C   C706      1.0  0.50429  0.56189  0.87524  1.0000
  H   H1210     1.0  0.51705  0.57575  0.81963  1.0000
  H   H1211     1.0  0.53834  0.60487  0.60825  1.0000
  C   C707      1.0  0.97012  0.53547  0.55031  1.0000
  H   H1212     1.0  0.50503  0.53929  0.82556  1.0000
  C   C708      1.0  0.62685  0.43416  0.97057  1.0000
  H   H1213     1.0  0.96833  0.56738  0.56201  1.0000
  H   H1214     1.0  0.63319  0.44640  0.97822  1.0000
  H   H1215     1.0  0.96501  0.47149  0.53508  1.0000
  H   H1216     1.0  0.55834  0.43895  0.89939  1.0000
  H   H1217     1.0  0.55435  0.58122  0.59217  1.0000
  N   N40       1.0  0.73480  0.59164  0.61066  1.0000
  C   C709      1.0  0.72741  0.56863  0.61455  1.0000
  C   C710      1.0  0.72286  0.60297  0.63238  1.0000
  C   C711      1.0  0.72689  0.60559  0.58942  1.0000
  C   C712      1.0  0.76201  0.58940  0.60631  1.0000
  C   C713      1.0  0.77418  0.57278  0.62469  1.0000
  C   C714      1.0  0.73967  0.55337  0.59494  1.0000
  H   H1218     1.0  0.52203  0.43345  0.65034  1.0000
  C   C715      1.0  0.69474  0.61042  0.63725  1.0000
  H   H1219     1.0  0.50855  0.47108  0.58129  1.0000
  C   C716      1.0  0.80171  0.57170  0.61797  1.0000
  C   C717      1.0  0.73340  0.52947  0.60214  1.0000
  S   S164      1.0  0.73848  0.60444  0.49230  1.0000
  H   H1220     1.0  0.70757  0.57079  0.61612  1.0000
  H   H1221     1.0  0.73039  0.55880  0.63156  1.0000
  H   H1222     1.0  0.72680  0.59128  0.64819  1.0000
  H   H1223     1.0  0.73081  0.61819  0.63197  1.0000
  H   H1224     1.0  0.70737  0.60562  0.59075  1.0000
  H   H1225     1.0  0.73689  0.59757  0.57343  1.0000
  H   H1226     1.0  0.77125  0.58422  0.58875  1.0000
  H   H1227     1.0  0.76691  0.60629  0.60561  1.0000
  H   H1228     1.0  0.77099  0.55517  0.62599  1.0000
  H   H1229     1.0  0.76707  0.57851  0.64223  1.0000
  H   H1230     1.0  0.73309  0.56091  0.57888  1.0000
  H   H1231     1.0  0.75976  0.55130  0.59062  1.0000
  C   C718      1.0  0.62207  0.54420  0.98145  1.0000
  C   C719      1.0  0.50387  0.54259  0.66955  1.0000
  H   H1232     1.0  0.75090  0.63107  0.57871  1.0000
  H   H1233     1.0  0.68572  0.59565  0.63910  1.0000
  H   H1234     1.0  0.52808  0.33031  0.59982  1.0000
  H   H1235     1.0  0.52020  0.55328  0.73846  1.0000
  H   H1236     1.0  0.60724  0.64648  0.58249  1.0000
  H   H1237     1.0  0.80987  0.56457  0.60120  1.0000
  H   H1238     1.0  0.80618  0.58897  0.61602  1.0000
  H   H1239     1.0  0.81000  0.56047  0.63179  1.0000
  H   H1240     1.0  0.71344  0.53033  0.60608  1.0000
  H   H1241     1.0  0.74203  0.51923  0.58749  1.0000
  H   H1242     1.0  0.74029  0.52071  0.61777  1.0000
  H   H1243     1.0  0.54037  0.50607  0.93172  1.0000
  H   H1244     1.0  0.84981  0.43144  0.49816  1.0000
  H   H1245     1.0  0.51494  0.53914  0.71684  1.0000
  N   N41       1.0  0.54303  0.52968  0.80808  1.0000
  C   C720      1.0  0.55684  0.54229  0.81803  1.0000
  C   C721      1.0  0.51763  0.54318  0.80826  1.0000
  C   C722      1.0  0.54062  0.50735  0.82395  1.0000
  C   C723      1.0  0.55630  0.52413  0.78378  1.0000
  C   C724      1.0  0.56552  0.54393  0.76567  1.0000
  C   C725      1.0  0.58269  0.52978  0.82021  1.0000
  C   C726      1.0  0.52407  0.49302  0.81868  1.0000
  H   H1246     1.0  0.75235  0.48459  0.51485  1.0000
  H   H1247     1.0  0.53187  0.63987  0.94266  1.0000
  C   C727      1.0  0.58173  0.53522  0.74320  1.0000
  C   C728      1.0  0.59686  0.54608  0.82498  1.0000
  C   C729      1.0  0.52336  0.47078  0.83557  1.0000
  H   H1248     1.0  0.54635  0.54612  0.83588  1.0000
  H   H1249     1.0  0.55861  0.55932  0.80767  1.0000
  C   C730      1.0  0.68466  0.62107  0.65995  1.0000
  H   H1250     1.0  0.79079  0.46274  0.49234  1.0000
  H   H1251     1.0  0.53347  0.51050  0.84249  1.0000
  H   H1252     1.0  0.55874  0.49613  0.82327  1.0000
  H   H1253     1.0  0.57216  0.51002  0.78463  1.0000
  H   H1254     1.0  0.54448  0.51739  0.77583  1.0000
  H   H1255     1.0  0.57652  0.55282  0.77229  1.0000
  H   H1256     1.0  0.54989  0.55620  0.76082  1.0000
  H   H1257     1.0  0.58147  0.51566  0.83509  1.0000
  H   H1258     1.0  0.59338  0.52269  0.80397  1.0000
  H   H1259     1.0  0.53087  0.48847  0.80064  1.0000
  H   H1260     1.0  0.51510  0.52018  0.58016  1.0000
  H   H1261     1.0  0.92890  0.49153  0.48843  1.0000
  H   H1262     1.0  0.52766  0.57557  0.78860  1.0000
  H   H1263     1.0  0.62903  0.65397  0.71021  1.0000
  Fe  Fe85      1.0  0.92875  0.62319  0.51560  1.0000
  H   H1264     1.0  0.86836  0.57159  0.49097  1.0000
  H   H1265     1.0  0.57154  0.52679  0.73502  1.0000
  H   H1266     1.0  0.58803  0.54983  0.73054  1.0000
  H   H1267     1.0  0.59804  0.52296  0.74689  1.0000
  H   H1268     1.0  0.60017  0.55962  0.80977  1.0000
  H   H1269     1.0  0.58648  0.55420  0.84073  1.0000
  H   H1270     1.0  0.61473  0.53663  0.82795  1.0000
  H   H1271     1.0  0.54181  0.46008  0.83379  1.0000
  H   H1272     1.0  0.51684  0.49726  0.97324  1.0000
  C   C731      1.0  0.59285  0.64852  0.71128  1.0000
  C   C732      1.0  0.60439  0.56968  0.95137  1.0000
  H   H1273     1.0  0.94423  0.42690  0.54931  1.0000
  H   H1274     1.0  0.51304  0.52712  0.96188  1.0000
  H   H1275     1.0  0.65966  0.63262  0.58487  1.0000
  H   H1276     1.0  0.50778  0.37890  0.87301  1.0000
  H   H1277     1.0  0.81812  0.50926  0.49057  1.0000
  C   C733      1.0  0.52168  0.50569  0.59273  1.0000
  H   H1278     1.0  0.55622  0.52313  0.94154  1.0000
  S   S165      1.0  0.89374  0.63140  0.50411  1.0000
  Fe  Fe86      1.0  0.70053  0.61800  0.51211  1.0000
  C   C734      1.0  0.58748  0.55535  0.95446  1.0000
  H   H1279     1.0  0.51124  0.46106  0.83150  1.0000
  H   H1280     1.0  0.63156  0.64253  0.55723  1.0000
  H   H1281     1.0  0.55158  0.59389  0.96674  1.0000
  S   S166      1.0  0.60282  0.60971  0.81288  1.0000
  H   H1282     1.0  0.62667  0.52836  0.88860  1.0000
  H   H1283     1.0  0.54735  0.54212  0.57884  1.0000
  C   C735      1.0  0.54323  0.64110  0.95461  1.0000
  S   S167      1.0  0.94241  0.59031  0.50046  1.0000
  H   H1284     1.0  0.52233  0.52829  0.61764  1.0000
  C   C736      1.0  0.72004  0.64380  0.56384  1.0000
  H   H1285     1.0  0.62438  0.45909  0.92887  1.0000
  H   H1286     1.0  0.60612  0.52481  0.87206  1.0000
  H   H1287     1.0  0.56431  0.53432  0.60124  1.0000
  H   H1288     1.0  0.96867  0.64155  0.54889  1.0000
  C   C737      1.0  0.64653  0.62270  0.59743  1.0000
  H   H1289     1.0  0.59225  0.59164  0.53450  1.0000
  H   H1290     1.0  0.58091  0.50984  0.90864  1.0000
  C   C738      1.0  0.63190  0.61386  0.58439  1.0000
  C   C739      1.0  0.55775  0.61510  0.57246  1.0000
  H   H1291     1.0  0.62482  0.59629  0.54864  1.0000
  N   N42       1.0  0.50087  0.49409  0.60702  1.0000
  C   C740      1.0  0.92521  0.41536  0.50112  1.0000
  H   H1292     1.0  0.53695  0.48960  0.68107  1.0000
  C   C741      1.0  0.58306  0.61453  0.57700  1.0000
  H   H1293     1.0  0.55919  0.61053  0.55506  1.0000
  H   H1294     1.0  0.60053  0.51058  0.92626  1.0000
  H   H1295     1.0  0.54351  0.47493  0.91764  1.0000
  H   H1296     1.0  0.69998  0.64508  0.56877  1.0000
  Fe  Fe87      1.0  0.90626  0.59755  0.49145  1.0000
  C   C742      1.0  0.60212  0.60546  0.52441  1.0000
  H   H1297     1.0  0.89002  0.52443  0.55507  1.0000
  C   C743      1.0  0.51288  0.43571  0.94066  1.0000
  C   C744      1.0  0.62238  0.51642  0.87893  1.0000
  H   H1298     1.0  0.50693  0.44667  0.75895  1.0000
  H   H1299     1.0  0.83346  0.60540  0.49949  1.0000
  S   S168      1.0  0.68552  0.65312  0.52263  1.0000
  C   C745      1.0  0.93882  0.43429  0.50080  1.0000
  H   H1300     1.0  0.57890  0.62154  0.59391  1.0000
  S   S169      1.0  0.68245  0.59748  0.49670  1.0000
  C   C746      1.0  0.52128  0.44567  0.97514  1.0000
  H   H1301     1.0  0.68927  0.62335  0.62292  1.0000
  C   C747      1.0  0.82663  0.61774  0.48541  1.0000
  H   H1302     1.0  0.77569  0.43103  0.48304  1.0000
  H   H1303     1.0  0.53553  0.49389  0.58157  1.0000
  H   H1304     1.0  0.87372  0.44758  0.48516  1.0000
  C   C748      1.0  0.53502  0.51557  0.60689  1.0000
  C   C749      1.0  0.59583  0.49920  0.91613  1.0000
  H   H1305     1.0  0.57351  0.49013  0.96645  1.0000
  H   H1306     1.0  0.50774  0.61733  0.97134  1.0000
  H   H1307     1.0  0.95536  0.42586  0.50706  1.0000
  C   C750      1.0  0.97537  0.42984  0.56037  1.0000
  H   H1308     1.0  0.58913  0.61993  0.51789  1.0000
  H   H1309     1.0  0.64502  0.60242  0.57245  1.0000
  C   C751      1.0  0.56663  0.48615  0.95226  1.0000
  H   H1310     1.0  0.63802  0.51267  0.86386  1.0000
  C   C752      1.0  0.55509  0.52757  0.59060  1.0000
  H   H1311     1.0  0.88637  0.49317  0.52153  1.0000
  H   H1312     1.0  0.97122  0.41798  0.57689  1.0000
  C   C753      1.0  0.89723  0.50196  0.52849  1.0000
  C   C754      1.0  0.61577  0.61254  0.54012  1.0000
  H   H1313     1.0  0.97061  0.62307  0.57587  1.0000
  C   C755      1.0  0.54310  0.41076  0.95985  1.0000
  H   H1314     1.0  0.63460  0.57497  0.96282  1.0000
  C   C756      1.0  0.61972  0.59598  0.50293  1.0000
  H   H1315     1.0  0.55307  0.42785  0.63356  1.0000
  C   C757      1.0  0.53042  0.41584  0.94210  1.0000
  H   H1316     1.0  0.54585  0.46275  0.88058  1.0000
  H   H1317     1.0  0.53437  0.40425  0.92927  1.0000
  C   C758      1.0  0.94412  0.48424  0.49723  1.0000
  C   C759      1.0  0.56174  0.47236  0.90544  1.0000
  H   H1318     1.0  0.56490  0.48867  0.89427  1.0000
  H   H1319     1.0  0.93691  0.40320  0.48908  1.0000
  S   S170      1.0  0.50675  0.57135  0.66009  1.0000
  C   C760      1.0  0.91777  0.48463  0.53776  1.0000
  H   H1320     1.0  0.97193  0.45033  0.51682  1.0000
  H   H1321     1.0  0.55168  0.62476  0.81331  1.0000
  H   H1322     1.0  0.66458  0.62624  0.66294  1.0000
  N   N43       1.0  0.58771  0.47863  0.93235  1.0000
  H   H1323     1.0  0.54662  0.63249  0.57338  1.0000
  H   H1324     1.0  0.51001  0.53798  0.79525  1.0000
  H   H1325     1.0  0.63300  0.58102  0.50836  1.0000
  H   H1326     1.0  0.55934  0.62721  0.95139  1.0000
  H   H1327     1.0  0.52597  0.44674  0.60757  1.0000
  N   N44       1.0  0.60057  0.62737  0.55836  1.0000
  H   H1328     1.0  0.63460  0.48649  0.90096  1.0000
  Fe  Fe88      1.0  0.73897  0.57751  0.52353  1.0000
  C   C761      1.0  0.53758  0.44155  0.63956  1.0000
  H   H1329     1.0  0.63103  0.62078  0.52878  1.0000
  H   H1330     1.0  0.81799  0.55067  0.54947  1.0000
  H   H1331     1.0  0.61416  0.48284  0.88437  1.0000
  H   H1332     1.0  0.99124  0.64295  0.56412  1.0000
  H   H1333     1.0  0.50033  0.51965  0.75644  1.0000
  H   H1334     1.0  0.54676  0.46461  0.60811  1.0000
  C   C762      1.0  0.58129  0.46239  0.91965  1.0000
  H   H1335     1.0  0.61571  0.47815  0.95031  1.0000
  C   C763      1.0  0.51039  0.52084  0.88529  1.0000
  H   H1336     1.0  0.54315  0.45122  0.65066  1.0000
  H   H1337     1.0  0.52752  0.41157  0.85445  1.0000
  H   H1338     1.0  0.50493  0.39760  0.89405  1.0000
  H   H1339     1.0  0.51613  0.47435  0.85398  1.0000
  C   C764      1.0  0.52394  0.52566  0.67265  1.0000
  H   H1340     1.0  0.79053  0.51872  0.51176  1.0000
  C   C765      1.0  0.61809  0.64018  0.71625  1.0000
  C   C766      1.0  0.58694  0.64926  0.54769  1.0000
  H   H1341     1.0  0.98432  0.44302  0.56348  1.0000
  H   H1342     1.0  0.50216  0.63872  0.72286  1.0000
  H   H1343     1.0  0.57840  0.45369  0.87552  1.0000
  S   S171      1.0  0.57730  0.63111  0.87743  1.0000
  C   C767      1.0  0.80624  0.52431  0.49834  1.0000
  H   H1344     1.0  0.87090  0.50297  0.56230  1.0000
  H   H1345     1.0  0.90484  0.51493  0.51438  1.0000
  S   S172      1.0  0.49922  0.44107  0.91650  1.0000
  H   H1346     1.0  0.93903  0.44920  0.56720  1.0000
  H   H1347     1.0  0.95748  0.47335  0.48485  1.0000
  C   C768      1.0  0.60889  0.46610  0.94270  1.0000
  H   H1348     1.0  0.91298  0.44398  0.53288  1.0000
  S   S173      1.0  0.77221  0.56187  0.53742  1.0000
  H   H1349     1.0  0.50505  0.50243  0.82062  1.0000
  H   H1350     1.0  0.53577  0.64744  0.61969  1.0000
  H   H1351     1.0  0.92752  0.49438  0.54509  1.0000
  C   C769      1.0  0.50736  0.41413  0.85882  1.0000
  H   H1352     1.0  0.54484  0.64861  0.71441  1.0000
  C   C770      1.0  0.52126  0.50268  0.67914  1.0000
  C   C771      1.0  0.95701  0.45858  0.53028  1.0000
  H   H1353     1.0  0.50005  0.43124  0.86450  1.0000
  H   H1354     1.0  0.90876  0.47365  0.55325  1.0000
  H   H1355     1.0  0.59791  0.45399  0.90785  1.0000
  H   H1356     1.0  0.53675  0.65301  0.74409  1.0000
  H   H1357     1.0  0.97545  0.49633  0.50131  1.0000
  H   H1358     1.0  0.92074  0.40585  0.51905  1.0000
  H   H1359     1.0  0.64158  0.42764  0.95590  1.0000
  C   C772      1.0  0.92254  0.45274  0.51600  1.0000
  C   C773      1.0  0.50812  0.45068  0.95737  1.0000
  H   H1360     1.0  0.79260  0.63481  0.54326  1.0000
  C   C774      1.0  0.58750  0.53580  0.97160  1.0000
  C   C775      1.0  0.60387  0.44562  0.96208  1.0000
  H   H1361     1.0  0.86574  0.52747  0.54067  1.0000
  N   N45       1.0  0.93537  0.47006  0.52031  1.0000
  H   H1362     1.0  0.90786  0.46143  0.50691  1.0000
  C   C776      1.0  0.95193  0.44086  0.55253  1.0000
  C   C777      1.0  0.98005  0.55193  0.55623  1.0000
  H   H1363     1.0  0.59796  0.43238  0.95553  1.0000
  C   C778      1.0  0.73115  0.63063  0.58399  1.0000
  H   H1364     1.0  0.50953  0.57789  0.87471  1.0000
  H   H1365     1.0  0.58334  0.63378  0.71603  1.0000
  H   H1366     1.0  0.60947  0.59035  0.49246  1.0000
  H   H1367     1.0  0.82563  0.57338  0.48309  1.0000
  H   H1368     1.0  0.62965  0.60932  0.49166  1.0000
  S   S174      1.0  0.95234  0.65006  0.50608  1.0000
  H   H1369     1.0  0.65679  0.60800  0.60705  1.0000
  C   C779      1.0  0.51442  0.56958  0.80426  1.0000
  H   H1370     1.0  0.55654  0.39524  0.96065  1.0000
  H   H1371     1.0  0.72762  0.63528  0.54785  1.0000
  H   H1372     1.0  0.50267  0.56165  0.92952  1.0000
  H   H1373     1.0  0.57409  0.52522  0.97450  1.0000
  C   C780      1.0  0.50594  0.54940  0.73137  1.0000
  H   H1374     1.0  0.58142  0.65136  0.91678  1.0000
  H   H1375     1.0  0.98817  0.41991  0.54680  1.0000
  H   H1376     1.0  0.69250  0.63648  0.65883  1.0000
  H   H1377     1.0  0.51279  0.48475  0.63931  1.0000
  H   H1378     1.0  0.57231  0.64611  0.54072  1.0000
  H   H1379     1.0  0.86189  0.53169  0.49778  1.0000
  H   H1380     1.0  0.81675  0.53165  0.50721  1.0000
  H   H1381     1.0  0.90823  0.42251  0.49515  1.0000
  H   H1382     1.0  0.59544  0.65415  0.69216  1.0000
  H   H1383     1.0  0.61667  0.63461  0.73530  1.0000
  H   H1384     1.0  0.58960  0.45130  0.97740  1.0000
  H   H1385     1.0  0.53540  0.33387  0.62619  1.0000
  H   H1386     1.0  0.62766  0.62542  0.70673  1.0000
  H   H1387     1.0  0.51877  0.57421  0.96913  1.0000
  H   H1388     1.0  0.50129  0.41341  0.84288  1.0000
  H   H1389     1.0  0.78659  0.55740  0.48807  1.0000
  C   C781      1.0  0.87453  0.53772  0.48214  1.0000
  H   H1390     1.0  0.94457  0.44210  0.48232  1.0000
  S   S175      1.0  0.60001  0.95050  0.42460  1.0000
  H   H1391     1.0  0.55175  0.89097  0.33916  1.0000
  H   H1392     1.0  0.53696  0.93556  0.39354  1.0000
  C   C782      1.0  0.97556  0.67145  0.46417  1.0000
  C   C783      1.0  0.58230  0.93245  0.42062  1.0000
  C   C784      1.0  0.51316  0.82306  0.38684  1.0000
  C   C785      1.0  0.53518  0.84890  0.47762  1.0000
  H   H1393     1.0  0.60022  0.82369  0.45990  1.0000
  H   H1394     1.0  0.52947  0.85426  0.42007  1.0000
  H   H1395     1.0  0.94492  0.69668  0.41072  1.0000
  C   C786      1.0  0.56852  0.93950  0.40376  1.0000
  H   H1396     1.0  0.57131  0.95456  0.39113  1.0000
  H   H1397     1.0  0.54964  0.86479  0.37624  1.0000
  C   C787      1.0  0.54459  0.91019  0.42244  1.0000
  S   S176      1.0  0.62108  0.73341  0.46974  1.0000
  H   H1398     1.0  0.55971  0.81452  0.44283  1.0000
  H   H1399     1.0  0.50735  0.87911  0.39546  1.0000
  C   C788      1.0  0.95428  0.68564  0.39687  1.0000
  H   H1400     1.0  0.61803  0.79796  0.44815  1.0000
  H   H1401     1.0  0.51838  0.82908  0.43399  1.0000
  H   H1402     1.0  0.50447  0.69793  0.22534  1.0000
  C   C789      1.0  0.52191  0.76756  0.44014  1.0000
  H   H1403     1.0  0.97414  0.68537  0.39325  1.0000
  H   H1404     1.0  0.70077  0.94495  0.39477  1.0000
  C   C790      1.0  0.56802  0.82195  0.42479  1.0000
  H   H1405     1.0  0.59053  0.90663  0.44884  1.0000
  H   H1406     1.0  0.94779  0.69312  0.38072  1.0000
  H   H1407     1.0  0.62182  0.82571  0.43197  1.0000
  H   H1408     1.0  0.55731  0.88668  0.45020  1.0000
  C   C791      1.0  0.57911  0.91268  0.43653  1.0000
  H   H1409     1.0  0.54097  0.96860  0.43504  1.0000
  C   C792      1.0  0.53173  0.70626  0.46169  1.0000
  C   C793      1.0  0.53987  0.98569  0.42431  1.0000
  H   H1410     1.0  0.92878  0.66288  0.40905  1.0000
  H   H1411     1.0  0.53178  0.82078  0.37537  1.0000
  H   H1412     1.0  0.65163  0.69159  0.45501  1.0000
  H   H1413     1.0  0.67076  0.82747  0.47807  1.0000
  C   C794      1.0  0.55159  0.82281  0.40839  1.0000
  C   C795      1.0  0.69287  0.74407  0.46992  1.0000
  H   H1414     1.0  0.67656  0.65942  0.47571  1.0000
  C   C796      1.0  0.94878  0.66155  0.40530  1.0000
  H   H1415     1.0  0.65601  0.80977  0.45086  1.0000
  H   H1416     1.0  0.53158  0.72434  0.46232  1.0000
  H   H1417     1.0  0.53517  0.83030  0.48060  1.0000
  H   H1418     1.0  0.57103  0.83934  0.42511  1.0000
  H   H1419     1.0  0.50554  0.78872  0.36564  1.0000
  H   H1420     1.0  0.52261  0.80766  0.34349  1.0000
  C   C797      1.0  0.65234  0.69211  0.47280  1.0000
  H   H1421     1.0  0.55948  0.67566  0.45590  1.0000
  C   C798      1.0  0.53500  0.86672  0.36696  1.0000
  H   H1422     1.0  0.58588  0.81099  0.41862  1.0000
  H   H1423     1.0  0.51958  0.89329  0.34207  1.0000
  H   H1424     1.0  0.54944  0.80498  0.40873  1.0000
  H   H1425     1.0  0.96688  0.68722  0.47124  1.0000
  S   S177      1.0  0.50781  0.79610  0.47398  1.0000
  S   S178      1.0  0.62891  0.94352  0.47594  1.0000
  C   C799      1.0  0.51765  0.75698  0.42302  1.0000
  C   C800      1.0  0.54907  0.92879  0.40516  1.0000
  H   H1426     1.0  0.50859  0.93196  0.47117  1.0000
  N   N46       1.0  0.50880  0.84268  0.40063  1.0000
  H   H1427     1.0  0.55403  0.85146  0.47552  1.0000
  H   H1428     1.0  0.71000  0.96139  0.41211  1.0000
  H   H1429     1.0  0.53238  0.74563  0.41318  1.0000
  Fe  Fe89      1.0  0.59481  0.95013  0.46329  1.0000
  H   H1430     1.0  0.56884  0.70205  0.44072  1.0000
  S   S179      1.0  0.51753  0.90009  0.42777  1.0000
  C   C801      1.0  0.52634  0.83797  0.41649  1.0000
  C   C802      1.0  0.53400  0.89015  0.35193  1.0000
  H   H1431     1.0  0.66595  0.97673  0.38531  1.0000
  C   C803      1.0  0.71160  0.95818  0.39399  1.0000
  H   H1432     1.0  0.53971  0.85362  0.35500  1.0000
  C   C804      1.0  0.56043  0.90131  0.43720  1.0000
  H   H1433     1.0  0.95456  0.65545  0.42198  1.0000
  H   H1434     1.0  0.56646  0.69506  0.47174  1.0000
  H   H1435     1.0  0.53994  0.76462  0.44328  1.0000
  C   C805      1.0  0.99066  0.67203  0.44142  1.0000
  H   H1436     1.0  0.53002  0.67670  0.26158  1.0000
  H   H1437     1.0  0.56108  0.82906  0.39041  1.0000
  H   H1438     1.0  0.52906  0.85632  0.46129  1.0000
  H   H1439     1.0  0.53030  0.90385  0.36313  1.0000
  C   C806      1.0  0.50289  0.78208  0.45301  1.0000
  H   H1440     1.0  0.73099  0.95156  0.38619  1.0000
  C   C807      1.0  0.51049  0.86511  0.38487  1.0000
  H   H1441     1.0  0.54238  0.67196  0.29930  1.0000
  C   C808      1.0  0.61828  0.81585  0.44981  1.0000
  C   C809      1.0  0.70274  0.98024  0.37909  1.0000
  H   H1442     1.0  0.68814  0.73130  0.46159  1.0000
  H   H1443     1.0  0.56696  0.67647  0.27409  1.0000
  H   H1444     1.0  0.51220  0.80679  0.39912  1.0000
  H   H1445     1.0  0.70561  0.97631  0.36099  1.0000
  H   H1446     1.0  0.68893  0.79099  0.47201  1.0000
  H   H1447     1.0  0.52492  0.70543  0.44626  1.0000
  H   H1448     1.0  0.53969  0.98603  0.36772  1.0000
  H   H1449     1.0  0.63757  0.83485  0.46277  1.0000
  C   C810      1.0  0.67074  0.76294  0.47567  1.0000
  C   C811      1.0  0.55821  0.69390  0.45735  1.0000
  H   H1450     1.0  0.66502  0.77037  0.45913  1.0000
  H   H1451     1.0  0.99346  0.68826  0.43096  1.0000
  C   C812      1.0  0.50443  0.80592  0.35506  1.0000
  H   H1452     1.0  0.51159  0.89270  0.47763  1.0000
  C   C813      1.0  0.63811  0.81658  0.46191  1.0000
  H   H1453     1.0  0.62793  0.98528  0.40715  1.0000
  H   H1454     1.0  0.70832  0.75121  0.45758  1.0000
  H   H1455     1.0  0.51531  0.67326  0.98631  1.0000
  C   C814      1.0  0.50852  0.65866  0.98301  1.0000
  C   C815      1.0  0.55475  0.66433  0.28389  1.0000
  C   C816      1.0  0.54016  0.65992  0.26788  1.0000
  H   H1456     1.0  0.67171  0.98778  0.40840  1.0000
  H   H1457     1.0  0.52757  0.98703  0.41265  1.0000
  H   H1458     1.0  0.55814  0.98748  0.41326  1.0000
  H   H1459     1.0  0.52088  0.65704  0.23447  1.0000
  H   H1460     1.0  0.53938  0.72355  0.77106  1.0000
  Fe  Fe90      1.0  0.60927  0.92080  0.50563  1.0000
  C   C817      1.0  0.51101  0.67171  0.72336  1.0000
  S   S180      1.0  0.62696  0.88564  0.51925  1.0000
  H   H1461     1.0  0.49968  0.74088  0.48637  1.0000
  Fe  Fe91      1.0  0.56198  0.95516  0.51209  1.0000
  H   H1462     1.0  0.59160  0.72438  0.65181  1.0000
  S   S181      1.0  0.59396  0.94883  0.52814  1.0000
  H   H1463     1.0  0.52587  0.69459  0.49874  1.0000
  H   H1464     1.0  0.57748  0.66034  0.56154  1.0000
  Fe  Fe92      1.0  0.54390  0.73822  0.53284  1.0000
  S   S182      1.0  0.55189  0.73998  0.49380  1.0000
  Fe  Fe93      1.0  0.56227  0.78256  0.52907  1.0000
  S   S183      1.0  0.56696  0.80517  0.55284  1.0000
  H   H1465     1.0  0.65585  0.75478  0.48735  1.0000
  C   C818      1.0  0.51608  0.69544  0.48483  1.0000
  H   H1466     1.0  0.55275  0.66552  0.90939  1.0000
  S   S184      1.0  0.58014  0.74553  0.53265  1.0000
  H   H1467     1.0  0.65212  0.75288  0.52497  1.0000
  H   H1468     1.0  0.54308  0.87831  0.52697  1.0000
  H   H1469     1.0  0.57217  0.71939  0.69377  1.0000
  H   H1470     1.0  0.59649  0.69392  0.50193  1.0000
  H   H1471     1.0  0.52216  0.92344  0.50752  1.0000
  H   H1472     1.0  0.62985  0.72570  0.51610  1.0000
  H   H1473     1.0  0.62226  0.76794  0.52157  1.0000
  Fe  Fe94      1.0  0.53625  0.77718  0.49346  1.0000
  H   H1474     1.0  0.70570  0.84277  0.51393  1.0000
  H   H1475     1.0  0.54182  0.94880  0.58525  1.0000
  C   C819      1.0  0.50269  0.92290  0.50945  1.0000
  H   H1476     1.0  0.69843  0.73514  0.48619  1.0000
  C   C820      1.0  0.63395  0.80305  0.48700  1.0000
  H   H1477     1.0  0.57413  0.94635  0.58115  1.0000
  C   C821      1.0  0.53870  0.69478  0.57830  1.0000
  C   C822      1.0  0.55708  0.70270  0.58377  1.0000
  C   C823      1.0  0.56795  0.69066  0.60186  1.0000
  H   H1478     1.0  0.61881  0.85451  0.56127  1.0000
  H   H1479     1.0  0.56294  0.71816  0.57414  1.0000
  H   H1480     1.0  0.58233  0.69686  0.60577  1.0000
  C   C824      1.0  0.60833  0.86477  0.52841  1.0000
  C   C825      1.0  0.59511  0.86013  0.51382  1.0000
  C   C826      1.0  0.58241  0.84169  0.52090  1.0000
  C   C827      1.0  0.58258  0.82824  0.54270  1.0000
  C   C828      1.0  0.59526  0.83337  0.55736  1.0000
  C   C829      1.0  0.60851  0.85116  0.55003  1.0000
  C   C830      1.0  0.65456  0.69367  0.51855  1.0000
  H   H1481     1.0  0.57249  0.83790  0.50960  1.0000
  H   H1482     1.0  0.59528  0.82318  0.57430  1.0000
  C   C831      1.0  0.51802  0.85973  0.49848  1.0000
  C   C832      1.0  0.55721  0.68880  0.69457  1.0000
  C   C833      1.0  0.57666  0.70424  0.68447  1.0000
  H   H1483     1.0  0.55528  0.98092  0.55738  1.0000
  S   S185      1.0  0.52630  0.70878  0.55438  1.0000
  S   S186      1.0  0.52470  0.95658  0.53644  1.0000
  N   N47       1.0  0.65520  0.79842  0.49834  1.0000
  C   C834      1.0  0.66638  0.67389  0.48449  1.0000
  H   H1484     1.0  0.50521  0.67772  0.53111  1.0000
  H   H1485     1.0  0.57877  0.69672  0.53129  1.0000
  H   H1486     1.0  0.55715  0.70998  0.73201  1.0000
  H   H1487     1.0  0.56019  0.72243  0.65570  1.0000
  H   H1488     1.0  0.64698  0.83423  0.50295  1.0000
  H   H1489     1.0  0.61168  0.77535  0.56308  1.0000
  H   H1490     1.0  0.52497  0.85160  0.51423  1.0000
  S   S187      1.0  0.50818  0.65648  0.89363  1.0000
  H   H1491     1.0  0.64149  0.76013  0.56619  1.0000
  C   C835      1.0  0.64679  0.78987  0.52407  1.0000
  C   C836      1.0  0.68228  0.82089  0.51039  1.0000
  C   C837      1.0  0.58592  0.68491  0.51792  1.0000
  H   H1492     1.0  0.52008  0.68201  0.76569  1.0000
  H   H1493     1.0  0.53977  0.69919  0.69121  1.0000
  C   C838      1.0  0.56576  0.66569  0.91999  1.0000
  C   C839      1.0  0.60221  0.66367  0.52728  1.0000
  C   C840      1.0  0.51649  0.88602  0.49472  1.0000
  C   C841      1.0  0.67661  0.78181  0.48659  1.0000
  H   H1494     1.0  0.50209  0.66463  0.96647  1.0000
  H   H1495     1.0  0.68802  0.77326  0.49918  1.0000
  C   C842      1.0  0.57811  0.71283  0.65847  1.0000
  C   C843      1.0  0.63997  0.71139  0.50719  1.0000
  H   H1496     1.0  0.55004  0.68174  0.76894  1.0000
  H   H1497     1.0  0.51575  0.96489  0.48511  1.0000
  H   H1498     1.0  0.57042  0.68034  0.51334  1.0000
  H   H1499     1.0  0.58404  0.69828  0.64817  1.0000
  H   H1500     1.0  0.49997  0.85531  0.50057  1.0000
  H   H1501     1.0  0.51900  0.70781  0.79315  1.0000
  H   H1502     1.0  0.62035  0.74535  0.56054  1.0000
  H   H1503     1.0  0.59500  0.69480  0.68599  1.0000
  C   C844      1.0  0.54349  0.69890  0.73452  1.0000
  C   C845      1.0  0.62708  0.76176  0.55663  1.0000
  C   C846      1.0  0.66762  0.67479  0.50735  1.0000
  C   C847      1.0  0.54177  0.66279  0.60965  1.0000
  S   S188      1.0  0.57201  0.78766  0.48976  1.0000
  H   H1504     1.0  0.63240  0.80314  0.53276  1.0000
  H   H1505     1.0  0.69761  0.80632  0.50718  1.0000
  C   C848      1.0  0.69260  0.84297  0.50331  1.0000
  C   C849      1.0  0.55612  0.95662  0.58829  1.0000
  H   H1506     1.0  0.62796  0.78709  0.48641  1.0000
  Fe  Fe95      1.0  0.58690  0.74990  0.49353  1.0000
  S   S189      1.0  0.57509  0.65600  0.63693  1.0000
  H   H1507     1.0  0.53517  0.88951  0.49194  1.0000
  C   C850      1.0  0.63711  0.76720  0.53020  1.0000
  H   H1508     1.0  0.61781  0.81295  0.49789  1.0000
  N   N48       1.0  0.55403  0.67939  0.72024  1.0000
  H   H1509     1.0  0.67383  0.81976  0.52950  1.0000
  C   C851      1.0  0.52899  0.88665  0.54083  1.0000
  C   C852      1.0  0.53487  0.69206  0.76142  1.0000
  Fe  Fe96      1.0  0.60971  0.97229  0.49664  1.0000
  C   C853      1.0  0.63897  0.71082  0.48423  1.0000
  S   S190      1.0  0.52531  0.77483  0.53265  1.0000
  C   C854      1.0  0.57800  0.66771  0.72596  1.0000
  C   C855      1.0  0.53742  0.66218  0.72602  1.0000
  C   C856      1.0  0.66303  0.82099  0.49668  1.0000
  H   H1510     1.0  0.65548  0.69444  0.53622  1.0000
  S   S191      1.0  0.57630  0.92546  0.49162  1.0000
  H   H1511     1.0  0.56144  0.67477  0.68362  1.0000
  C   C857      1.0  0.56045  0.67065  0.61476  1.0000
  H   H1512     1.0  0.53256  0.90400  0.54031  1.0000
  H   H1513     1.0  0.72413  0.66136  0.55962  1.0000
  C   C858      1.0  0.53084  0.67492  0.59147  1.0000
  H   H1514     1.0  0.51648  0.66881  0.58745  1.0000
  H   H1515     1.0  0.66190  0.78684  0.53306  1.0000
  H   H1516     1.0  0.61606  0.66955  0.53316  1.0000
  H   H1517     1.0  0.51088  0.67725  0.70458  1.0000
  H   H1518     1.0  0.57508  0.65950  0.74455  1.0000
  H   H1519     1.0  0.59518  0.87041  0.49692  1.0000
  H   H1520     1.0  0.50920  0.72384  0.76766  1.0000
  H   H1521     1.0  0.51873  0.88089  0.57907  1.0000
  H   H1522     1.0  0.55346  0.95608  0.60748  1.0000
  C   C859      1.0  0.55412  0.98127  0.57612  1.0000
  C   C860      1.0  0.55309  0.66387  0.94596  1.0000
  H   H1523     1.0  0.58973  0.68038  0.72455  1.0000
  H   H1524     1.0  0.53010  0.85505  0.56533  1.0000
  H   H1525     1.0  0.67778  0.85801  0.50649  1.0000
  C   C861      1.0  0.53219  0.87300  0.56438  1.0000
  H   H1526     1.0  0.57272  0.68199  0.91431  1.0000
  H   H1527     1.0  0.53828  0.67898  0.94823  1.0000
  H   H1528     1.0  0.55075  0.87282  0.56631  1.0000
  H   H1529     1.0  0.50233  0.68643  0.73309  1.0000
  C   C862      1.0  0.52503  0.71318  0.77398  1.0000
  C   C863      1.0  0.50962  0.98102  0.54981  1.0000
  H   H1530     1.0  0.56669  0.66496  0.95547  1.0000
  C   C864      1.0  0.50299  0.88803  0.53767  1.0000
  H   H1531     1.0  0.52800  0.71035  0.72817  1.0000
  S   S192      1.0  0.57652  0.98063  0.48207  1.0000
  H   H1532     1.0  0.59182  0.98343  0.56701  1.0000
  H   H1533     1.0  0.51685  0.67741  0.48266  1.0000
  H   H1534     1.0  0.57751  0.98762  0.59627  1.0000
  H   H1535     1.0  0.50086  0.72567  0.51422  1.0000
  H   H1536     1.0  0.70224  0.84475  0.48448  1.0000
