data_image0
_chemical_formula_structural       CSCHSHFeSFeS2H2FeSFeS2H2C3H4CHSH4C4H4FeC7H5CHC5H4FeHC2HFeC2HCHCHSHCH8FeHC2H4C2H2C3H2CH5CHNHCH4CH2C2H4NC6HC2H3CH18C2HC2H2CHCS2HCH2SHC2HNHCH6C2FeNSHC3H2NHSH2FeH2SFeSCH4SHSFeS2FeS2FeSHS2CHSNH2SC2H2C2HC7H5C2HC7H6CHCH2CH2C2H7C3NC12H2SH10CH4CH8CNC3H3C4H8CH2CHC2H6CHCH3CSH2CHCH5FeCHCSCH2FeH5CH3SH3CH7CHC3FeH2SHCHFeHSH2CHCH4CHCH2NH2C2H6C2HSFeSFeH2FeS2HCFeSCSHSC2FeCSHC2SH2CHCH3C2HCHSCHC4HCH3FeC6H5C3H2CH6CHSCHCH6CH2NH3CHCH3CH5CHSH2C2HCH2CFeH2C3H8CHNC2H4CH6C4HSH3CFeHCH2SH2CH4CHC2FeH2CH3FeS2CFeSHSH3C3H2C3H3SH2CHSHCH2C7H4C2H7CH3SH2CFeCH6NHCH5SC3H12C2HNC6HC5H7CHC2HCH2SCHCH2CHNH5FeCH4CHSH4CHCH2S2HCH3CHCH3CS2HSHSFeS2FeS2FeSFeS3Fe2CSFeS2H2SH5CH2SC6H4C6H10C6H5CFeHC2H3C2H3CH2C2H5CHCHCNH9CHCH4C2NH5C2H4C4H2C3H6CHCH7CH3CSHFeCH2C3HC2HFeC6H12SH4CH2CH4CH4CH3CHC3HNC10H6NCH4SH2CH2CHCH5CHC2SCH2C2H6CH2CHCH2CH3SH2SH4NCH2C2H4C2H6NCHCH2FeC2H2CHC2HCNHC2H2CH2C2FeH2SHCH4CH3SH2CHSNS2HCH2SHC3H3FeH2CH6SCHCHSH3CHC3H2SNC11FeH21CH3FeC2H3SHC2HCH2CFeH2SHC2H2SCH2C3H4CH3C3H3CH6C2H7CH3SHFeSH3FeS2FeS2FeSFeCS2HFeSHCSHNHSH4C2HCH4C2H2C6H3C6H4C2H6CSHCHC3H7NH4CH3CH4CH3SH2C3HC3HCH4C2HCH3FeH3C2H3CH6NCH2CHC2HFeC3H2C3HSHSC2H5NFeNHCHCHCH4CH3SHC2H3CHC2H2C3HCH2CH2CHCH4CH2CHC2H4CH5CHC2HC2H2CH2CH2C2HC2H2CHCHCHCSH2CH2NH3CH2CHC3HCH9CSHCSH2CH5CH2C3H3Fe2HS3CH4CHCHCH6CHSH7C2H2CHC2H4C2H6C3SCHCHCH7SFeCH2CH3FeH2C2HCH2CH2CHCH4CHNHCH2CSCHCH3CHCHNCH3CH2CFeS2FeSFeSFeS3H2FeCHSHFeSH2CHC2SC4H2C6H4CHSCHCHC3HC2HS2H8CH2CSHCHSCH2CHCHFeHCHFeHCH2CH2C2H3CH3NHCHNCHCH2NH8C2H5CSH7CHCSFeH5CSHSHC2HCFeH3CHCHSHC2HC2NHCH5C5H2CH2CH4CH4SCHC2H4C2H3C3H2FeH2C2H4C2H2C4H4CSN2SH3CHCH2C3HCH3CH8C2H4CH3CHC4H6CHC3H10FeHSH2SFeS2FeS2FeSFeS3FeSH3CHC6H4C6H4NC3H3C2HCH3CH3SFeHCH3C5HCH3SHCHSC2HCH6C2H3C2H4C2H2FeCHCH9SH3CNHSHC2H5CHCHC2H5CH3CHCH2C3HC3H7NH2SH5CH3CHC2HCH3CHCH2CH4CFeH2CH6SH2CHCH3SHFeSCH2CFeHS2HC2SH2SH2CH5SC2H2C3H6C3H2C2NC3H4CHC2H3C2H5CHCH3CSH2CH2FeHCNCH6CH2CH2CH6C2HCSHSCH4CHCH2C3HC2H2CH4CHCHCFeHCFeH4CHCHCHCHCH2FeH2SH4NHCH2SFeS2FeSFeS2HSNHSCHFeCH2FeHSFeS2C4H2C6H4C5H3CHCH3C3HSH4SH4CHCHSCH4C3H2C2HNH2CHCH2SH2CHCH4SH2CSH4CH4C3H4CH2CHCH2C3H5CHFeH3C2H2CHCH2C2H4CHCH2CH2CHCFeC2H3CH3NC2HC3H3C2H4C2H4C2HFeH5CH4CHC2HCH2CH2CH2CNH5CH2NCHCHFeC4HSC2H2C2H2C2H2C
_chemical_formula_sum              "C864 S192 H1536 Fe96 N48"
_cell_length_a       46.2095
_cell_length_b       46.4837
_cell_length_c       60.6521
_cell_angle_alpha    88.1066
_cell_angle_beta     88.3867
_cell_angle_gamma    84.2292

_space_group_name_H-M_alt    "P 1"
_space_group_IT_number       1

loop_
  _space_group_symop_operation_xyz
  'x, y, z'

loop_
  _atom_site_type_symbol
  _atom_site_label
  _atom_site_symmetry_multiplicity
  _atom_site_fract_x
  _atom_site_fract_y
  _atom_site_fract_z
  _atom_site_occupancy
  C   C1        1.0  0.25164  0.02113  0.23735  1.0000
  S   S1        1.0  0.22818  0.02389  0.15339  1.0000
  C   C2        1.0  0.26048  0.10586  0.10163  1.0000
  H   H1        1.0  0.17421  0.08966  0.10325  1.0000
  S   S2        1.0  0.28010  0.02738  0.11631  1.0000
  H   H2        1.0  0.25265  0.02270  0.28215  1.0000
  Fe  Fe1       1.0  0.27355  0.03742  0.15217  1.0000
  S   S3        1.0  0.28410  0.08107  0.16376  1.0000
  Fe  Fe2       1.0  0.23613  0.01039  0.11812  1.0000
  S   S4        1.0  0.20499  0.02806  0.09094  1.0000
  S   S5        1.0  0.47089  0.01428  0.16390  1.0000
  H   H3        1.0  0.38117  0.09188  0.12005  1.0000
  H   H4        1.0  0.27433  0.09015  0.11194  1.0000
  Fe  Fe3       1.0  0.41883  0.13148  0.26908  1.0000
  S   S6        1.0  0.40093  0.08860  0.26833  1.0000
  Fe  Fe4       1.0  0.35810  0.11316  0.27677  1.0000
  S   S7        1.0  0.31687  0.09870  0.26286  1.0000
  S   S8        1.0  0.37522  0.15689  0.27492  1.0000
  H   H5        1.0  0.26127  0.99255  0.99849  1.0000
  H   H6        1.0  0.41029  0.06529  0.14897  1.0000
  C   C3        1.0  0.37637  0.13883  0.21775  1.0000
  C   C4        1.0  0.36934  0.03430  0.17075  1.0000
  C   C5        1.0  0.42891  0.01003  0.24704  1.0000
  H   H7        1.0  0.33372  0.14299  0.11431  1.0000
  H   H8        1.0  0.27595  0.98325  0.03723  1.0000
  H   H9        1.0  0.35270  0.07829  0.17520  1.0000
  H   H10       1.0  0.41887  0.11419  0.19085  1.0000
  C   C6        1.0  0.24209  0.02422  0.21342  1.0000
  H   H11       1.0  0.39011  0.03121  0.23171  1.0000
  S   S9        1.0  0.45124  0.14537  0.24323  1.0000
  H   H12       1.0  0.32760  0.10618  0.12248  1.0000
  H   H13       1.0  0.25730  0.03055  0.99993  1.0000
  H   H14       1.0  0.46626  0.07277  0.28725  1.0000
  H   H15       1.0  0.25791  0.01148  0.20259  1.0000
  C   C7        1.0  0.20591  0.10807  0.20507  1.0000
  C   C8        1.0  0.36040  0.01121  0.10548  1.0000
  C   C9        1.0  0.38251  0.02989  0.10362  1.0000
  C   C10       1.0  0.41011  0.02101  0.11181  1.0000
  H   H16       1.0  0.22791  0.99610  0.28279  1.0000
  H   H17       1.0  0.40319  0.14716  0.17861  1.0000
  H   H18       1.0  0.33923  0.01798  0.09894  1.0000
  H   H19       1.0  0.37828  0.05101  0.09571  1.0000
  Fe  Fe5       1.0  0.47618  0.02096  0.12733  1.0000
  C   C11       1.0  0.23585  0.00816  0.02664  1.0000
  C   C12       1.0  0.29544  0.08532  0.19095  1.0000
  C   C13       1.0  0.30612  0.06174  0.20434  1.0000
  C   C14       1.0  0.31501  0.06622  0.22590  1.0000
  C   C15       1.0  0.31289  0.09413  0.23432  1.0000
  C   C16       1.0  0.30237  0.11763  0.22081  1.0000
  C   C17       1.0  0.29413  0.11329  0.19913  1.0000
  H   H20       1.0  0.30736  0.04009  0.19819  1.0000
  H   H21       1.0  0.32257  0.04799  0.23639  1.0000
  H   H22       1.0  0.29984  0.13915  0.22734  1.0000
  H   H23       1.0  0.28597  0.13165  0.18889  1.0000
  H   H24       1.0  0.01901  0.43978  0.13417  1.0000
  C   C18       1.0  0.18537  0.00923  0.07215  1.0000
  H   H25       1.0  0.48335  0.12916  0.13637  1.0000
  C   C19       1.0  0.39824  0.07718  0.16256  1.0000
  C   C20       1.0  0.25546  0.98890  0.24514  1.0000
  C   C21       1.0  0.15205  0.01130  0.04115  1.0000
  C   C22       1.0  0.16780  0.02525  0.05654  1.0000
  C   C23       1.0  0.14155  0.06440  0.11733  1.0000
  H   H26       1.0  0.38485  0.02112  0.15990  1.0000
  H   H27       1.0  0.13851  0.02392  0.02936  1.0000
  H   H28       1.0  0.16631  0.04863  0.05639  1.0000
  H   H29       1.0  0.42717  0.13857  0.14257  1.0000
  Fe  Fe6       1.0  0.24986  0.97985  0.16295  1.0000
  H   H30       1.0  0.12339  0.06626  0.12975  1.0000
  C   C24       1.0  0.20053  0.04013  0.99115  1.0000
  C   C25       1.0  0.00818  0.43169  0.14939  1.0000
  H   H31       1.0  0.41701  0.99228  0.25432  1.0000
  Fe  Fe7       1.0  0.40796  0.08704  0.30474  1.0000
  C   C26       1.0  0.00120  0.38473  0.20183  1.0000
  C   C27       1.0  0.35162  0.98821  0.25138  1.0000
  H   H32       1.0  0.37198  0.09880  0.20262  1.0000
  C   C28       1.0  0.34234  0.11991  0.11309  1.0000
  H   H33       1.0  0.34273  0.11392  0.09550  1.0000
  C   C29       1.0  0.17677  0.04985  0.97411  1.0000
  H   H34       1.0  0.37615  0.03140  0.18812  1.0000
  S   S10       1.0  0.01374  0.03953  0.97571  1.0000
  H   H35       1.0  0.22518  0.12054  0.20554  1.0000
  C   C30       1.0  0.48131  0.07489  0.20764  1.0000
  H   H36       1.0  0.21336  0.05890  0.99321  1.0000
  H   H37       1.0  0.18884  0.03690  0.00720  1.0000
  H   H38       1.0  0.01840  0.37073  0.19409  1.0000
  H   H39       1.0  0.14217  0.11018  0.11395  1.0000
  H   H40       1.0  0.35289  0.12010  0.15466  1.0000
  H   H41       1.0  0.39621  0.13033  0.22667  1.0000
  H   H42       1.0  0.08502  0.46278  0.20439  1.0000
  H   H43       1.0  0.46899  0.01540  0.22938  1.0000
  Fe  Fe8       1.0  0.00035  0.45982  0.27660  1.0000
  H   H44       1.0  0.03180  0.45579  0.20895  1.0000
  C   C31       1.0  0.36766  0.06606  0.16360  1.0000
  C   C32       1.0  0.37340  0.12161  0.19706  1.0000
  H   H45       1.0  0.38743  0.12799  0.11163  1.0000
  H   H46       1.0  0.35763  0.06798  0.14716  1.0000
  H   H47       1.0  0.42820  0.02749  0.25909  1.0000
  H   H48       1.0  0.18601  0.98928  0.97488  1.0000
  C   C33       1.0  0.26239  0.00357  0.04131  1.0000
  C   C34       1.0  0.24501  0.01114  0.00190  1.0000
  H   H49       1.0  0.18421  0.08354  0.18243  1.0000
  H   H50       1.0  0.37425  0.14785  0.14629  1.0000
  C   C35       1.0  0.41244  0.02228  0.22674  1.0000
  C   C36       1.0  0.25135  0.99899  0.28453  1.0000
  C   C37       1.0  0.46300  0.09431  0.22053  1.0000
  H   H51       1.0  0.15467  0.09671  0.15191  1.0000
  H   H52       1.0  0.35284  0.13032  0.18927  1.0000
  C   C38       1.0  0.48188  0.10643  0.14216  1.0000
  H   H53       1.0  0.23333  0.98142  0.24543  1.0000
  H   H54       1.0  0.27574  0.02211  0.03938  1.0000
  H   H55       1.0  0.13240  0.06211  0.10081  1.0000
  H   H56       1.0  0.03626  0.44639  0.17302  1.0000
  H   H57       1.0  0.37753  0.16211  0.21349  1.0000
  C   C39       1.0  0.15655  0.07554  0.98232  1.0000
  H   H58       1.0  0.20954  0.08903  0.21653  1.0000
  N   N1        1.0  0.39927  0.10949  0.15932  1.0000
  H   H59       1.0  0.35330  0.01107  0.25551  1.0000
  C   C40       1.0  0.45583  0.10449  0.15799  1.0000
  H   H60       1.0  0.29887  0.01682  0.26754  1.0000
  H   H61       1.0  0.31331  0.99576  0.23178  1.0000
  H   H62       1.0  0.23479  0.03347  0.24767  1.0000
  H   H63       1.0  0.42347  0.04015  0.21868  1.0000
  C   C41       1.0  0.37399  0.12389  0.14647  1.0000
  H   H64       1.0  0.34751  0.02663  0.16945  1.0000
  H   H65       1.0  0.24127  0.04719  0.20772  1.0000
  C   C42       1.0  0.40002  0.12381  0.18125  1.0000
  C   C43       1.0  0.18705  0.97902  0.07216  1.0000
  H   H66       1.0  0.26413  0.10019  0.08406  1.0000
  H   H67       1.0  0.15617  0.04451  0.12119  1.0000
  H   H68       1.0  0.18629  0.12171  0.21097  1.0000
  H   H69       1.0  0.07385  0.45487  0.23241  1.0000
  N   N2        1.0  0.19271  0.11783  0.14145  1.0000
  C   C44       1.0  0.17976  0.14509  0.12977  1.0000
  C   C45       1.0  0.17302  0.09394  0.13957  1.0000
  C   C46       1.0  0.19427  0.12442  0.16565  1.0000
  C   C47       1.0  0.22326  0.10846  0.13326  1.0000
  C   C48       1.0  0.22831  0.10509  0.10808  1.0000
  C   C49       1.0  0.19751  0.17163  0.13068  1.0000
  H   H70       1.0  0.41100  0.00501  0.21468  1.0000
  C   C50       1.0  0.15351  0.98109  0.04131  1.0000
  C   C51       1.0  0.18351  0.19715  0.11688  1.0000
  H   H71       1.0  0.15752  0.15149  0.13672  1.0000
  H   H72       1.0  0.17636  0.14154  0.11209  1.0000
  H   H73       1.0  0.18508  0.07260  0.14373  1.0000
  C   C52       1.0  0.36615  0.98337  0.11493  1.0000
  H   H74       1.0  0.17314  0.13552  0.17169  1.0000
  H   H75       1.0  0.21088  0.13969  0.16818  1.0000
  H   H76       1.0  0.23871  0.12333  0.13909  1.0000
  H   H77       1.0  0.23104  0.08708  0.14075  1.0000
  H   H78       1.0  0.21608  0.12221  0.09805  1.0000
  H   H79       1.0  0.22202  0.08377  0.10338  1.0000
  H   H80       1.0  0.19848  0.17896  0.14785  1.0000
  H   H81       1.0  0.22003  0.16645  0.12415  1.0000
  H   H82       1.0  0.22275  0.02806  0.03215  1.0000
  H   H83       1.0  0.45591  0.08168  0.16399  1.0000
  H   H84       1.0  0.27210  0.03132  0.23839  1.0000
  H   H85       1.0  0.42774  0.10414  0.13043  1.0000
  H   H86       1.0  0.35735  0.13683  0.22905  1.0000
  H   H87       1.0  0.16098  0.20358  0.12302  1.0000
  H   H88       1.0  0.19639  0.21596  0.11805  1.0000
  H   H89       1.0  0.18299  0.19147  0.09925  1.0000
  H   H90       1.0  0.40992  0.06921  0.17775  1.0000
  H   H91       1.0  0.26725  0.12783  0.10385  1.0000
  C   C53       1.0  0.20187  0.09809  0.18166  1.0000
  C   C54       1.0  0.48291  0.01588  0.27440  1.0000
  H   H92       1.0  0.22227  0.08530  0.17648  1.0000
  C   C55       1.0  0.15826  0.09120  0.11717  1.0000
  C   C56       1.0  0.37311  0.11495  0.12204  1.0000
  H   H93       1.0  0.98688  0.27877  0.04147  1.0000
  H   H94       1.0  0.19045  0.98772  0.00358  1.0000
  C   C57       1.0  0.42686  0.11501  0.14656  1.0000
  H   H95       1.0  0.44084  0.09004  0.22443  1.0000
  C   C58       1.0  0.29976  0.99283  0.26680  1.0000
  S   S11       1.0  0.43821  0.04386  0.10954  1.0000
  S   S12       1.0  0.10355  0.02390  0.97596  1.0000
  H   H96       1.0  0.99945  0.44281  0.18305  1.0000
  C   C59       1.0  0.46065  0.99865  0.24058  1.0000
  H   H97       1.0  0.36542  0.98283  0.23652  1.0000
  H   H98       1.0  0.31112  0.98487  0.28196  1.0000
  S   S13       1.0  0.29434  0.99452  0.16426  1.0000
  H   H99       1.0  0.02621  0.39086  0.23050  1.0000
  C   C60       1.0  0.20296  0.98772  0.98765  1.0000
  C   C61       1.0  0.41538  0.99357  0.12188  1.0000
  H   H100      1.0  0.22027  0.01655  0.21177  1.0000
  N   N3        1.0  0.22056  0.01340  0.98569  1.0000
  H   H101      1.0  0.01746  0.40908  0.15294  1.0000
  C   C62       1.0  0.00582  0.39653  0.22232  1.0000
  H   H102      1.0  0.35319  0.97898  0.19490  1.0000
  H   H103      1.0  0.45929  0.11821  0.17214  1.0000
  H   H104      1.0  0.14515  0.06959  0.99794  1.0000
  H   H105      1.0  0.25507  0.00185  0.05889  1.0000
  H   H106      1.0  0.46233  0.02001  0.28423  1.0000
  H   H107      1.0  0.22302  0.98945  0.02971  1.0000
  C   C63       1.0  0.01287  0.45030  0.16903  1.0000
  C   C64       1.0  0.07155  0.47123  0.21865  1.0000
  Fe  Fe9       1.0  0.29715  0.98322  0.12861  1.0000
  N   N4        1.0  0.26966  0.98282  0.26709  1.0000
  S   S14       1.0  0.42986  0.12810  0.30512  1.0000
  H   H108      1.0  0.99611  0.40909  0.08125  1.0000
  C   C65       1.0  0.03959  0.47681  0.21252  1.0000
  C   C66       1.0  0.32012  0.98326  0.24701  1.0000
  C   C67       1.0  0.47346  0.11934  0.22826  1.0000
  H   H109      1.0  0.47323  0.05568  0.20164  1.0000
  H   H110      1.0  0.43609  0.98675  0.12894  1.0000
  N   N5        1.0  0.48105  0.99091  0.25936  1.0000
  H   H111      1.0  0.45968  0.97950  0.23015  1.0000
  S   S15       1.0  0.04520  0.47466  0.27628  1.0000
  H   H112      1.0  0.48000  0.09274  0.12769  1.0000
  H   H113      1.0  0.47387  0.05187  0.25059  1.0000
  Fe  Fe10      1.0  0.10864  0.97958  0.99213  1.0000
  H   H114      1.0  0.48436  0.00614  0.05989  1.0000
  H   H115      1.0  0.16899  0.09430  0.98505  1.0000
  S   S16       1.0  0.35427  0.12229  0.61673  1.0000
  Fe  Fe11      1.0  0.37636  0.07711  0.61613  1.0000
  S   S17       1.0  0.35745  0.04226  0.59812  1.0000
  C   C68       1.0  0.23534  0.46086  0.37477  1.0000
  H   H116      1.0  0.17115  0.46069  0.35538  1.0000
  H   H117      1.0  0.34484  0.18953  0.53080  1.0000
  H   H118      1.0  0.43413  0.98194  0.32211  1.0000
  H   H119      1.0  0.09072  0.45020  0.38374  1.0000
  S   S18       1.0  0.45539  0.34570  0.48959  1.0000
  H   H120      1.0  0.45939  0.30062  0.40694  1.0000
  S   S19       1.0  0.21186  0.41999  0.47627  1.0000
  Fe  Fe12      1.0  0.37965  0.27438  0.48343  1.0000
  S   S20       1.0  0.42636  0.27229  0.47203  1.0000
  S   S21       1.0  0.36165  0.23840  0.50497  1.0000
  Fe  Fe13      1.0  0.36249  0.32670  0.45219  1.0000
  S   S22       1.0  0.40824  0.32681  0.43830  1.0000
  S   S23       1.0  0.33190  0.36252  0.43625  1.0000
  Fe  Fe14      1.0  0.40885  0.27831  0.43767  1.0000
  S   S24       1.0  0.43138  0.24944  0.41110  1.0000
  H   H121      1.0  0.15884  0.41331  0.32371  1.0000
  S   S25       1.0  0.36227  0.27857  0.44882  1.0000
  S   S26       1.0  0.37584  0.32286  0.48767  1.0000
  C   C69       1.0  0.38610  0.12575  0.38670  1.0000
  H   H122      1.0  0.26369  0.29007  0.63457  1.0000
  S   S27       1.0  0.36933  0.18503  0.33639  1.0000
  N   N6        1.0  0.30798  0.47082  0.49079  1.0000
  H   H123      1.0  0.36117  0.25661  0.61902  1.0000
  H   H124      1.0  0.15933  0.40006  0.45365  1.0000
  S   S28       1.0  0.42675  0.04418  0.31923  1.0000
  C   C70       1.0  0.28954  0.08334  0.62694  1.0000
  C   C71       1.0  0.09995  0.46955  0.37772  1.0000
  H   H125      1.0  0.31486  0.28719  0.61976  1.0000
  H   H126      1.0  0.40078  0.10670  0.38138  1.0000
  C   C72       1.0  0.40194  0.01822  0.31726  1.0000
  C   C73       1.0  0.29842  0.18200  0.61473  1.0000
  H   H127      1.0  0.35810  0.28535  0.56176  1.0000
  C   C74       1.0  0.47554  0.37868  0.45435  1.0000
  C   C75       1.0  0.41376  0.23158  0.39051  1.0000
  C   C76       1.0  0.43026  0.21126  0.37734  1.0000
  C   C77       1.0  0.41716  0.19676  0.36072  1.0000
  C   C78       1.0  0.38734  0.20256  0.35700  1.0000
  C   C79       1.0  0.37086  0.22279  0.37028  1.0000
  C   C80       1.0  0.38393  0.23718  0.38694  1.0000
  H   H128      1.0  0.45334  0.20671  0.37994  1.0000
  H   H129      1.0  0.43011  0.18123  0.35069  1.0000
  H   H130      1.0  0.34780  0.22747  0.36756  1.0000
  H   H131      1.0  0.37093  0.25284  0.39682  1.0000
  H   H132      1.0  0.28269  0.99454  0.31147  1.0000
  C   C81       1.0  0.43586  0.34734  0.38331  1.0000
  C   C82       1.0  0.24094  0.01018  0.32485  1.0000
  H   H133      1.0  0.34084  0.18706  0.59945  1.0000
  C   C83       1.0  0.32165  0.20149  0.60538  1.0000
  C   C84       1.0  0.29902  0.37846  0.44817  1.0000
  C   C85       1.0  0.28645  0.36685  0.46727  1.0000
  C   C86       1.0  0.25972  0.37978  0.47574  1.0000
  C   C87       1.0  0.24560  0.40459  0.46539  1.0000
  C   C88       1.0  0.25835  0.41635  0.44644  1.0000
  C   C89       1.0  0.28494  0.40336  0.43789  1.0000
  H   H134      1.0  0.29706  0.34764  0.47530  1.0000
  H   H135      1.0  0.24990  0.37046  0.49036  1.0000
  H   H136      1.0  0.24767  0.43537  0.43833  1.0000
  H   H137      1.0  0.29466  0.41260  0.42322  1.0000
  H   H138      1.0  0.36116  0.29575  0.58996  1.0000
  H   H139      1.0  0.30913  0.07756  0.61644  1.0000
  C   C90       1.0  0.41206  0.21462  0.55834  1.0000
  H   H140      1.0  0.41189  0.24698  0.53177  1.0000
  C   C91       1.0  0.40144  0.22888  0.53884  1.0000
  H   H141      1.0  0.43067  0.22196  0.56610  1.0000
  H   H142      1.0  0.32962  0.01343  0.31179  1.0000
  C   C92       1.0  0.36912  0.98366  0.60106  1.0000
  H   H143      1.0  0.33000  0.43316  0.50739  1.0000
  H   H144      1.0  0.41718  0.13922  0.40867  1.0000
  C   C93       1.0  0.38087  0.01020  0.59910  1.0000
  C   C94       1.0  0.41107  0.01088  0.59820  1.0000
  H   H145      1.0  0.30760  0.16639  0.62753  1.0000
  H   H146      1.0  0.24419  0.03336  0.32175  1.0000
  H   H147      1.0  0.46144  0.17507  0.46606  1.0000
  H   H148      1.0  0.42026  0.03132  0.59644  1.0000
  H   H149      1.0  0.28827  0.24544  0.61528  1.0000
  H   H150      1.0  0.14778  0.43231  0.36108  1.0000
  H   H151      1.0  0.36410  0.16399  0.56488  1.0000
  C   C95       1.0  0.37459  0.18201  0.55775  1.0000
  C   C96       1.0  0.36376  0.19650  0.53837  1.0000
  C   C97       1.0  0.37702  0.22010  0.52884  1.0000
  N   N7        1.0  0.37916  0.17115  0.44050  1.0000
  C   C98       1.0  0.36033  0.19934  0.44346  1.0000
  C   C99       1.0  0.41102  0.17594  0.44143  1.0000
  C   C100      1.0  0.37374  0.16079  0.41771  1.0000
  C   C101      1.0  0.37155  0.14807  0.45715  1.0000
  C   C102      1.0  0.37275  0.15539  0.48183  1.0000
  C   C103      1.0  0.32698  0.19773  0.44265  1.0000
  C   C104      1.0  0.39415  0.13432  0.40970  1.0000
  C   C105      1.0  0.41958  0.19840  0.45782  1.0000
  C   C106      1.0  0.21043  0.44884  0.38869  1.0000
  C   C107      1.0  0.35938  0.13268  0.49661  1.0000
  C   C108      1.0  0.31023  0.22717  0.44683  1.0000
  C   C109      1.0  0.30974  0.27407  0.63471  1.0000
  H   H152      1.0  0.36635  0.21554  0.43061  1.0000
  H   H153      1.0  0.36430  0.20916  0.45938  1.0000
  S   S29       1.0  0.36383  0.10872  0.31352  1.0000
  H   H154      1.0  0.42219  0.32894  0.38392  1.0000
  H   H155      1.0  0.37558  0.17864  0.40516  1.0000
  H   H156      1.0  0.35120  0.15462  0.41667  1.0000
  H   H157      1.0  0.34959  0.14145  0.45400  1.0000
  H   H158      1.0  0.38657  0.12805  0.45517  1.0000
  H   H159      1.0  0.36080  0.17661  0.48551  1.0000
  H   H160      1.0  0.39572  0.15523  0.48670  1.0000
  H   H161      1.0  0.32060  0.19107  0.42623  1.0000
  H   H162      1.0  0.31968  0.18232  0.45548  1.0000
  H   H163      1.0  0.39256  0.11520  0.42091  1.0000
  C   C110      1.0  0.34435  0.25403  0.58618  1.0000
  H   H164      1.0  0.41182  0.22046  0.45163  1.0000
  H   H165      1.0  0.40993  0.19571  0.47453  1.0000
  H   H166      1.0  0.34608  0.23745  0.57332  1.0000
  H   H167      1.0  0.27323  0.09641  0.61672  1.0000
  C   C111      1.0  0.47786  0.37052  0.47668  1.0000
  H   H168      1.0  0.36159  0.13787  0.51420  1.0000
  H   H169      1.0  0.33587  0.13257  0.49330  1.0000
  H   H170      1.0  0.37073  0.11082  0.49389  1.0000
  H   H171      1.0  0.31553  0.23509  0.46320  1.0000
  H   H172      1.0  0.31556  0.24318  0.43372  1.0000
  H   H173      1.0  0.28648  0.22525  0.44667  1.0000
  H   H174      1.0  0.40941  0.44524  0.45532  1.0000
  H   H175      1.0  0.38850  0.14372  0.37450  1.0000
  C   C112      1.0  0.42947  0.98498  0.59923  1.0000
  N   N8        1.0  0.20331  0.41887  0.38347  1.0000
  C   C113      1.0  0.19455  0.41696  0.35977  1.0000
  C   C114      1.0  0.22856  0.39652  0.38875  1.0000
  C   C115      1.0  0.17760  0.41197  0.39795  1.0000
  H   H176      1.0  0.18609  0.43133  0.42951  1.0000
  H   H177      1.0  0.32150  0.26393  0.58682  1.0000
  H   H178      1.0  0.29495  0.00134  0.61218  1.0000
  C   C116      1.0  0.18266  0.40984  0.42320  1.0000
  C   C117      1.0  0.25126  0.38876  0.36996  1.0000
  C   C118      1.0  0.27774  0.36989  0.37875  1.0000
  C   C119      1.0  0.32159  0.43990  0.49080  1.0000
  H   H179      1.0  0.45816  0.21298  0.47173  1.0000
  H   H180      1.0  0.41899  0.18393  0.42502  1.0000
  H   H181      1.0  0.18944  0.39452  0.35666  1.0000
  H   H182      1.0  0.21272  0.42083  0.34810  1.0000
  H   H183      1.0  0.24045  0.40318  0.40315  1.0000
  H   H184      1.0  0.22051  0.37544  0.39399  1.0000
  H   H185      1.0  0.16984  0.39120  0.39303  1.0000
  H   H186      1.0  0.15898  0.42877  0.39572  1.0000
  C   C120      1.0  0.34576  0.43250  0.47322  1.0000
  H   H187      1.0  0.14329  0.45043  0.32312  1.0000
  H   H188      1.0  0.26121  0.99035  0.62368  1.0000
  C   C121      1.0  0.36393  0.27728  0.57868  1.0000
  H   H189      1.0  0.30533  0.15081  0.58846  1.0000
  C   C122      1.0  0.45021  0.45967  0.46545  1.0000
  C   C123      1.0  0.45261  0.19685  0.45986  1.0000
  H   H190      1.0  0.20174  0.39447  0.42752  1.0000
  H   H191      1.0  0.24139  0.37626  0.35731  1.0000
  H   H192      1.0  0.25907  0.40816  0.36165  1.0000
  H   H193      1.0  0.06954  0.42106  0.46334  1.0000
  H   H194      1.0  0.19070  0.46457  0.38762  1.0000
  H   H195      1.0  0.27107  0.34985  0.38707  1.0000
  C   C124      1.0  0.42391  0.44272  0.46969  1.0000
  H   H196      1.0  0.36332  0.12005  0.38666  1.0000
  C   C125      1.0  0.46809  0.33629  0.38448  1.0000
  H   H197      1.0  0.31202  0.21255  0.59038  1.0000
  H   H198      1.0  0.43177  0.35984  0.36760  1.0000
  H   H199      1.0  0.29305  0.36362  0.36489  1.0000
  C   C126      1.0  0.28714  0.16438  0.59653  1.0000
  S   S30       1.0  0.06654  0.46509  0.34147  1.0000
  H   H200      1.0  0.15324  0.37698  0.43129  1.0000
  H   H201      1.0  0.47512  0.30761  0.45203  1.0000
  C   C127      1.0  0.47431  0.31795  0.40598  1.0000
  H   H202      1.0  0.27087  0.04367  0.62181  1.0000
  C   C128      1.0  0.16797  0.43784  0.35234  1.0000
  H   H203      1.0  0.47579  0.27330  0.37835  1.0000
  H   H204      1.0  0.21702  0.44955  0.40612  1.0000
  H   H205      1.0  0.38711  0.26823  0.57828  1.0000
  H   H206      1.0  0.46303  0.20171  0.44360  1.0000
  H   H207      1.0  0.25647  0.44909  0.37946  1.0000
  Fe  Fe15      1.0  0.42168  0.32094  0.47345  1.0000
  C   C129      1.0  0.36236  0.40300  0.47835  1.0000
  H   H208      1.0  0.08185  0.44995  0.47864  1.0000
  C   C130      1.0  0.41142  0.98870  0.31937  1.0000
  S   S31       1.0  0.99444  0.46370  0.61030  1.0000
  C   C131      1.0  0.35831  0.99156  0.37632  1.0000
  H   H209      1.0  0.46505  0.45448  0.47938  1.0000
  H   H210      1.0  0.24729  0.00409  0.34203  1.0000
  Fe  Fe16      1.0  0.38489  0.15041  0.31126  1.0000
  H   H211      1.0  0.43123  0.41937  0.47213  1.0000
  H   H212      1.0  0.46713  0.33218  0.41985  1.0000
  H   H213      1.0  0.30495  0.42490  0.48775  1.0000
  H   H214      1.0  0.41176  0.45013  0.48486  1.0000
  H   H215      1.0  0.21971  0.44855  0.52661  1.0000
  C   C132      1.0  0.35243  0.00631  0.31363  1.0000
  H   H216      1.0  0.42436  0.15506  0.44491  1.0000
  H   H217      1.0  0.26540  0.43285  0.50673  1.0000
  H   H218      1.0  0.34382  0.01213  0.37631  1.0000
  S   S32       1.0  0.99513  0.46383  0.31338  1.0000
  H   H219      1.0  0.29639  0.46598  0.52556  1.0000
  H   H220      1.0  0.21756  0.00719  0.32318  1.0000
  H   H221      1.0  0.36169  0.44866  0.47225  1.0000
  C   C133      1.0  0.15618  0.39953  0.43558  1.0000
  H   H222      1.0  0.37783  0.39692  0.46453  1.0000
  H   H223      1.0  0.37488  0.40357  0.49368  1.0000
  H   H224      1.0  0.34708  0.38607  0.48039  1.0000
  H   H225      1.0  0.27943  0.19501  0.62218  1.0000
  H   H226      1.0  0.05405  0.45500  0.43289  1.0000
  H   H227      1.0  0.25080  0.45082  0.54351  1.0000
  H   H228      1.0  0.37379  0.22499  0.60538  1.0000
  C   C134      1.0  0.25914  0.45636  0.50810  1.0000
  H   H229      1.0  0.45279  0.98562  0.59838  1.0000
  C   C135      1.0  0.27687  0.05608  0.63595  1.0000
  C   C136      1.0  0.07856  0.44232  0.46179  1.0000
  C   C137      1.0  0.39865  0.19124  0.56802  1.0000
  Fe  Fe17      1.0  0.19419  0.46628  0.46781  1.0000
  H   H230      1.0  0.27589  0.17891  0.58386  1.0000
  H   H231      1.0  0.28942  0.38187  0.39068  1.0000
  S   S33       1.0  0.41187  0.17568  0.59355  1.0000
  H   H232      1.0  0.45930  0.37018  0.44464  1.0000
  C   C138      1.0  0.16281  0.43571  0.32771  1.0000
  H   H233      1.0  0.34584  0.98322  0.60151  1.0000
  Fe  Fe18      1.0  0.39925  0.13637  0.61410  1.0000
  H   H234      1.0  0.13626  0.41381  0.43141  1.0000
  S   S34       1.0  0.42115  0.09107  0.61088  1.0000
  H   H235      1.0  0.42933  0.36177  0.39722  1.0000
  H   H236      1.0  0.48066  0.35542  0.38373  1.0000
  C   C139      1.0  0.28509  0.98513  0.62312  1.0000
  H   H237      1.0  0.03664  0.46564  0.45868  1.0000
  C   C140      1.0  0.05756  0.46402  0.44922  1.0000
  H   H238      1.0  0.23231  0.45909  0.35685  1.0000
  H   H239      1.0  0.36499  0.04947  0.31213  1.0000
  H   H240      1.0  0.36058  0.46550  0.51581  1.0000
  H   H241      1.0  0.09989  0.43938  0.45292  1.0000
  C   C141      1.0  0.35372  0.23970  0.60871  1.0000
  H   H242      1.0  0.33587  0.43130  0.45683  1.0000
  C   C142      1.0  0.37252  0.02687  0.31394  1.0000
  H   H243      1.0  0.28215  0.45957  0.46376  1.0000
  H   H244      1.0  0.46135  0.45159  0.45012  1.0000
  N   N9        1.0  0.33121  0.22336  0.62088  1.0000
  H   H245      1.0  0.18176  0.44224  0.31777  1.0000
  H   H246      1.0  0.37098  0.99071  0.36051  1.0000
  C   C143      1.0  0.23936  0.46010  0.52865  1.0000
  C   C144      1.0  0.28607  0.47352  0.50979  1.0000
  H   H247      1.0  0.47369  0.32342  0.36962  1.0000
  H   H248      1.0  0.36415  0.19149  0.63398  1.0000
  H   H249      1.0  0.24623  0.46400  0.49356  1.0000
  H   H250      1.0  0.27140  0.14994  0.60375  1.0000
  H   H251      1.0  0.28447  0.47358  0.42468  1.0000
  H   H252      1.0  0.12688  0.47173  0.40614  1.0000
  C   C145      1.0  0.30483  0.24281  0.62841  1.0000
  C   C146      1.0  0.25968  0.99122  0.30877  1.0000
  H   H253      1.0  0.37361  0.99162  0.39011  1.0000
  S   S35       1.0  0.37904  0.07165  0.65286  1.0000
  Fe  Fe19      1.0  0.36108  0.11799  0.65328  1.0000
  S   S36       1.0  0.32527  0.13584  0.67648  1.0000
  Fe  Fe20      1.0  0.23717  0.99427  0.80604  1.0000
  H   H254      1.0  0.36686  0.00452  0.79533  1.0000
  H   H255      1.0  0.33831  0.98329  0.71665  1.0000
  Fe  Fe21      1.0  0.26241  0.02592  0.76532  1.0000
  S   S37       1.0  0.30793  0.00566  0.77021  1.0000
  S   S38       1.0  0.24863  0.05828  0.73797  1.0000
  H   H256      1.0  0.27705  0.27768  0.66140  1.0000
  C   C147      1.0  0.45672  0.09284  0.70462  1.0000
  Fe  Fe22      1.0  0.29809  0.01392  0.80599  1.0000
  S   S39       1.0  0.32867  0.03271  0.82841  1.0000
  C   C148      1.0  0.01741  0.09477  0.95727  1.0000
  S   S40       1.0  0.25401  0.03770  0.80076  1.0000
  H   H257      1.0  0.00181  0.23842  0.91973  1.0000
  S   S41       1.0  0.24170  0.98420  0.76974  1.0000
  C   C149      1.0  0.29866  0.98457  0.64618  1.0000
  C   C150      1.0  0.37334  0.11803  0.74012  1.0000
  Fe  Fe23      1.0  0.11656  0.00108  0.94416  1.0000
  C   C151      1.0  0.40389  0.99372  0.85198  1.0000
  S   S42       1.0  0.15700  0.01375  0.92491  1.0000
  H   H258      1.0  0.40276  0.00648  0.65931  1.0000
  C   C152      1.0  0.00014  0.07543  0.96818  1.0000
  C   C153      1.0  0.19605  0.00833  0.88978  1.0000
  S   S43       1.0  0.07030  0.99536  0.93528  1.0000
  H   H259      1.0  0.30368  0.05239  0.66430  1.0000
  H   H260      1.0  0.29740  0.10811  0.75675  1.0000
  C   C154      1.0  0.46291  0.09483  0.72714  1.0000
  H   H261      1.0  0.37660  0.09832  0.80385  1.0000
  C   C155      1.0  0.29869  0.03771  0.65104  1.0000
  H   H262      1.0  0.43548  0.01641  0.73647  1.0000
  H   H263      1.0  0.20507  0.04893  0.66744  1.0000
  H   H264      1.0  0.41303  0.01712  0.71270  1.0000
  C   C156      1.0  0.36292  0.01297  0.83000  1.0000
  C   C157      1.0  0.35641  0.22443  0.65866  1.0000
  H   H265      1.0  0.01931  0.13833  0.94413  1.0000
  C   C158      1.0  0.38811  0.07881  0.79619  1.0000
  H   H266      1.0  0.29082  0.07604  0.77310  1.0000
  S   S44       1.0  0.48322  0.07254  0.76719  1.0000
  C   C159      1.0  0.00572  0.12339  0.95231  1.0000
  H   H267      1.0  0.37445  0.04888  0.73237  1.0000
  C   C160      1.0  0.18434  0.99773  0.85216  1.0000
  C   C161      1.0  0.15481  0.99932  0.85879  1.0000
  C   C162      1.0  0.14596  0.00485  0.88084  1.0000
  C   C163      1.0  0.16664  0.00875  0.89658  1.0000
  H   H268      1.0  0.26585  0.02367  0.92428  1.0000
  C   C164      1.0  0.20491  0.00269  0.86774  1.0000
  H   H269      1.0  0.02499  0.18637  0.84246  1.0000
  H   H270      1.0  0.12319  0.00620  0.88565  1.0000
  H   H271      1.0  0.42376  0.05501  0.76409  1.0000
  Fe  Fe24      1.0  0.42237  0.08913  0.64803  1.0000
  C   C165      1.0  0.27167  0.07878  0.72149  1.0000
  C   C166      1.0  0.30148  0.07054  0.71811  1.0000
  C   C167      1.0  0.31826  0.08705  0.70356  1.0000
  C   C168      1.0  0.30535  0.11243  0.69312  1.0000
  C   C169      1.0  0.27575  0.12067  0.69693  1.0000
  C   C170      1.0  0.25897  0.10372  0.71065  1.0000
  H   H272      1.0  0.31132  0.05132  0.72652  1.0000
  H   H273      1.0  0.34118  0.08058  0.70079  1.0000
  H   H274      1.0  0.26563  0.14025  0.68911  1.0000
  H   H275      1.0  0.23597  0.11020  0.71312  1.0000
  H   H276      1.0  0.44671  0.08055  0.83133  1.0000
  C   C171      1.0  0.44722  0.98653  0.65928  1.0000
  C   C172      1.0  0.37378  0.20500  0.67545  1.0000
  C   C173      1.0  0.25679  0.01068  0.66522  1.0000
  H   H277      1.0  0.47672  0.98480  0.95626  1.0000
  H   H278      1.0  0.99923  0.45887  0.78959  1.0000
  C   C174      1.0  0.24468  0.03112  0.68374  1.0000
  H   H279      1.0  0.29940  0.02235  0.69350  1.0000
  H   H280      1.0  0.99619  0.16434  0.87274  1.0000
  H   H281      1.0  0.41710  0.98007  0.79772  1.0000
  H   H282      1.0  0.32791  0.27461  0.64610  1.0000
  H   H283      1.0  0.21630  0.01103  0.95025  1.0000
  H   H284      1.0  0.99108  0.18906  0.91122  1.0000
  C   C175      1.0  0.37738  0.00191  0.81105  1.0000
  H   H285      1.0  0.37950  0.21803  0.68941  1.0000
  S   S45       1.0  0.46021  0.06393  0.66513  1.0000
  C   C176      1.0  0.47909  0.04359  0.70542  1.0000
  H   H286      1.0  0.27983  0.01293  0.96386  1.0000
  C   C177      1.0  0.42331  0.08195  0.82726  1.0000
  H   H287      1.0  0.29434  0.98542  0.69189  1.0000
  H   H288      1.0  0.05527  0.97929  0.88370  1.0000
  H   H289      1.0  0.00679  0.20235  0.81848  1.0000
  H   H290      1.0  0.38618  0.16191  0.74069  1.0000
  H   H291      1.0  0.20113  0.01686  0.68475  1.0000
  H   H292      1.0  0.02738  0.46185  0.75480  1.0000
  C   C178      1.0  0.34987  0.99687  0.70456  1.0000
  H   H293      1.0  0.41390  0.10496  0.75686  1.0000
  H   H294      1.0  0.13869  0.99616  0.84675  1.0000
  N   N10       1.0  0.28921  0.00964  0.66083  1.0000
  H   H295      1.0  0.44632  0.11131  0.69558  1.0000
  H   H296      1.0  0.34789  0.01121  0.67050  1.0000
  H   H297      1.0  0.39428  0.19511  0.66768  1.0000
  C   C179      1.0  0.28245  0.28922  0.64571  1.0000
  H   H298      1.0  0.43120  0.09521  0.79343  1.0000
  C   C180      1.0  0.41267  0.01895  0.73092  1.0000
  H   H299      1.0  0.48546  0.02373  0.69727  1.0000
  H   H300      1.0  0.37915  0.06011  0.80486  1.0000
  H   H301      1.0  0.20391  0.05121  0.69707  1.0000
  C   C181      1.0  0.40574  0.98804  0.81243  1.0000
  H   H302      1.0  0.40102  0.00129  0.73863  1.0000
  H   H303      1.0  0.43235  0.05656  0.79890  1.0000
  H   H304      1.0  0.41274  0.10341  0.83210  1.0000
  H   H305      1.0  0.03982  0.08778  0.95294  1.0000
  H   H306      1.0  0.25071  0.98867  0.67005  1.0000
  C   C182      1.0  0.34548  0.20652  0.64009  1.0000
  H   H307      1.0  0.25437  0.05201  0.68250  1.0000
  S   S46       1.0  0.40462  0.13562  0.65113  1.0000
  H   H308      1.0  0.24443  0.01688  0.65013  1.0000
  H   H309      1.0  0.33019  0.19256  0.64856  1.0000
  C   C183      1.0  0.42047  0.07793  0.80253  1.0000
  C   C184      1.0  0.29811  0.09803  0.77361  1.0000
  H   H310      1.0  0.40809  0.06507  0.72751  1.0000
  C   C185      1.0  0.39737  0.04832  0.73725  1.0000
  H   H311      1.0  0.34388  0.07557  0.75222  1.0000
  H   H312      1.0  0.28275  0.11131  0.78449  1.0000
  C   C186      1.0  0.47670  0.07092  0.73881  1.0000
  Fe  Fe25      1.0  0.98785  0.46495  0.64710  1.0000
  H   H313      1.0  0.34598  0.05277  0.77596  1.0000
  H   H314      1.0  0.35032  0.12520  0.74448  1.0000
  C   C187      1.0  0.39020  0.10682  0.76108  1.0000
  C   C188      1.0  0.35028  0.07479  0.76970  1.0000
  C   C189      1.0  0.32885  0.09660  0.78245  1.0000
  H   H315      1.0  0.33591  0.11872  0.78147  1.0000
  H   H316      1.0  0.45722  0.11488  0.73545  1.0000
  H   H317      1.0  0.18646  0.05656  0.95804  1.0000
  H   H318      1.0  0.38697  0.12474  0.77292  1.0000
  H   H319      1.0  0.25284  0.98824  0.92357  1.0000
  H   H320      1.0  0.37323  0.10128  0.72765  1.0000
  H   H321      1.0  0.32779  0.08968  0.80016  1.0000
  H   H322      1.0  0.40904  0.13767  0.72321  1.0000
  C   C190      1.0  0.46506  0.06714  0.69367  1.0000
  H   H323      1.0  0.41314  0.06464  0.83686  1.0000
  N   N11       1.0  0.38209  0.07880  0.77178  1.0000
  C   C191      1.0  0.40021  0.05313  0.76217  1.0000
  C   C192      1.0  0.38639  0.14392  0.72907  1.0000
  H   H324      1.0  0.39555  0.03296  0.77142  1.0000
  H   H325      1.0  0.37333  0.15164  0.71453  1.0000
  H   H326      1.0  0.25000  0.02077  0.70010  1.0000
  H   H327      1.0  0.45225  0.00073  0.67271  1.0000
  C   C193      1.0  0.37639  0.00923  0.85040  1.0000
  H   H328      1.0  0.00689  0.16406  0.82433  1.0000
  H   H329      1.0  0.13988  0.08204  0.96977  1.0000
  H   H330      1.0  0.29076  0.99152  0.92783  1.0000
  H   H331      1.0  0.21215  0.01196  0.90168  1.0000
  H   H332      1.0  0.45258  0.99702  0.64319  1.0000
  H   H333      1.0  0.31960  0.03354  0.64149  1.0000
  C   C194      1.0  0.26828  0.00130  0.93151  1.0000
  C   C195      1.0  0.30379  0.00348  0.68270  1.0000
  C   C196      1.0  0.21162  0.03733  0.68309  1.0000
  C   C197      1.0  0.41444  0.98445  0.66066  1.0000
  H   H334      1.0  0.34810  0.01943  0.71014  1.0000
  S   S47       1.0  0.47542  0.98952  0.77591  1.0000
  H   H335      1.0  0.36084  0.18761  0.68208  1.0000
  H   H336      1.0  0.33754  0.23551  0.66776  1.0000
  H   H337      1.0  0.99790  0.21027  0.88677  1.0000
  C   C198      1.0  0.26265  0.00146  0.95646  1.0000
  Fe  Fe26      1.0  0.05784  0.01477  0.96828  1.0000
  H   H338      1.0  0.08429  0.98381  0.86380  1.0000
  C   C199      1.0  0.33719  0.99589  0.68170  1.0000
  H   H339      1.0  0.22769  0.00177  0.86286  1.0000
  H   H340      1.0  0.36523  0.01777  0.86506  1.0000
  S   S48       1.0  0.19443  0.98745  0.82478  1.0000
  H   H341      1.0  0.23471  0.04048  0.95840  1.0000
  H   H342      1.0  0.37080  0.24058  0.65219  1.0000
  C   C200      1.0  0.00584  0.18560  0.83190  1.0000
  H   H343      1.0  0.29389  0.23238  0.64275  1.0000
  H   H344      1.0  0.28626  0.31172  0.64952  1.0000
  H   H345      1.0  0.32257  0.98293  0.64281  1.0000
  H   H346      1.0  0.25666  0.06349  0.64528  1.0000
  C   C201      1.0  0.48480  0.04536  0.72784  1.0000
  H   H347      1.0  0.41383  0.99008  0.86790  1.0000
  C   C202      1.0  0.41871  0.98334  0.83300  1.0000
  C   C203      1.0  0.23226  0.01722  0.96230  1.0000
  Fe  Fe27      1.0  0.48547  0.97854  0.81127  1.0000
  H   H348      1.0  0.37314  0.98858  0.70385  1.0000
  H   H349      1.0  0.29546  0.09676  0.64066  1.0000
  C   C204      1.0  0.99213  0.47632  0.77741  1.0000
  H   H350      1.0  0.16329  0.03214  0.97114  1.0000
  H   H351      1.0  0.26535  0.97880  0.96273  1.0000
  H   H352      1.0  0.04004  0.52010  0.20057  1.0000
  Fe  Fe28      1.0  0.40393  0.87440  0.27959  1.0000
  S   S49       1.0  0.36728  0.90491  0.26657  1.0000
  S   S50       1.0  0.44978  0.87557  0.26578  1.0000
  C   C205      1.0  0.10596  0.89442  0.00738  1.0000
  Fe  Fe29      1.0  0.34244  0.86606  0.26857  1.0000
  S   S51       1.0  0.31227  0.85563  0.24205  1.0000
  H   H353      1.0  0.43233  0.89595  0.14594  1.0000
  S   S52       1.0  0.37978  0.83447  0.27954  1.0000
  H   H354      1.0  0.36003  0.97404  0.26537  1.0000
  H   H355      1.0  0.39852  0.95314  0.13018  1.0000
  H   H356      1.0  0.23335  0.93570  0.25804  1.0000
  C   C206      1.0  0.22000  0.95757  0.98521  1.0000
  C   C207      1.0  0.46710  0.92280  0.19988  1.0000
  C   C208      1.0  0.43552  0.91610  0.23218  1.0000
  H   H357      1.0  0.00774  0.80636  0.01918  1.0000
  H   H358      1.0  0.23858  0.95415  0.99646  1.0000
  C   C209      1.0  0.00219  0.94719  0.02371  1.0000
  C   C210      1.0  0.02152  0.80643  0.00387  1.0000
  C   C211      1.0  0.02768  0.54507  0.15938  1.0000
  H   H359      1.0  0.01788  0.96210  0.02895  1.0000
  H   H360      1.0  0.28543  0.94512  0.28697  1.0000
  H   H361      1.0  0.41557  0.82969  0.18455  1.0000
  S   S53       1.0  0.25400  0.96496  0.12790  1.0000
  H   H362      1.0  0.03064  0.78388  0.00072  1.0000
  H   H363      1.0  0.18147  0.93569  0.97964  1.0000
  C   C212      1.0  0.01354  0.91570  0.02884  1.0000
  H   H364      1.0  0.28493  0.88543  0.14767  1.0000
  S   S54       1.0  0.03651  0.55036  0.24507  1.0000
  H   H365      1.0  0.22143  0.89889  0.21061  1.0000
  C   C213      1.0  0.03440  0.85752  0.00990  1.0000
  H   H366      1.0  0.29379  0.94961  0.20208  1.0000
  H   H367      1.0  0.11174  0.89392  0.02504  1.0000
  C   C214      1.0  0.25553  0.92671  0.20478  1.0000
  C   C215      1.0  0.28480  0.93031  0.20838  1.0000
  C   C216      1.0  0.30214  0.90928  0.22082  1.0000
  C   C217      1.0  0.29065  0.88397  0.22862  1.0000
  C   C218      1.0  0.26164  0.88025  0.22458  1.0000
  C   C219      1.0  0.24400  0.90181  0.21324  1.0000
  C   C220      1.0  0.45649  0.89552  0.24119  1.0000
  H   H368      1.0  0.32455  0.91221  0.22395  1.0000
  H   H369      1.0  0.25265  0.86070  0.23044  1.0000
  H   H370      1.0  0.02086  0.86845  0.05718  1.0000
  H   H371      1.0  0.42415  0.94456  0.20428  1.0000
  C   C221      1.0  0.20051  0.93350  0.99053  1.0000
  C   C222      1.0  0.01196  0.57331  0.22905  1.0000
  H   H372      1.0  0.00786  0.58977  0.15814  1.0000
  H   H373      1.0  0.01463  0.85765  0.02071  1.0000
  H   H374      1.0  0.22769  0.94813  0.28579  1.0000
  H   H375      1.0  0.99132  0.61112  0.26475  1.0000
  H   H376      1.0  0.09804  0.91696  0.00240  1.0000
  H   H377      1.0  0.07344  0.83964  0.08249  1.0000
  H   H378      1.0  0.05829  0.92219  0.02382  1.0000
  C   C223      1.0  0.04624  0.82556  0.00623  1.0000
  H   H379      1.0  0.98737  0.65913  0.13304  1.0000
  H   H380      1.0  0.34138  0.93015  0.18781  1.0000
  H   H381      1.0  0.37325  0.92274  0.15327  1.0000
  S   S55       1.0  0.13395  0.96224  0.02249  1.0000
  H   H382      1.0  0.21291  0.91212  0.98791  1.0000
  H   H383      1.0  0.09361  0.85138  0.00438  1.0000
  C   C224      1.0  0.06513  0.86822  0.04174  1.0000
  Fe  Fe30      1.0  0.02108  0.51897  0.27093  1.0000
  C   C225      1.0  0.02272  0.59637  0.21711  1.0000
  H   H384      1.0  0.33798  0.87951  0.14022  1.0000
  H   H385      1.0  0.37341  0.92915  0.20408  1.0000
  H   H386      1.0  0.44206  0.86495  0.16377  1.0000
  H   H387      1.0  0.08437  0.85171  0.04160  1.0000
  H   H388      1.0  0.32682  0.91058  0.15631  1.0000
  H   H389      1.0  0.07596  0.87729  0.98569  1.0000
  N   N12       1.0  0.05592  0.87655  0.01847  1.0000
  H   H390      1.0  0.17247  0.94171  0.05715  1.0000
  C   C226      1.0  0.27240  0.95060  0.27196  1.0000
  H   H391      1.0  0.40876  0.84477  0.23356  1.0000
  H   H392      1.0  0.99665  0.90217  0.02367  1.0000
  H   H393      1.0  0.01266  0.63366  0.19564  1.0000
  H   H394      1.0  0.44222  0.84213  0.21725  1.0000
  H   H395      1.0  0.38539  0.88268  0.20833  1.0000
  S   S56       1.0  0.32615  0.87365  0.30314  1.0000
  C   C227      1.0  0.36459  0.93396  0.18741  1.0000
  C   C228      1.0  0.01822  0.57329  0.14674  1.0000
  C   C229      1.0  0.39377  0.97455  0.12291  1.0000
  H   H396      1.0  0.41497  0.92104  0.24073  1.0000
  H   H397      1.0  0.29056  0.88268  0.17692  1.0000
  H   H398      1.0  0.38205  0.83114  0.20065  1.0000
  H   H399      1.0  0.30128  0.85199  0.15993  1.0000
  H   H400      1.0  0.44023  0.83261  0.13203  1.0000
  H   H401      1.0  0.03749  0.52936  0.14730  1.0000
  H   H402      1.0  0.03744  0.58192  0.13852  1.0000
  H   H403      1.0  0.99848  0.95076  0.00576  1.0000
  H   H404      1.0  0.46526  0.85961  0.12706  1.0000
  H   H405      1.0  0.43039  0.86393  0.11414  1.0000
  H   H406      1.0  0.05967  0.82412  0.99072  1.0000
  H   H407      1.0  0.01607  0.91360  0.04695  1.0000
  C   C230      1.0  0.44089  0.92974  0.21162  1.0000
  C   C231      1.0  0.00422  0.61537  0.20420  1.0000
  H   H408      1.0  0.42322  0.81051  0.22271  1.0000
  N   N13       1.0  0.38172  0.88318  0.17281  1.0000
  C   C232      1.0  0.39635  0.86902  0.15283  1.0000
  C   C233      1.0  0.35112  0.87454  0.17503  1.0000
  C   C234      1.0  0.38180  0.91546  0.16971  1.0000
  C   C235      1.0  0.39766  0.87377  0.19361  1.0000
  C   C236      1.0  0.40301  0.84071  0.19823  1.0000
  C   C237      1.0  0.42917  0.87285  0.14926  1.0000
  H   H409      1.0  0.05497  0.87522  0.08734  1.0000
  C   C238      1.0  0.32989  0.88660  0.15674  1.0000
  C   C239      1.0  0.29988  0.87594  0.16061  1.0000
  C   C240      1.0  0.42036  0.83421  0.21921  1.0000
  C   C241      1.0  0.44191  0.85615  0.12937  1.0000
  C   C242      1.0  0.04320  0.90777  0.01693  1.0000
  H   H410      1.0  0.38561  0.87796  0.13753  1.0000
  H   H411      1.0  0.39360  0.84550  0.15312  1.0000
  H   H412      1.0  0.35142  0.85057  0.17508  1.0000
  H   H413      1.0  0.34114  0.88079  0.19129  1.0000
  H   H414      1.0  0.04540  0.59997  0.21823  1.0000
  H   H415      1.0  0.40445  0.92163  0.16963  1.0000
  H   H416      1.0  0.41899  0.88290  0.19374  1.0000
  C   C243      1.0  0.04221  0.85544  0.05744  1.0000
  H   H417      1.0  0.12906  0.88823  0.97584  1.0000
  C   C244      1.0  0.05238  0.85335  0.08126  1.0000
  C   C245      1.0  0.03554  0.49946  0.19307  1.0000
  H   H418      1.0  0.04491  0.54967  0.17079  1.0000
  C   C246      1.0  0.24349  0.93636  0.27439  1.0000
  H   H419      1.0  0.48361  0.95543  0.97616  1.0000
  H   H420      1.0  0.00769  0.81433  0.98980  1.0000
  S   S57       1.0  0.23206  0.95347  0.19117  1.0000
  C   C247      1.0  0.00155  0.53368  0.17251  1.0000
  H   H421      1.0  0.03598  0.84348  0.09203  1.0000
  C   C248      1.0  0.08248  0.87372  0.00323  1.0000
  H   H422      1.0  0.07282  0.88719  0.04980  1.0000
  H   H423      1.0  0.00001  0.69149  0.12058  1.0000
  C   C249      1.0  0.47682  0.92768  0.30322  1.0000
  H   H424      1.0  0.06005  0.81664  0.01999  1.0000
  N   N14       1.0  0.00622  0.50321  0.18223  1.0000
  H   H425      1.0  0.04080  0.91466  0.99928  1.0000
  H   H426      1.0  0.22822  0.89490  0.28385  1.0000
  H   H427      1.0  0.48262  0.90954  0.29198  1.0000
  H   H428      1.0  0.26482  0.89234  0.27260  1.0000
  H   H429      1.0  0.19278  0.93430  0.00804  1.0000
  Fe  Fe31      1.0  0.35467  0.90957  0.30226  1.0000
  C   C250      1.0  0.24890  0.90520  0.28335  1.0000
  H   H430      1.0  0.44699  0.97333  0.27952  1.0000
  H   H431      1.0  0.03870  0.83328  0.05258  1.0000
  H   H432      1.0  0.14995  0.90146  0.99730  1.0000
  H   H433      1.0  0.02631  0.86634  0.99376  1.0000
  C   C251      1.0  0.13368  0.88636  0.99374  1.0000
  H   H434      1.0  0.28498  0.93887  0.25863  1.0000
  S   S58       1.0  0.46933  0.93127  0.17140  1.0000
  H   H435      1.0  0.31994  0.96003  0.24375  1.0000
  H   H436      1.0  0.00253  0.56937  0.13388  1.0000
  H   H437      1.0  0.00181  0.59822  0.29195  1.0000
  H   H438      1.0  0.14306  0.86401  0.99803  1.0000
  C   C252      1.0  0.36609  0.96608  0.18228  1.0000
  H   H439      1.0  0.46689  0.94793  0.26221  1.0000
  C   C253      1.0  0.48342  0.89005  0.23012  1.0000
  H   H440      1.0  0.99576  0.54932  0.18576  1.0000
  H   H441      1.0  0.02722  0.48508  0.22737  1.0000
  S   S59       1.0  0.06198  0.97196  0.98719  1.0000
  S   S60       1.0  0.33909  0.95946  0.11717  1.0000
  H   H442      1.0  0.38893  0.97153  0.18226  1.0000
  C   C254      1.0  0.17114  0.96508  0.05687  1.0000
  H   H443      1.0  0.01969  0.48825  0.14973  1.0000
  H   H444      1.0  0.25741  0.90473  0.30031  1.0000
  H   H445      1.0  0.20048  0.96639  0.08401  1.0000
  C   C255      1.0  0.46921  0.96662  0.27286  1.0000
  H   H446      1.0  0.05314  0.49460  0.18042  1.0000
  C   C256      1.0  0.00482  0.48275  0.16356  1.0000
  H   H447      1.0  0.07965  0.49150  0.22411  1.0000
  H   H448      1.0  0.35698  0.97198  0.16581  1.0000
  H   H449      1.0  0.26772  0.97623  0.23215  1.0000
  C   C257      1.0  0.12267  0.54641  0.60502  1.0000
  S   S61       1.0  0.37834  0.87603  0.61676  1.0000
  S   S62       1.0  0.44066  0.92648  0.60558  1.0000
  H   H450      1.0  0.38726  0.87192  0.49897  1.0000
  S   S63       1.0  0.41179  0.79429  0.60516  1.0000
  H   H451      1.0  0.13130  0.56718  0.60022  1.0000
  S   S64       1.0  0.10252  0.52667  0.49769  1.0000
  Fe  Fe32      1.0  0.37374  0.71912  0.49279  1.0000
  S   S65       1.0  0.35414  0.72349  0.45903  1.0000
  S   S66       1.0  0.35571  0.75157  0.51861  1.0000
  Fe  Fe33      1.0  0.41195  0.66392  0.48090  1.0000
  S   S67       1.0  0.39585  0.66446  0.44631  1.0000
  S   S68       1.0  0.44035  0.62682  0.49738  1.0000
  Fe  Fe34      1.0  0.39954  0.71249  0.44597  1.0000
  S   S69       1.0  0.41966  0.73410  0.41570  1.0000
  Fe  Fe35      1.0  0.35133  0.67525  0.46148  1.0000
  S   S70       1.0  0.31331  0.65609  0.44601  1.0000
  S   S71       1.0  0.41974  0.71113  0.47960  1.0000
  S   S72       1.0  0.36690  0.67177  0.49626  1.0000
  Fe  Fe36      1.0  0.14622  0.51396  0.48031  1.0000
  Fe  Fe37      1.0  0.20939  0.52851  0.47011  1.0000
  C   C258      1.0  0.36223  0.68195  0.56856  1.0000
  S   S73       1.0  0.24789  0.54930  0.48363  1.0000
  Fe  Fe38      1.0  0.17082  0.51092  0.43324  1.0000
  S   S74       1.0  0.16053  0.52100  0.39715  1.0000
  S   S75       1.0  0.16564  0.54680  0.45762  1.0000
  H   H452      1.0  0.04859  0.56502  0.43411  1.0000
  H   H453      1.0  0.33648  0.66234  0.54458  1.0000
  S   S76       1.0  0.35234  0.81832  0.34473  1.0000
  H   H454      1.0  0.36063  0.66369  0.58060  1.0000
  H   H455      1.0  0.13603  0.49444  0.53234  1.0000
  H   H456      1.0  0.37302  0.90076  0.56915  1.0000
  H   H457      1.0  0.36223  0.73271  0.34973  1.0000
  H   H458      1.0  0.44241  0.55119  0.42565  1.0000
  C   C259      1.0  0.12445  0.51888  0.36207  1.0000
  H   H459      1.0  0.23227  0.48334  0.53115  1.0000
  H   H460      1.0  0.13413  0.53786  0.35579  1.0000
  S   S77       1.0  0.07091  0.49240  0.59768  1.0000
  C   C260      1.0  0.40113  0.75870  0.39660  1.0000
  C   C261      1.0  0.37256  0.77068  0.40060  1.0000
  C   C262      1.0  0.35825  0.78930  0.38466  1.0000
  C   C263      1.0  0.37230  0.79622  0.36458  1.0000
  C   C264      1.0  0.40102  0.78462  0.36069  1.0000
  C   C265      1.0  0.41534  0.76599  0.37666  1.0000
  H   H461      1.0  0.36144  0.76538  0.41590  1.0000
  H   H462      1.0  0.33605  0.79822  0.38782  1.0000
  H   H463      1.0  0.41207  0.78968  0.34530  1.0000
  H   H464      1.0  0.43747  0.75687  0.37343  1.0000
  C   C266      1.0  0.26608  0.57863  0.47248  1.0000
  C   C267      1.0  0.28959  0.58747  0.48392  1.0000
  C   C268      1.0  0.30440  0.61097  0.47599  1.0000
  C   C269      1.0  0.29585  0.62591  0.45647  1.0000
  C   C270      1.0  0.27263  0.61679  0.44484  1.0000
  C   C271      1.0  0.25780  0.59327  0.45277  1.0000
  H   H465      1.0  0.29613  0.57633  0.49918  1.0000
  H   H466      1.0  0.32220  0.61775  0.48510  1.0000
  H   H467      1.0  0.26583  0.62818  0.42972  1.0000
  H   H468      1.0  0.23976  0.58673  0.44381  1.0000
  H   H469      1.0  0.07895  0.49939  0.46217  1.0000
  H   H470      1.0  0.42960  0.60550  0.61687  1.0000
  H   H471      1.0  0.40221  0.69676  0.59609  1.0000
  H   H472      1.0  0.39700  0.90871  0.52125  1.0000
  H   H473      1.0  0.44113  0.65122  0.54024  1.0000
  H   H474      1.0  0.04977  0.53627  0.52381  1.0000
  C   C272      1.0  0.39604  0.78601  0.58003  1.0000
  C   C273      1.0  0.36592  0.78873  0.57742  1.0000
  C   C274      1.0  0.35405  0.77851  0.55834  1.0000
  C   C275      1.0  0.37207  0.76519  0.54176  1.0000
  C   C276      1.0  0.40224  0.76344  0.54397  1.0000
  C   C277      1.0  0.41413  0.77369  0.56305  1.0000
  H   H475      1.0  0.35169  0.79775  0.59046  1.0000
  H   H476      1.0  0.33068  0.78022  0.55671  1.0000
  H   H477      1.0  0.41636  0.75412  0.53101  1.0000
  H   H478      1.0  0.43748  0.77155  0.56486  1.0000
  H   H479      1.0  0.10858  0.58142  0.44104  1.0000
  C   C278      1.0  0.09385  0.51623  0.52534  1.0000
  Fe  Fe39      1.0  0.41825  0.89493  0.62701  1.0000
  H   H480      1.0  0.45934  0.82870  0.59029  1.0000
  C   C279      1.0  0.43172  0.55382  0.44216  1.0000
  C   C280      1.0  0.47392  0.61175  0.48589  1.0000
  H   H481      1.0  0.07763  0.62012  0.63466  1.0000
  H   H482      1.0  0.47539  0.67287  0.51209  1.0000
  H   H483      1.0  0.28292  0.74585  0.44143  1.0000
  C   C281      1.0  0.36972  0.50975  0.51689  1.0000
  C   C282      1.0  0.12045  0.48167  0.39044  1.0000
  H   H484      1.0  0.40552  0.59299  0.43144  1.0000
  H   H485      1.0  0.46434  0.50555  0.42466  1.0000
  H   H486      1.0  0.00837  0.50675  0.37738  1.0000
  C   C283      1.0  0.33612  0.68282  0.55357  1.0000
  H   H487      1.0  0.26822  0.75913  0.41535  1.0000
  H   H488      1.0  0.42163  0.58477  0.59337  1.0000
  C   C284      1.0  0.13309  0.50621  0.38252  1.0000
  C   C285      1.0  0.37688  0.85717  0.51086  1.0000
  H   H489      1.0  0.03790  0.50460  0.48324  1.0000
  H   H490      1.0  0.08703  0.59435  0.41754  1.0000
  H   H491      1.0  0.32618  0.89234  0.58789  1.0000
  H   H492      1.0  0.00788  0.50441  0.44800  1.0000
  H   H493      1.0  0.41078  0.59006  0.46079  1.0000
  C   C286      1.0  0.41275  0.89830  0.53336  1.0000
  H   H494      1.0  0.41843  0.84182  0.52369  1.0000
  C   C287      1.0  0.37180  0.82990  0.49873  1.0000
  H   H495      1.0  0.38941  0.83066  0.54021  1.0000
  C   C288      1.0  0.06424  0.54582  0.43790  1.0000
  N   N15       1.0  0.46523  0.51171  0.45993  1.0000
  H   H496      1.0  0.43185  0.88966  0.52313  1.0000
  H   H497      1.0  0.36084  0.84941  0.57754  1.0000
  H   H498      1.0  0.45308  0.61398  0.56933  1.0000
  H   H499      1.0  0.32354  0.96834  0.36593  1.0000
  H   H500      1.0  0.40384  0.64699  0.59661  1.0000
  H   H501      1.0  0.46927  0.71816  0.62164  1.0000
  H   H502      1.0  0.46471  0.66150  0.56029  1.0000
  H   H503      1.0  0.31563  0.68569  0.56362  1.0000
  H   H504      1.0  0.03541  0.55599  0.39960  1.0000
  C   C289      1.0  0.41342  0.85274  0.37904  1.0000
  H   H505      1.0  0.34406  0.84928  0.55129  1.0000
  C   C290      1.0  0.29761  0.62317  0.37529  1.0000
  H   H506      1.0  0.35782  0.89998  0.54288  1.0000
  H   H507      1.0  0.46954  0.86537  0.58838  1.0000
  H   H508      1.0  0.31468  0.94808  0.61243  1.0000
  H   H509      1.0  0.12344  0.57716  0.41341  1.0000
  C   C291      1.0  0.33889  0.73926  0.31974  1.0000
  C   C292      1.0  0.42236  0.92280  0.54744  1.0000
  N   N16       1.0  0.39955  0.87421  0.54613  1.0000
  H   H510      1.0  0.03689  0.54322  0.47993  1.0000
  H   H511      1.0  0.08684  0.54420  0.40518  1.0000
  H   H512      1.0  0.41914  0.87985  0.57757  1.0000
  H   H513      1.0  0.32858  0.96762  0.39519  1.0000
  H   H514      1.0  0.41290  0.84881  0.36109  1.0000
  C   C293      1.0  0.99587  0.52744  0.48827  1.0000
  C   C294      1.0  0.37021  0.88608  0.55539  1.0000
  H   H515      1.0  0.40441  0.93173  0.55851  1.0000
  H   H516      1.0  0.33614  0.70119  0.54142  1.0000
  H   H517      1.0  0.28353  0.95700  0.59531  1.0000
  H   H518      1.0  0.40388  0.83491  0.38843  1.0000
  C   C295      1.0  0.39679  0.84974  0.53086  1.0000
  C   C296      1.0  0.11433  0.50063  0.53881  1.0000
  C   C297      1.0  0.30766  0.67472  0.38230  1.0000
  C   C298      1.0  0.32369  0.70802  0.35246  1.0000
  H   H519      1.0  0.14095  0.59217  0.62996  1.0000
  H   H520      1.0  0.45830  0.58332  0.60302  1.0000
  C   C299      1.0  0.45017  0.72083  0.61078  1.0000
  C   C300      1.0  0.06305  0.57471  0.60594  1.0000
  C   C301      1.0  0.02427  0.53594  0.40085  1.0000
  H   H521      1.0  0.48075  0.71057  0.51340  1.0000
  H   H522      1.0  0.27931  0.93921  0.62194  1.0000
  H   H523      1.0  0.36012  0.70240  0.57773  1.0000
  H   H524      1.0  0.44111  0.91462  0.55770  1.0000
  H   H525      1.0  0.43895  0.96466  0.54361  1.0000
  H   H526      1.0  0.45304  0.71438  0.54869  1.0000
  C   C302      1.0  0.41765  0.95852  0.60218  1.0000
  H   H527      1.0  0.00551  0.61595  0.57982  1.0000
  C   C303      1.0  0.44410  0.66863  0.55193  1.0000
  H   H528      1.0  0.04238  0.61961  0.60791  1.0000
  H   H529      1.0  0.39002  0.66271  0.54214  1.0000
  H   H530      1.0  0.04059  0.52318  0.36810  1.0000
  H   H531      1.0  0.05494  0.55314  0.60414  1.0000
  H   H532      1.0  0.07710  0.57810  0.59107  1.0000
  H   H533      1.0  0.43024  0.72566  0.62125  1.0000
  H   H534      1.0  0.06253  0.50514  0.40412  1.0000
  C   C304      1.0  0.44387  0.62309  0.58505  1.0000
  H   H535      1.0  0.33390  0.48909  0.53067  1.0000
  H   H536      1.0  0.11005  0.54006  0.59102  1.0000
  H   H537      1.0  0.30601  0.50193  0.41503  1.0000
  C   C305      1.0  0.10309  0.54907  0.62625  1.0000
  S   S78       1.0  0.99210  0.53452  0.61085  1.0000
  H   H538      1.0  0.27325  0.51108  0.43097  1.0000
  Fe  Fe40      1.0  0.36571  0.84535  0.31453  1.0000
  C   C306      1.0  0.44994  0.69610  0.53800  1.0000
  H   H539      1.0  0.25608  0.50054  0.36973  1.0000
  H   H540      1.0  0.45765  0.49211  0.50495  1.0000
  C   C307      1.0  0.30961  0.49143  0.45002  1.0000
  C   C308      1.0  0.34009  0.96590  0.37897  1.0000
  C   C309      1.0  0.35943  0.93667  0.37687  1.0000
  H   H541      1.0  0.45266  0.73953  0.59925  1.0000
  C   C310      1.0  0.14815  0.52311  0.60792  1.0000
  C   C311      1.0  0.46853  0.84518  0.57923  1.0000
  H   H542      1.0  0.36751  0.93568  0.35936  1.0000
  Fe  Fe41      1.0  0.40153  0.83326  0.62736  1.0000
  C   C312      1.0  0.44080  0.49261  0.46290  1.0000
  C   C313      1.0  0.35458  0.69620  0.38550  1.0000
  C   C314      1.0  0.37561  0.67257  0.37447  1.0000
  C   C315      1.0  0.30063  0.72173  0.41332  1.0000
  C   C316      1.0  0.40712  0.67512  0.38050  1.0000
  C   C317      1.0  0.28833  0.75003  0.42372  1.0000
  H   H543      1.0  0.31402  0.66515  0.39876  1.0000
  H   H544      1.0  0.36488  0.71678  0.38451  1.0000
  H   H545      1.0  0.35433  0.69018  0.40339  1.0000
  H   H546      1.0  0.37016  0.65090  0.38045  1.0000
  H   H547      1.0  0.32006  0.71326  0.42255  1.0000
  H   H548      1.0  0.28405  0.70614  0.41578  1.0000
  H   H549      1.0  0.13192  0.64602  0.62655  1.0000
  H   H550      1.0  0.29907  0.60604  0.36286  1.0000
  H   H551      1.0  0.41418  0.69611  0.37421  1.0000
  H   H552      1.0  0.40958  0.67358  0.39865  1.0000
  H   H553      1.0  0.42164  0.65738  0.37301  1.0000
  H   H554      1.0  0.30463  0.76607  0.42264  1.0000
  S   S79       1.0  0.33614  0.95160  0.31612  1.0000
  H   H555      1.0  0.39886  0.94523  0.31977  1.0000
  H   H556      1.0  0.41360  0.95772  0.52287  1.0000
  H   H557      1.0  0.40868  0.84497  0.57413  1.0000
  H   H558      1.0  0.47039  0.55746  0.46103  1.0000
  C   C318      1.0  0.02175  0.52210  0.45087  1.0000
  H   H559      1.0  0.23984  0.49627  0.39684  1.0000
  H   H560      1.0  0.35958  0.81539  0.50959  1.0000
  C   C319      1.0  0.41839  0.86294  0.56508  1.0000
  H   H561      1.0  0.32802  0.75495  0.35187  1.0000
  H   H562      1.0  0.44803  0.67513  0.61024  1.0000
  H   H563      1.0  0.25874  0.89574  0.37095  1.0000
  H   H564      1.0  0.43648  0.85260  0.38377  1.0000
  C   C320      1.0  0.44854  0.69330  0.59796  1.0000
  H   H565      1.0  0.40882  0.89897  0.37659  1.0000
  H   H566      1.0  0.30076  0.71161  0.34692  1.0000
  H   H567      1.0  0.30931  0.89118  0.56140  1.0000
  H   H568      1.0  0.39279  0.81800  0.49346  1.0000
  C   C321      1.0  0.35007  0.86340  0.56447  1.0000
  H   H569      1.0  0.46478  0.52941  0.50553  1.0000
  H   H570      1.0  0.34599  0.49248  0.48051  1.0000
  H   H571      1.0  0.10916  0.53087  0.42793  1.0000
  C   C322      1.0  0.10345  0.50714  0.34957  1.0000
  H   H572      1.0  0.29776  0.65725  0.35053  1.0000
  C   C323      1.0  0.42146  0.58593  0.44439  1.0000
  C   C324      1.0  0.43192  0.94779  0.53294  1.0000
  C   C325      1.0  0.31025  0.65010  0.36548  1.0000
  H   H573      1.0  0.39680  0.88376  0.40263  1.0000
  N   N17       1.0  0.34510  0.90963  0.38335  1.0000
  C   C326      1.0  0.36522  0.88401  0.37582  1.0000
  C   C327      1.0  0.31642  0.91102  0.37168  1.0000
  C   C328      1.0  0.48038  0.50539  0.43803  1.0000
  C   C329      1.0  0.34037  0.90905  0.40810  1.0000
  C   C330      1.0  0.32900  0.88147  0.41874  1.0000
  C   C331      1.0  0.39668  0.88176  0.38448  1.0000
  C   C332      1.0  0.41556  0.64315  0.58050  1.0000
  C   C333      1.0  0.30495  0.88191  0.36611  1.0000
  C   C334      1.0  0.27385  0.88660  0.35783  1.0000
  C   C335      1.0  0.32905  0.88225  0.44393  1.0000
  H   H574      1.0  0.42636  0.49527  0.44845  1.0000
  H   H575      1.0  0.28738  0.73363  0.38017  1.0000
  H   H576      1.0  0.36694  0.88457  0.35751  1.0000
  H   H577      1.0  0.35621  0.86324  0.38000  1.0000
  H   H578      1.0  0.29909  0.92419  0.38109  1.0000
  H   H579      1.0  0.31814  0.92239  0.35531  1.0000
  N   N18       1.0  0.41860  0.67164  0.56814  1.0000
  C   C336      1.0  0.02541  0.52420  0.47616  1.0000
  H   H580      1.0  0.36070  0.91289  0.41645  1.0000
  H   H581      1.0  0.32435  0.92724  0.41310  1.0000
  H   H582      1.0  0.34255  0.86150  0.41400  1.0000
  H   H583      1.0  0.30618  0.88015  0.41404  1.0000
  S   S80       1.0  0.14924  0.47917  0.45510  1.0000
  H   H584      1.0  0.41868  0.71690  0.57517  1.0000
  H   H585      1.0  0.46067  0.63473  0.59257  1.0000
  C   C337      1.0  0.47453  0.50721  0.50196  1.0000
  H   H586      1.0  0.31865  0.87173  0.35264  1.0000
  H   H587      1.0  0.30542  0.86630  0.38026  1.0000
  C   C338      1.0  0.09157  0.54746  0.42268  1.0000
  H   H588      1.0  0.27274  0.90146  0.34307  1.0000
  C   C339      1.0  0.32173  0.87810  0.57428  1.0000
  H   H589      1.0  0.32020  0.86255  0.45114  1.0000
  H   H590      1.0  0.35158  0.88265  0.44979  1.0000
  H   H591      1.0  0.31526  0.90154  0.44990  1.0000
  H   H592      1.0  0.45023  0.83038  0.55018  1.0000
  H   H593      1.0  0.37817  0.93754  0.60535  1.0000
  C   C340      1.0  0.06572  0.52410  0.53406  1.0000
  H   H594      1.0  0.30810  0.86138  0.58110  1.0000
  C   C341      1.0  0.29205  0.47861  0.46960  1.0000
  C   C342      1.0  0.07864  0.50092  0.56950  1.0000
  S   S81       1.0  0.18927  0.49853  0.49480  1.0000
  C   C343      1.0  0.34801  0.48715  0.51560  1.0000
  H   H595      1.0  0.27438  0.62830  0.38026  1.0000
  H   H596      1.0  0.31860  0.51449  0.49465  1.0000
  C   C344      1.0  0.10326  0.57697  0.42381  1.0000
  C   C345      1.0  0.33915  0.73495  0.34481  1.0000
  H   H597      1.0  0.12283  0.48121  0.57110  1.0000
  H   H598      1.0  0.44028  0.54689  0.47662  1.0000
  H   H599      1.0  0.03641  0.52264  0.56252  1.0000
  H   H600      1.0  0.32133  0.74519  0.38724  1.0000
  H   H601      1.0  0.26680  0.86555  0.35307  1.0000
  H   H602      1.0  0.30994  0.61466  0.39000  1.0000
  C   C346      1.0  0.09366  0.60337  0.62732  1.0000
  H   H603      1.0  0.35877  0.83579  0.48385  1.0000
  H   H604      1.0  0.07153  0.54906  0.45491  1.0000
  C   C347      1.0  0.05809  0.51642  0.55601  1.0000
  H   H605      1.0  0.33366  0.68971  0.34270  1.0000
  C   C348      1.0  0.03647  0.59782  0.60406  1.0000
  H   H606      1.0  0.37490  0.67396  0.35625  1.0000
  H   H607      1.0  0.16111  0.52112  0.59223  1.0000
  C   C349      1.0  0.45270  0.54292  0.46085  1.0000
  H   H608      1.0  0.04129  0.60550  0.56847  1.0000
  H   H609      1.0  0.27773  0.49671  0.51186  1.0000
  H   H610      1.0  0.37901  0.93816  0.38690  1.0000
  S   S82       1.0  0.39340  0.88249  0.31550  1.0000
  H   H611      1.0  0.13997  0.50184  0.61206  1.0000
  H   H612      1.0  0.09713  0.51700  0.33379  1.0000
  S   S83       1.0  0.21620  0.49516  0.44391  1.0000
  H   H613      1.0  0.31497  0.51346  0.45395  1.0000
  H   H614      1.0  0.44013  0.59915  0.44231  1.0000
  H   H615      1.0  0.41208  0.54190  0.44285  1.0000
  H   H616      1.0  0.33297  0.64373  0.36015  1.0000
  N   N19       1.0  0.32402  0.70080  0.37693  1.0000
  C   C350      1.0  0.30824  0.72642  0.38845  1.0000
  H   H617      1.0  0.28382  0.68134  0.38381  1.0000
  H   H618      1.0  0.02986  0.49228  0.41398  1.0000
  C   C351      1.0  0.01948  0.52688  0.37731  1.0000
  C   C352      1.0  0.29109  0.95558  0.61256  1.0000
  H   H619      1.0  0.21715  0.50599  0.37340  1.0000
  H   H620      1.0  0.35530  0.86784  0.51589  1.0000
  H   H621      1.0  0.00838  0.54221  0.44547  1.0000
  H   H622      1.0  0.48145  0.58079  0.51289  1.0000
  C   C353      1.0  0.43785  0.59765  0.60054  1.0000
  C   C354      1.0  0.02451  0.59937  0.58075  1.0000
  H   H623      1.0  0.09819  0.61179  0.61027  1.0000
  H   H624      1.0  0.43176  0.70257  0.52681  1.0000
  H   H625      1.0  0.38245  0.50581  0.53215  1.0000
  H   H626      1.0  0.35810  0.53188  0.51734  1.0000
  H   H627      1.0  0.34976  0.75889  0.31490  1.0000
  H   H628      1.0  0.01745  0.57814  0.57642  1.0000
  N   N20       1.0  0.04960  0.51828  0.43721  1.0000
  C   C355      1.0  0.10677  0.49313  0.56078  1.0000
  H   H629      1.0  0.01858  0.59228  0.61556  1.0000
  C   C356      1.0  0.38745  0.95786  0.60310  1.0000
  H   H630      1.0  0.31621  0.74240  0.31386  1.0000
  H   H631      1.0  0.99914  0.52887  0.50627  1.0000
  Fe  Fe42      1.0  0.03809  0.48282  0.31269  1.0000
  C   C357      1.0  0.32994  0.49209  0.49440  1.0000
  C   C358      1.0  0.39139  0.67912  0.55499  1.0000
  H   H632      1.0  0.40181  0.62956  0.57118  1.0000
  H   H633      1.0  0.39198  0.70021  0.54589  1.0000
  C   C359      1.0  0.42085  0.69556  0.58402  1.0000
  H   H634      1.0  0.47317  0.63990  0.45699  1.0000
  C   C360      1.0  0.39147  0.96796  0.31808  1.0000
  C   C361      1.0  0.09133  0.48218  0.35722  1.0000
  H   H635      1.0  0.00571  0.54422  0.36841  1.0000
  C   C362      1.0  0.47743  0.69073  0.52349  1.0000
  N   N21       1.0  0.08050  0.57490  0.62667  1.0000
  H   H636      1.0  0.46099  0.86656  0.54793  1.0000
  C   C363      1.0  0.23715  0.49284  0.37903  1.0000
  C   C364      1.0  0.04238  0.51153  0.41394  1.0000
  H   H637      1.0  0.08953  0.48992  0.43506  1.0000
  H   H638      1.0  0.38508  0.50851  0.50247  1.0000
  C   C365      1.0  0.45008  0.85112  0.55878  1.0000
  H   H639      1.0  0.27336  0.49513  0.47258  1.0000
  H   H640      1.0  0.42653  0.49939  0.47725  1.0000
  C   C366      1.0  0.29214  0.49456  0.42892  1.0000
  C   C367      1.0  0.36185  0.97685  0.31563  1.0000
  Fe  Fe43      1.0  0.02594  0.49670  0.61435  1.0000
  H   H641      1.0  0.16252  0.52876  0.62115  1.0000
  H   H642      1.0  0.09234  0.52870  0.62827  1.0000
  S   S84       1.0  0.44249  0.85241  0.63583  1.0000
  H   H643      1.0  0.35084  0.72040  0.31159  1.0000
  C   C368      1.0  0.48500  0.62198  0.46576  1.0000
  H   H644      1.0  0.45051  0.94016  0.52190  1.0000
  H   H645      1.0  0.46866  0.69015  0.58760  1.0000
  H   H646      1.0  0.00256  0.54096  0.40888  1.0000
  H   H647      1.0  0.25655  0.96836  0.31314  1.0000
  C   C369      1.0  0.07011  0.49368  0.44620  1.0000
  H   H648      1.0  0.33015  0.47793  0.44639  1.0000
  H   H649      1.0  0.48483  0.95534  0.62362  1.0000
  H   H650      1.0  0.48499  0.97190  0.30618  1.0000
  S   S85       1.0  0.01769  0.52849  0.30719  1.0000
  H   H651      1.0  0.45288  0.93013  0.30624  1.0000
  H   H652      1.0  0.37876  0.89398  0.83493  1.0000
  C   C370      1.0  0.37701  0.91914  0.80317  1.0000
  H   H653      1.0  0.99088  0.53789  0.70334  1.0000
  S   S86       1.0  0.45261  0.96305  0.83548  1.0000
  N   N22       1.0  0.39930  0.89926  0.79093  1.0000
  S   S87       1.0  0.32000  0.90232  0.66201  1.0000
  S   S88       1.0  0.40245  0.90381  0.66159  1.0000
  H   H654      1.0  0.39596  0.95149  0.76515  1.0000
  C   C371      1.0  0.02517  0.86864  0.94420  1.0000
  H   H655      1.0  0.27583  0.94854  0.72828  1.0000
  H   H656      1.0  0.04097  0.54240  0.68389  1.0000
  S   S89       1.0  0.06396  0.91000  0.94291  1.0000
  H   H657      1.0  0.35035  0.86938  0.80864  1.0000
  C   C372      1.0  0.40420  0.93218  0.75576  1.0000
  C   C373      1.0  0.42933  0.90592  0.79677  1.0000
  C   C374      1.0  0.03014  0.89668  0.95017  1.0000
  H   H658      1.0  0.34791  0.95573  0.83308  1.0000
  H   H659      1.0  0.35531  0.86460  0.77942  1.0000
  H   H660      1.0  0.09115  0.55186  0.67061  1.0000
  Fe  Fe44      1.0  0.28690  0.96466  0.77719  1.0000
  H   H661      1.0  0.27891  0.93873  0.68812  1.0000
  H   H662      1.0  0.18720  0.95419  0.93542  1.0000
  C   C375      1.0  0.46047  0.90418  0.71191  1.0000
  H   H663      1.0  0.45956  0.94825  0.67920  1.0000
  H   H664      1.0  0.37082  0.90428  0.76334  1.0000
  H   H665      1.0  0.42830  0.93115  0.75483  1.0000
  H   H666      1.0  0.47024  0.94690  0.72082  1.0000
  H   H667      1.0  0.08068  0.93395  0.89807  1.0000
  H   H668      1.0  0.21823  0.92734  0.93494  1.0000
  S   S90       1.0  0.38410  0.83615  0.66261  1.0000
  C   C376      1.0  0.31124  0.91659  0.73642  1.0000
  H   H669      1.0  0.43276  0.90231  0.81477  1.0000
  C   C377      1.0  0.29430  0.92724  0.69916  1.0000
  H   H670      1.0  0.44102  0.91183  0.70318  1.0000
  S   S91       1.0  0.30939  0.92231  0.76510  1.0000
  H   H671      1.0  0.33084  0.92245  0.83504  1.0000
  H   H672      1.0  0.43185  0.92928  0.79367  1.0000
  H   H673      1.0  0.12911  0.94945  0.86493  1.0000
  C   C378      1.0  0.09364  0.94904  0.88844  1.0000
  H   H674      1.0  0.03256  0.58086  0.68765  1.0000
  C   C379      1.0  0.31624  0.90725  0.69068  1.0000
  C   C380      1.0  0.33509  0.89134  0.70519  1.0000
  C   C381      1.0  0.33198  0.89533  0.72799  1.0000
  H   H675      1.0  0.35171  0.87545  0.69888  1.0000
  H   H676      1.0  0.34585  0.88190  0.73899  1.0000
  S   S92       1.0  0.02214  0.49533  0.65163  1.0000
  N   N23       1.0  0.14100  0.91349  0.88763  1.0000
  C   C382      1.0  0.16034  0.89653  0.87109  1.0000
  C   C383      1.0  0.12486  0.89349  0.90263  1.0000
  C   C384      1.0  0.11863  0.93263  0.87473  1.0000
  C   C385      1.0  0.15797  0.93260  0.90091  1.0000
  C   C386      1.0  0.18256  0.91717  0.91503  1.0000
  C   C387      1.0  0.17796  0.91460  0.85445  1.0000
  C   C388      1.0  0.39609  0.86797  0.79693  1.0000
  C   C389      1.0  0.14053  0.86327  0.90867  1.0000
  C   C390      1.0  0.12344  0.84790  0.92667  1.0000
  C   C391      1.0  0.20090  0.93898  0.92478  1.0000
  C   C392      1.0  0.19697  0.89506  0.83891  1.0000
  Fe  Fe45      1.0  0.42323  0.85936  0.66980  1.0000
  H   H677      1.0  0.14698  0.88310  0.86134  1.0000
  H   H678      1.0  0.17650  0.88091  0.87940  1.0000
  H   H679      1.0  0.11801  0.90447  0.91827  1.0000
  H   H680      1.0  0.10424  0.88867  0.89501  1.0000
  H   H681      1.0  0.10829  0.91968  0.86254  1.0000
  H   H682      1.0  0.21140  0.95152  0.91142  1.0000
  H   H683      1.0  0.16739  0.94903  0.88999  1.0000
  H   H684      1.0  0.14340  0.94536  0.91265  1.0000
  H   H685      1.0  0.19749  0.90215  0.90521  1.0000
  H   H686      1.0  0.17301  0.90516  0.92911  1.0000
  H   H687      1.0  0.16344  0.92935  0.84393  1.0000
  H   H688      1.0  0.19268  0.92766  0.86310  1.0000
  H   H689      1.0  0.37351  0.81917  0.81583  1.0000
  H   H690      1.0  0.48387  0.92131  0.78083  1.0000
  H   H691      1.0  0.14215  0.84954  0.89394  1.0000
  H   H692      1.0  0.16278  0.86449  0.91457  1.0000
  H   H693      1.0  0.35463  0.91614  0.79796  1.0000
  H   H694      1.0  0.45639  0.86492  0.79174  1.0000
  H   H695      1.0  0.13458  0.82605  0.93036  1.0000
  H   H696      1.0  0.11336  0.64633  0.65329  1.0000
  H   H697      1.0  0.36936  0.94348  0.73278  1.0000
  C   C393      1.0  0.45478  0.88753  0.78505  1.0000
  H   H698      1.0  0.21300  0.88045  0.84834  1.0000
  H   H699      1.0  0.18336  0.88198  0.82919  1.0000
  H   H700      1.0  0.20912  0.90865  0.82721  1.0000
  Fe  Fe46      1.0  0.07621  0.95316  0.95476  1.0000
  C   C394      1.0  0.99984  0.85625  0.95164  1.0000
  C   C395      1.0  0.37773  0.91671  0.82873  1.0000
  H   H701      1.0  0.04248  0.58976  0.64667  1.0000
  H   H702      1.0  0.41014  0.85363  0.78577  1.0000
  H   H703      1.0  0.04132  0.85611  0.93427  1.0000
  S   S93       1.0  0.45031  0.84871  0.70013  1.0000
  H   H704      1.0  0.37947  0.94203  0.79857  1.0000
  C   C396      1.0  0.47694  0.92394  0.72199  1.0000
  C   C397      1.0  0.39433  0.90397  0.76654  1.0000
  H   H705      1.0  0.08074  0.59032  0.67326  1.0000
  C   C398      1.0  0.46437  0.95623  0.66216  1.0000
  H   H706      1.0  0.04820  0.55166  0.64406  1.0000
  H   H707      1.0  0.39695  0.92639  0.83470  1.0000
  C   C399      1.0  0.36482  0.85875  0.79574  1.0000
  Fe  Fe47      1.0  0.36434  0.88078  0.65242  1.0000
  H   H708      1.0  0.35244  0.93256  0.85735  1.0000
  H   H709      1.0  0.10107  0.84548  0.92121  1.0000
  S   S94       1.0  0.28101  0.97114  0.81378  1.0000
  H   H710      1.0  0.99682  0.83426  0.94764  1.0000
  C   C400      1.0  0.35055  0.93286  0.83913  1.0000
  C   C401      1.0  0.46959  0.87449  0.71276  1.0000
  H   H711      1.0  0.06236  0.95381  0.86196  1.0000
  H   H712      1.0  0.12190  0.86037  0.94204  1.0000
  S   S95       1.0  0.12332  0.95727  0.96089  1.0000
  C   C402      1.0  0.48371  0.89952  0.78887  1.0000
  H   H713      1.0  0.34200  0.82022  0.79881  1.0000
  H   H714      1.0  0.34258  0.97354  0.67580  1.0000
  C   C403      1.0  0.00892  0.91271  0.96284  1.0000
  C   C404      1.0  0.13022  0.63434  0.64275  1.0000
  C   C405      1.0  0.29236  0.93259  0.72191  1.0000
  H   H715      1.0  0.40499  0.88562  0.75692  1.0000
  H   H716      1.0  0.37785  0.81435  0.78632  1.0000
  H   H717      1.0  0.03591  0.48975  0.77286  1.0000
  H   H718      1.0  0.40431  0.86221  0.81374  1.0000
  C   C406      1.0  0.36468  0.82609  0.79944  1.0000
  H   H719      1.0  0.47422  0.89723  0.66354  1.0000
  H   H720      1.0  0.01229  0.49860  0.74971  1.0000
  H   H721      1.0  0.39665  0.91614  0.72308  1.0000
  C   C407      1.0  0.05977  0.57131  0.64607  1.0000
  C   C408      1.0  0.39305  0.93651  0.73228  1.0000
  C   C409      1.0  0.01857  0.48212  0.76286  1.0000
  H   H722      1.0  0.45199  0.88699  0.76698  1.0000
  H   H723      1.0  0.15147  0.63378  0.65096  1.0000
  H   H724      1.0  0.40468  0.95321  0.72326  1.0000
  C   C410      1.0  0.05033  0.56292  0.68709  1.0000
  H   H725      1.0  0.99484  0.55773  0.80665  1.0000
  H   H726      1.0  0.99660  0.50787  0.80165  1.0000
  H   H727      1.0  0.10232  0.96366  0.90006  1.0000
  H   H728      1.0  0.40831  0.97407  0.67661  1.0000
  H   H729      1.0  0.06054  0.56077  0.70350  1.0000
  H   H730      1.0  0.40756  0.97157  0.64702  1.0000
  C   C411      1.0  0.07305  0.56931  0.66929  1.0000
  C   C412      1.0  0.07268  0.96758  0.87346  1.0000
  H   H731      1.0  0.45439  0.94172  0.65097  1.0000
  H   H732      1.0  0.12226  0.59250  0.65603  1.0000
  H   H733      1.0  0.99413  0.57113  0.83422  1.0000
  H   H734      1.0  0.99107  0.66027  0.81230  1.0000
  H   H735      1.0  0.01217  0.93452  0.96716  1.0000
  H   H736      1.0  0.29436  0.96388  0.65490  1.0000
  H   H737      1.0  0.22785  0.95491  0.96792  1.0000
  C   C413      1.0  0.12274  0.60347  0.63961  1.0000
  H   H738      1.0  0.11760  0.54854  0.64051  1.0000
  H   H739      1.0  0.65032  0.41666  0.22998  1.0000
  H   H740      1.0  0.95141  0.42013  0.05861  1.0000
  S   S96       1.0  0.52015  0.03708  0.12858  1.0000
  H   H741      1.0  0.79666  0.09348  0.05028  1.0000
  Fe  Fe48      1.0  0.51662  0.02598  0.16475  1.0000
  S   S97       1.0  0.53464  0.05627  0.18778  1.0000
  H   H742      1.0  0.82146  0.24336  0.11039  1.0000
  H   H743      1.0  0.64244  0.46357  0.23789  1.0000
  H   H744      1.0  0.85999  0.23381  0.10564  1.0000
  Fe  Fe49      1.0  0.89016  0.32708  0.12660  1.0000
  S   S98       1.0  0.91681  0.36394  0.11833  1.0000
  S   S99       1.0  0.89688  0.28493  0.10772  1.0000
  Fe  Fe50      1.0  0.86145  0.35822  0.16683  1.0000
  S   S100      1.0  0.88497  0.39779  0.16104  1.0000
  S   S101      1.0  0.83531  0.35394  0.19859  1.0000
  Fe  Fe51      1.0  0.87561  0.39203  0.12546  1.0000
  S   S102      1.0  0.86264  0.43064  0.10347  1.0000
  Fe  Fe52      1.0  0.92411  0.36658  0.15466  1.0000
  C   C414      1.0  0.59157  0.99471  0.08069  1.0000
  S   S103      1.0  0.84800  0.35524  0.13159  1.0000
  S   S104      1.0  0.90142  0.32693  0.16258  1.0000
  H   H745      1.0  0.64661  0.98649  0.04166  1.0000
  Fe  Fe53      1.0  0.66084  0.02405  0.99429  1.0000
  S   S105      1.0  0.62945  0.04322  0.02094  1.0000
  H   H746      1.0  0.54504  0.07798  0.09741  1.0000
  C   C415      1.0  0.95847  0.37259  0.06461  1.0000
  S   S106      1.0  0.87047  0.27091  0.00616  1.0000
  H   H747      1.0  0.77723  0.11715  0.06981  1.0000
  N   N24       1.0  0.88704  0.38134  0.25930  1.0000
  H   H748      1.0  0.69840  0.41349  0.24177  1.0000
  S   S107      1.0  0.89303  0.18502  0.99240  1.0000
  H   H749      1.0  0.91635  0.17580  0.03881  1.0000
  H   H750      1.0  0.84189  0.39472  0.26844  1.0000
  H   H751      1.0  0.78281  0.41834  0.25153  1.0000
  H   H752      1.0  0.81234  0.37905  0.30157  1.0000
  C   C416      1.0  0.88738  0.38813  0.05113  1.0000
  C   C417      1.0  0.70076  0.41223  0.25993  1.0000
  H   H753      1.0  0.76772  0.43983  0.13057  1.0000
  C   C418      1.0  0.91293  0.44949  0.11743  1.0000
  H   H754      1.0  0.91989  0.42709  0.12139  1.0000
  H   H755      1.0  0.76297  0.43666  0.18346  1.0000
  H   H756      1.0  0.60844  0.11160  0.18952  1.0000
  H   H757      1.0  0.88422  0.39393  0.03343  1.0000
  C   C419      1.0  0.81309  0.00582  0.98441  1.0000
  C   C420      1.0  0.88797  0.35205  0.24904  1.0000
  H   H758      1.0  0.92996  0.40627  0.08121  1.0000
  H   H759      1.0  0.89220  0.33434  0.26154  1.0000
  C   C421      1.0  0.87468  0.43582  0.24822  1.0000
  C   C422      1.0  0.81088  0.38388  0.20570  1.0000
  C   C423      1.0  0.80543  0.38970  0.22803  1.0000
  C   C424      1.0  0.91567  0.38579  0.26939  1.0000
  C   C425      1.0  0.77544  0.42408  0.19586  1.0000
  C   C426      1.0  0.79608  0.40131  0.18957  1.0000
  H   H760      1.0  0.81607  0.37567  0.24052  1.0000
  H   H761      1.0  0.96700  0.26365  0.06436  1.0000
  H   H762      1.0  0.79974  0.39647  0.17234  1.0000
  C   C427      1.0  0.88781  0.28041  0.07988  1.0000
  C   C428      1.0  0.87018  0.30149  0.06822  1.0000
  C   C429      1.0  0.86461  0.29785  0.04581  1.0000
  C   C430      1.0  0.87646  0.27307  0.03481  1.0000
  C   C431      1.0  0.89348  0.25155  0.04661  1.0000
  C   C432      1.0  0.89901  0.25518  0.06906  1.0000
  H   H763      1.0  0.86100  0.32067  0.07651  1.0000
  H   H764      1.0  0.85121  0.31448  0.03687  1.0000
  H   H765      1.0  0.90315  0.23259  0.03828  1.0000
  H   H766      1.0  0.91268  0.23872  0.07796  1.0000
  C   C433      1.0  0.51101  0.97981  0.25047  1.0000
  C   C434      1.0  0.52052  0.10513  0.21083  1.0000
  H   H767      1.0  0.85110  0.18345  0.09826  1.0000
  H   H768      1.0  0.76837  0.24864  0.02173  1.0000
  H   H769      1.0  0.51026  0.14417  0.22880  1.0000
  H   H770      1.0  0.58406  0.01813  0.15768  1.0000
  H   H771      1.0  0.54278  0.10943  0.20730  1.0000
  H   H772      1.0  0.80644  0.22534  0.07346  1.0000
  C   C435      1.0  0.86236  0.38529  0.27626  1.0000
  S   S108      1.0  0.70986  0.02070  0.99364  1.0000
  H   H773      1.0  0.95620  0.39279  0.30133  1.0000
  C   C436      1.0  0.77091  0.43053  0.21819  1.0000
  H   H774      1.0  0.92391  0.14621  0.05834  1.0000
  C   C437      1.0  0.61540  0.02396  0.04384  1.0000
  C   C438      1.0  0.59104  0.03670  0.05564  1.0000
  C   C439      1.0  0.57901  0.02204  0.07385  1.0000
  H   H775      1.0  0.58130  0.05794  0.05056  1.0000
  H   H776      1.0  0.56011  0.03189  0.08263  1.0000
  H   H777      1.0  0.50218  0.09862  0.15082  1.0000
  H   H778      1.0  0.93357  0.38455  0.25677  1.0000
  H   H779      1.0  0.59782  0.41430  0.23983  1.0000
  H   H780      1.0  0.80432  0.42610  0.13823  1.0000
  H   H781      1.0  0.84286  0.34411  0.27788  1.0000
  N   N25       1.0  0.94046  0.36283  0.04636  1.0000
  H   H782      1.0  0.49980  0.00168  0.98889  1.0000
  H   H783      1.0  0.85393  0.16681  0.03044  1.0000
  H   H784      1.0  0.84416  0.22579  0.06770  1.0000
  H   H785      1.0  0.95184  0.46480  0.12933  1.0000
  C   C440      1.0  0.83272  0.20052  0.09686  1.0000
  H   H786      1.0  0.54348  0.10225  0.12029  1.0000
  H   H787      1.0  0.86272  0.39861  0.23114  1.0000
  H   H788      1.0  0.49794  0.98736  0.02329  1.0000
  C   C441      1.0  0.83924  0.22542  0.11119  1.0000
  H   H789      1.0  0.78992  0.09813  0.00684  1.0000
  H   H790      1.0  0.89422  0.44386  0.25515  1.0000
  H   H791      1.0  0.57976  0.06677  0.98158  1.0000
  H   H792      1.0  0.52198  0.00529  0.06692  1.0000
  C   C442      1.0  0.64655  0.41431  0.26671  1.0000
  H   H793      1.0  0.97172  0.36459  0.28333  1.0000
  H   H794      1.0  0.93296  0.34887  0.23492  1.0000
  H   H795      1.0  0.68225  0.40094  0.30151  1.0000
  S   S109      1.0  0.82786  0.13974  0.99046  1.0000
  H   H796      1.0  0.80537  0.18546  0.02393  1.0000
  H   H797      1.0  0.68877  0.06202  0.08679  1.0000
  C   C443      1.0  0.64574  0.06235  0.12017  1.0000
  C   C444      1.0  0.90732  0.15681  0.04702  1.0000
  C   C445      1.0  0.91090  0.31489  0.22232  1.0000
  H   H798      1.0  0.55327  0.11466  0.09289  1.0000
  C   C446      1.0  0.95136  0.40397  0.07243  1.0000
  C   C447      1.0  0.78843  0.24254  0.01175  1.0000
  C   C448      1.0  0.55977  0.01528  0.99801  1.0000
  H   H799      1.0  0.51813  0.01648  0.22713  1.0000
  C   C449      1.0  0.86560  0.45530  0.22835  1.0000
  H   H800      1.0  0.82667  0.15219  0.07933  1.0000
  H   H801      1.0  0.63493  0.11336  0.14243  1.0000
  H   H802      1.0  0.72169  0.37915  0.28245  1.0000
  H   H803      1.0  0.60251  0.98054  0.01291  1.0000
  C   C450      1.0  0.79892  0.11090  0.06205  1.0000
  C   C451      1.0  0.51362  0.98874  0.97694  1.0000
  H   H804      1.0  0.84264  0.40327  0.05973  1.0000
  C   C452      1.0  0.95198  0.40787  0.20204  1.0000
  H   H805      1.0  0.90007  0.40366  0.22932  1.0000
  H   H806      1.0  0.59805  0.08065  0.09300  1.0000
  H   H807      1.0  0.93697  0.12036  0.97319  1.0000
  Fe  Fe54      1.0  0.85465  0.17319  0.97351  1.0000
  H   H808      1.0  0.86624  0.34919  0.24237  1.0000
  H   H809      1.0  0.86718  0.40140  0.28849  1.0000
  H   H810      1.0  0.91668  0.29922  0.23610  1.0000
  C   C453      1.0  0.88125  0.40392  0.24107  1.0000
  C   C454      1.0  0.70896  0.38011  0.26711  1.0000
  H   H811      1.0  0.62895  0.03860  0.09310  1.0000
  H   H812      1.0  0.92737  0.31107  0.20877  1.0000
  H   H813      1.0  0.89555  0.43892  0.30236  1.0000
  C   C455      1.0  0.78640  0.41367  0.23425  1.0000
  H   H814      1.0  0.79458  0.14361  0.03652  1.0000
  H   H815      1.0  0.90308  0.14109  0.03436  1.0000
  H   H816      1.0  0.60651  0.37857  0.25224  1.0000
  H   H817      1.0  0.85676  0.43858  0.26075  1.0000
  H   H818      1.0  0.59674  0.11251  0.14995  1.0000
  H   H819      1.0  0.95647  0.35862  0.07970  1.0000
  N   N26       1.0  0.82600  0.18822  0.05547  1.0000
  C   C456      1.0  0.48990  0.04481  0.26328  1.0000
  H   H820      1.0  0.81432  0.10223  0.07495  1.0000
  H   H821      1.0  0.90839  0.35342  0.07165  1.0000
  C   C457      1.0  0.98356  0.41392  0.23292  1.0000
  H   H822      1.0  0.83290  0.22598  0.01610  1.0000
  C   C458      1.0  0.85749  0.38299  0.06103  1.0000
  C   C459      1.0  0.72769  0.36371  0.24954  1.0000
  H   H823      1.0  0.64423  0.06493  0.16503  1.0000
  Fe  Fe55      1.0  0.87689  0.23132  0.98443  1.0000
  C   C460      1.0  0.82732  0.21107  0.07262  1.0000
  C   C461      1.0  0.62419  0.11860  0.17672  1.0000
  C   C462      1.0  0.95373  0.33302  0.04007  1.0000
  H   H824      1.0  0.58548  0.04191  0.11767  1.0000
  H   H825      1.0  0.83151  0.12911  0.04182  1.0000
  C   C463      1.0  0.81345  0.16184  0.06550  1.0000
  C   C464      1.0  0.88589  0.45724  0.10803  1.0000
  C   C465      1.0  0.93101  0.47084  0.12205  1.0000
  H   H826      1.0  0.60567  0.06630  0.16891  1.0000
  S   S110      1.0  0.75344  0.45853  0.29132  1.0000
  H   H827      1.0  0.85915  0.37642  0.07877  1.0000
  S   S111      1.0  0.74489  0.45881  0.22592  1.0000
  C   C466      1.0  0.61331  0.39442  0.23949  1.0000
  C   C467      1.0  0.87945  0.16630  0.06011  1.0000
  H   H828      1.0  0.91521  0.40805  0.27553  1.0000
  H   H829      1.0  0.88926  0.31113  0.21604  1.0000
  H   H830      1.0  0.75347  0.07120  0.98900  1.0000
  H   H831      1.0  0.66225  0.02203  0.10415  1.0000
  H   H832      1.0  0.57478  0.06479  0.13960  1.0000
  N   N27       1.0  0.67439  0.42715  0.27163  1.0000
  Fe  Fe56      1.0  0.53788  0.99083  0.12496  1.0000
  N   N28       1.0  0.62147  0.05514  0.13598  1.0000
  H   H833      1.0  0.65499  0.47134  0.27533  1.0000
  C   C468      1.0  0.94287  0.38276  0.02640  1.0000
  H   H834      1.0  0.59696  0.10630  0.11427  1.0000
  C   C469      1.0  0.85557  0.18073  0.04484  1.0000
  H   H835      1.0  0.90911  0.36333  0.00821  1.0000
  C   C470      1.0  0.65007  0.04315  0.09961  1.0000
  H   H836      1.0  0.94636  0.40634  0.98367  1.0000
  H   H837      1.0  0.64287  0.08526  0.11435  1.0000
  H   H838      1.0  0.97458  0.31457  0.07034  1.0000
  H   H839      1.0  0.66687  0.06021  0.12881  1.0000
  C   C471      1.0  0.64424  0.40168  0.24346  1.0000
  H   H840      1.0  0.88342  0.45418  0.21571  1.0000
  H   H841      1.0  0.78369  0.22678  0.99927  1.0000
  H   H842      1.0  0.70008  0.43307  0.30023  1.0000
  S   S112      1.0  0.53705  0.98031  0.16156  1.0000
  H   H843      1.0  0.78291  0.20380  0.04449  1.0000
  C   C472      1.0  0.79124  0.44134  0.12703  1.0000
  C   C473      1.0  0.62684  0.02321  0.14197  1.0000
  H   H844      1.0  0.88519  0.18203  0.07223  1.0000
  H   H845      1.0  0.80281  0.02840  0.98590  1.0000
  H   H846      1.0  0.90519  0.36035  0.21528  1.0000
  C   C474      1.0  0.90927  0.36070  0.05400  1.0000
  H   H847      1.0  0.94879  0.27373  0.03899  1.0000
  C   C475      1.0  0.93019  0.37239  0.00492  1.0000
  C   C476      1.0  0.95710  0.30994  0.05917  1.0000
  H   H848      1.0  0.86425  0.20054  0.03774  1.0000
  H   H849      1.0  0.84149  0.21769  0.12863  1.0000
  C   C477      1.0  0.81028  0.13681  0.04965  1.0000
  C   C478      1.0  0.91060  0.34595  0.22988  1.0000
  C   C479      1.0  0.97403  0.38957  0.19191  1.0000
  H   H850      1.0  0.93939  0.43295  0.23084  1.0000
  C   C480      1.0  0.50212  0.12478  0.22306  1.0000
  H   H851      1.0  0.81656  0.24625  0.03870  1.0000
  H   H852      1.0  0.69295  0.46812  0.26946  1.0000
  C   C481      1.0  0.80565  0.20066  0.03771  1.0000
  H   H853      1.0  0.94035  0.32396  0.02748  1.0000
  H   H854      1.0  0.89977  0.34359  0.04498  1.0000
  C   C482      1.0  0.51469  0.99745  0.03225  1.0000
  H   H855      1.0  0.87245  0.14682  0.06890  1.0000
  C   C483      1.0  0.81295  0.22972  0.02658  1.0000
  H   H856      1.0  0.81293  0.19159  0.10396  1.0000
  H   H857      1.0  0.79509  0.26225  0.00294  1.0000
  H   H858      1.0  0.93659  0.30949  0.06901  1.0000
  H   H859      1.0  0.79151  0.16830  0.07293  1.0000
  C   C484      1.0  0.79048  0.98596  0.99398  1.0000
  H   H860      1.0  0.61244  0.38476  0.22304  1.0000
  H   H861      1.0  0.56702  0.99085  0.23595  1.0000
  C   C485      1.0  0.58741  0.08688  0.10901  1.0000
  H   H862      1.0  0.96894  0.43436  0.09361  1.0000
  C   C486      1.0  0.51023  0.08024  0.20293  1.0000
  C   C487      1.0  0.95682  0.42007  0.22248  1.0000
  H   H863      1.0  0.62368  0.00998  0.12737  1.0000
  H   H864      1.0  0.93225  0.40473  0.02966  1.0000
  H   H865      1.0  0.68939  0.36856  0.27060  1.0000
  H   H866      1.0  0.84791  0.36593  0.05207  1.0000
  C   C488      1.0  0.55530  0.09587  0.10473  1.0000
  H   H867      1.0  0.51382  0.02080  0.02769  1.0000
  H   H868      1.0  0.90923  0.41429  0.99381  1.0000
  H   H869      1.0  0.89469  0.40712  0.05902  1.0000
  H   H870      1.0  0.53813  0.02779  0.99682  1.0000
  H   H871      1.0  0.72027  0.42381  0.26261  1.0000
  C   C489      1.0  0.57740  0.02095  0.97640  1.0000
  H   H872      1.0  0.62757  0.43074  0.26932  1.0000
  C   C490      1.0  0.67947  0.42414  0.29618  1.0000
  C   C491      1.0  0.78630  0.10133  0.98936  1.0000
  H   H873      1.0  0.93108  0.41210  0.19438  1.0000
  C   C492      1.0  0.50647  0.99500  0.05682  1.0000
  C   C493      1.0  0.85363  0.35791  0.28912  1.0000
  H   H874      1.0  0.96614  0.38593  0.02272  1.0000
  H   H875      1.0  0.57055  0.02565  0.01144  1.0000
  C   C494      1.0  0.96548  0.27972  0.05036  1.0000
  H   H876      1.0  0.71581  0.36351  0.23389  1.0000
  H   H877      1.0  0.55990  0.99317  0.20693  1.0000
  C   C495      1.0  0.97385  0.41152  0.08879  1.0000
  H   H878      1.0  0.67062  0.04239  0.06702  1.0000
  H   H879      1.0  0.64288  0.39622  0.27866  1.0000
  C   C496      1.0  0.61935  0.10501  0.15467  1.0000
  C   C497      1.0  0.67233  0.45905  0.26545  1.0000
  H   H880      1.0  0.79633  0.43472  0.10981  1.0000
  C   C498      1.0  0.61231  0.97873  0.16321  1.0000
  C   C499      1.0  0.92489  0.36532  0.28915  1.0000
  H   H881      1.0  0.65887  0.38138  0.24189  1.0000
  H   H882      1.0  0.64671  0.11239  0.18232  1.0000
  C   C500      1.0  0.66719  0.05729  0.08103  1.0000
  H   H883      1.0  0.65489  0.07761  0.07490  1.0000
  C   C501      1.0  0.59162  0.06120  0.12617  1.0000
  H   H884      1.0  0.60101  0.01586  0.97926  1.0000
  C   C502      1.0  0.76566  0.08599  0.97928  1.0000
  H   H885      1.0  0.62086  0.14255  0.17483  1.0000
  C   C503      1.0  0.62316  0.07160  0.15689  1.0000
  S   S113      1.0  0.96893  0.37229  0.16693  1.0000
  H   H886      1.0  0.73343  0.34101  0.25536  1.0000
  H   H887      1.0  0.51216  0.04278  0.25587  1.0000
  C   C504      1.0  0.61596  0.98200  0.06893  1.0000
  H   H888      1.0  0.97571  0.33422  0.03220  1.0000
  H   H889      1.0  0.74814  0.37389  0.24632  1.0000
  N   N29       1.0  0.55713  0.98385  0.00402  1.0000
  H   H890      1.0  0.98344  0.47674  0.20585  1.0000
  H   H891      1.0  0.68013  0.45542  0.22936  1.0000
  H   H892      1.0  0.64988  0.01760  0.14679  1.0000
  C   C505      1.0  0.80217  0.12087  0.97701  1.0000
  H   H893      1.0  0.49992  0.01035  0.28688  1.0000
  H   H894      1.0  0.61275  0.02023  0.17695  1.0000
  C   C506      1.0  0.52115  0.99258  0.22786  1.0000
  H   H895      1.0  0.52790  0.98282  0.26270  1.0000
  C   C507      1.0  0.62779  0.99649  0.05054  1.0000
  C   C508      1.0  0.60737  0.01171  0.16084  1.0000
  C   C509      1.0  0.66520  0.46755  0.24115  1.0000
  H   H896      1.0  0.77173  0.01645  0.01834  1.0000
  C   C510      1.0  0.48855  0.06885  0.27996  1.0000
  H   H897      1.0  0.95754  0.07003  0.98214  1.0000
  H   H898      1.0  0.94556  0.35513  0.99759  1.0000
  H   H899      1.0  0.83179  0.00409  0.99571  1.0000
  H   H900      1.0  0.98196  0.36995  0.05954  1.0000
  H   H901      1.0  0.90977  0.36987  0.30343  1.0000
  H   H902      1.0  0.87258  0.34474  0.29622  1.0000
  H   H903      1.0  0.91738  0.38864  0.97232  1.0000
  H   H904      1.0  0.84560  0.44852  0.22111  1.0000
  H   H905      1.0  0.76506  0.97935  0.02396  1.0000
  C   C511      1.0  0.92556  0.39701  0.98767  1.0000
  S   S114      1.0  0.98607  0.41981  0.26141  1.0000
  H   H906      1.0  0.50852  0.98466  0.21435  1.0000
  C   C512      1.0  0.97104  0.08486  0.97372  1.0000
  S   S115      1.0  0.65895  0.97991  0.98113  1.0000
  H   H907      1.0  0.97324  0.39746  0.10395  1.0000
  H   H908      1.0  0.49409  0.08925  0.27155  1.0000
  C   C513      1.0  0.55330  0.98331  0.22299  1.0000
  H   H909      1.0  0.92527  0.34231  0.28488  1.0000
  H   H910      1.0  0.98459  0.43134  0.14663  1.0000
  H   H911      1.0  0.50417  0.06313  0.29338  1.0000
  H   H912      1.0  0.56063  0.98927  0.03903  1.0000
  H   H913      1.0  0.89349  0.47275  0.18152  1.0000
  C   C514      1.0  0.78153  0.99366  0.01767  1.0000
  H   H914      1.0  0.84091  0.46873  0.17596  1.0000
  H   H915      1.0  0.82273  0.47197  0.12680  1.0000
  C   C515      1.0  0.79902  0.47220  0.12978  1.0000
  C   C516      1.0  0.54512  0.98149  0.02738  1.0000
  C   C517      1.0  0.95529  0.36997  0.29668  1.0000
  H   H916      1.0  0.80062  0.99050  0.02853  1.0000
  H   H917      1.0  0.77051  0.98839  0.98414  1.0000
  H   H918      1.0  0.79722  0.46599  0.16533  1.0000
  Fe  Fe57      1.0  0.70760  0.97789  0.97770  1.0000
  Fe  Fe58      1.0  0.79604  0.47636  0.29610  1.0000
  H   H919      1.0  0.88410  0.47492  0.15319  1.0000
  S   S116      1.0  0.67215  0.47673  0.42385  1.0000
  S   S117      1.0  0.61732  0.44576  0.46696  1.0000
  S   S118      1.0  0.73939  0.45490  0.62895  1.0000
  C   C518      1.0  0.49390  0.39833  0.44471  1.0000
  H   H920      1.0  0.95122  0.40863  0.61744  1.0000
  H   H921      1.0  0.85748  0.43579  0.56792  1.0000
  H   H922      1.0  0.82537  0.34629  0.31653  1.0000
  H   H923      1.0  0.60027  0.42852  0.63543  1.0000
  C   C519      1.0  0.66053  0.42960  0.33573  1.0000
  H   H924      1.0  0.61238  0.40410  0.57691  1.0000
  C   C520      1.0  0.51665  0.40247  0.47969  1.0000
  H   H925      1.0  0.51197  0.26569  0.34743  1.0000
  C   C521      1.0  0.50646  0.28523  0.42899  1.0000
  H   H926      1.0  0.51986  0.30340  0.37471  1.0000
  H   H927      1.0  0.64342  0.44087  0.34647  1.0000
  H   H928      1.0  0.53237  0.41157  0.48960  1.0000
  H   H929      1.0  0.66988  0.37794  0.63844  1.0000
  H   H930      1.0  0.62334  0.44345  0.59981  1.0000
  H   H931      1.0  0.55639  0.30904  0.43469  1.0000
  C   C522      1.0  0.57106  0.34871  0.42220  1.0000
  H   H932      1.0  0.52824  0.27273  0.43017  1.0000
  S   S119      1.0  0.53634  0.43568  0.44432  1.0000
  H   H933      1.0  0.66399  0.44008  0.56471  1.0000
  H   H934      1.0  0.62442  0.39653  0.63696  1.0000
  H   H935      1.0  0.53903  0.27781  0.39246  1.0000
  H   H936      1.0  0.55992  0.36201  0.43544  1.0000
  H   H937      1.0  0.53373  0.23955  0.36454  1.0000
  H   H938      1.0  0.49094  0.26861  0.42738  1.0000
  H   H939      1.0  0.57157  0.36212  0.40671  1.0000
  C   C523      1.0  0.55550  0.32170  0.41887  1.0000
  C   C524      1.0  0.77753  0.44648  0.55078  1.0000
  H   H940      1.0  0.56789  0.30871  0.40608  1.0000
  H   H941      1.0  0.51137  0.31776  0.45435  1.0000
  C   C525      1.0  0.62839  0.42111  0.60661  1.0000
  H   H942      1.0  0.82608  0.43297  0.52757  1.0000
  C   C526      1.0  0.65508  0.43849  0.31157  1.0000
  C   C527      1.0  0.60863  0.40218  0.59507  1.0000
  H   H943      1.0  0.63338  0.43223  0.30747  1.0000
  H   H944      1.0  0.79809  0.44005  0.55969  1.0000
  H   H945      1.0  0.49187  0.40454  0.42744  1.0000
  H   H946      1.0  0.65115  0.41337  0.60197  1.0000
  C   C528      1.0  0.86409  0.45027  0.58000  1.0000
  C   C529      1.0  0.49835  0.26452  0.38216  1.0000
  H   H947      1.0  0.52511  0.34304  0.39606  1.0000
  H   H948      1.0  0.65996  0.40592  0.33840  1.0000
  H   H949      1.0  0.71856  0.47324  0.48809  1.0000
  H   H950      1.0  0.59381  0.34229  0.42716  1.0000
  H   H951      1.0  0.53720  0.98489  0.60014  1.0000
  H   H952      1.0  0.89955  0.46418  0.55974  1.0000
  C   C530      1.0  0.75136  0.41165  0.57557  1.0000
  C   C531      1.0  0.49847  0.38257  0.48927  1.0000
  C   C532      1.0  0.51690  0.28861  0.38923  1.0000
  S   S120      1.0  0.63073  0.46180  0.52757  1.0000
  C   C533      1.0  0.52372  0.33015  0.41176  1.0000
  H   H953      1.0  0.65432  0.46239  0.31038  1.0000
  C   C534      1.0  0.62327  0.41978  0.63204  1.0000
  H   H954      1.0  0.72312  0.47426  0.39566  1.0000
  C   C535      1.0  0.84844  0.45369  0.59997  1.0000
  H   H955      1.0  0.64639  0.46992  0.62057  1.0000
  H   H956      1.0  0.50040  0.37645  0.50658  1.0000
  H   H957      1.0  0.49648  0.28780  0.48632  1.0000
  H   H958      1.0  0.87270  0.41468  0.63588  1.0000
  H   H959      1.0  0.91491  0.42167  0.60941  1.0000
  H   H960      1.0  0.73393  0.41032  0.58841  1.0000
  H   H961      1.0  0.77230  0.40221  0.58259  1.0000
  S   S121      1.0  0.81775  0.43504  0.60517  1.0000
  Fe  Fe59      1.0  0.57099  0.46114  0.45872  1.0000
  C   C536      1.0  0.51450  0.41039  0.45732  1.0000
  H   H962      1.0  0.61345  0.37910  0.60031  1.0000
  H   H963      1.0  0.74609  0.39885  0.56133  1.0000
  C   C537      1.0  0.51138  0.24980  0.36149  1.0000
  H   H964      1.0  0.84222  0.37911  0.32017  1.0000
  H   H965      1.0  0.52762  0.27046  0.47170  1.0000
  H   H966      1.0  0.75767  0.45523  0.58329  1.0000
  Fe  Fe60      1.0  0.78650  0.46191  0.62672  1.0000
  H   H967      1.0  0.92610  0.38314  0.61071  1.0000
  H   H968      1.0  0.88323  0.37727  0.63575  1.0000
  C   C538      1.0  0.66494  0.46324  0.56383  1.0000
  C   C539      1.0  0.50402  0.27757  0.47059  1.0000
  H   H969      1.0  0.58538  0.40928  0.59880  1.0000
  C   C540      1.0  0.92805  0.40408  0.61855  1.0000
  H   H970      1.0  0.71947  0.38647  0.62367  1.0000
  H   H971      1.0  0.49195  0.25839  0.46850  1.0000
  C   C541      1.0  0.75312  0.44327  0.56846  1.0000
  H   H972      1.0  0.69103  0.46358  0.59289  1.0000
  H   H973      1.0  0.49769  0.23268  0.35691  1.0000
  C   C542      1.0  0.49851  0.29944  0.45142  1.0000
  H   H974      1.0  0.68199  0.43572  0.34072  1.0000
  C   C543      1.0  0.85623  0.45976  0.51205  1.0000
  H   H975      1.0  0.68204  0.42904  0.62451  1.0000
  H   H976      1.0  0.84488  0.47528  0.63094  1.0000
  H   H977      1.0  0.77619  0.42965  0.53828  1.0000
  H   H978      1.0  0.73160  0.45199  0.56255  1.0000
  C   C544      1.0  0.63959  0.46707  0.63817  1.0000
  H   H979      1.0  0.51322  0.34569  0.42382  1.0000
  N   N30       1.0  0.50538  0.30547  0.40899  1.0000
  H   H980      1.0  0.49736  0.24753  0.39536  1.0000
  C   C545      1.0  0.86200  0.47002  0.31479  1.0000
  H   H981      1.0  0.50120  0.98607  0.63104  1.0000
  H   H982      1.0  0.86675  0.44166  0.50222  1.0000
  C   C546      1.0  0.89069  0.46010  0.30905  1.0000
  S   S122      1.0  0.83390  0.44849  0.30998  1.0000
  C   C547      1.0  0.88787  0.46621  0.57540  1.0000
  H   H983      1.0  0.72146  0.45672  0.52779  1.0000
  C   C548      1.0  0.85718  0.47228  0.61562  1.0000
  H   H984      1.0  0.81346  0.45198  0.50278  1.0000
  H   H985      1.0  0.96093  0.35571  0.31130  1.0000
  H   H986      1.0  0.93489  0.47048  0.30605  1.0000
  C   C549      1.0  0.83206  0.36614  0.30798  1.0000
  H   H987      1.0  0.76653  0.46054  0.50811  1.0000
  C   C550      1.0  0.82501  0.45404  0.51833  1.0000
  H   H988      1.0  0.86911  0.46134  0.52707  1.0000
  N   N31       1.0  0.77857  0.47595  0.53955  1.0000
  C   C551      1.0  0.68030  0.47650  0.57981  1.0000
  H   H989      1.0  0.83554  0.37059  0.63847  1.0000
  H   H990      1.0  0.50865  0.47681  0.51605  1.0000
  H   H991      1.0  0.60963  0.38510  0.70957  1.0000
  C   C552      1.0  0.74746  0.41241  0.70619  1.0000
  H   H992      1.0  0.71766  0.37979  0.71020  1.0000
  H   H993      1.0  0.92186  0.44896  0.81147  1.0000
  C   C553      1.0  0.88646  0.32550  0.70815  1.0000
  Fe  Fe61      1.0  0.89383  0.39446  0.77472  1.0000
  S   S123      1.0  0.88887  0.34786  0.76861  1.0000
  S   S124      1.0  0.92425  0.42534  0.76002  1.0000
  Fe  Fe62      1.0  0.84466  0.39950  0.80907  1.0000
  S   S125      1.0  0.83475  0.35364  0.80551  1.0000
  Fe  Fe63      1.0  0.88307  0.34245  0.80567  1.0000
  S   S126      1.0  0.90673  0.30701  0.82743  1.0000
  Fe  Fe64      1.0  0.84092  0.36292  0.76911  1.0000
  S   S127      1.0  0.81000  0.34788  0.74482  1.0000
  S   S128      1.0  0.89248  0.38807  0.81157  1.0000
  S   S129      1.0  0.84634  0.40978  0.77283  1.0000
  H   H994      1.0  0.78187  0.44036  0.70527  1.0000
  H   H995      1.0  0.96853  0.09604  0.91814  1.0000
  Fe  Fe65      1.0  0.65780  0.00154  0.94731  1.0000
  C   C554      1.0  0.63195  0.00329  0.88311  1.0000
  H   H996      1.0  0.75516  0.42496  0.81383  1.0000
  S   S130      1.0  0.87880  0.17058  0.94076  1.0000
  H   H997      1.0  0.86646  0.44500  0.89446  1.0000
  Fe  Fe66      1.0  0.86440  0.21830  0.93638  1.0000
  S   S131      1.0  0.84373  0.24027  0.90572  1.0000
  H   H998      1.0  0.90634  0.41504  0.68477  1.0000
  H   H999      1.0  0.78640  0.41106  0.79734  1.0000
  C   C555      1.0  0.73903  0.38571  0.71381  1.0000
  H   H1000     1.0  0.92709  0.36416  0.85046  1.0000
  C   C556      1.0  0.94944  0.44886  0.72348  1.0000
  C   C557      1.0  0.51380  0.16611  0.84893  1.0000
  S   S132      1.0  0.96299  0.16908  0.95194  1.0000
  C   C558      1.0  0.83503  0.46064  0.83836  1.0000
  C   C559      1.0  0.78603  0.37364  0.73074  1.0000
  C   C560      1.0  0.79441  0.40057  0.72349  1.0000
  C   C561      1.0  0.77526  0.41979  0.71099  1.0000
  H   H1001     1.0  0.81591  0.40617  0.72701  1.0000
  H   H1002     1.0  0.50118  0.05343  0.88806  1.0000
  C   C562      1.0  0.88898  0.28869  0.84921  1.0000
  C   C563      1.0  0.85901  0.28667  0.84932  1.0000
  C   C564      1.0  0.84561  0.27145  0.86660  1.0000
  C   C565      1.0  0.86186  0.25873  0.88426  1.0000
  C   C566      1.0  0.89179  0.26107  0.88436  1.0000
  C   C567      1.0  0.90536  0.27554  0.86671  1.0000
  H   H1003     1.0  0.84626  0.29627  0.83579  1.0000
  H   H1004     1.0  0.82246  0.26962  0.86631  1.0000
  H   H1005     1.0  0.90439  0.25175  0.89803  1.0000
  H   H1006     1.0  0.92858  0.27695  0.86674  1.0000
  C   C568      1.0  0.95831  0.39717  0.70110  1.0000
  H   H1007     1.0  0.90957  0.47185  0.68043  1.0000
  S   S133      1.0  0.59023  0.00138  0.82486  1.0000
  C   C569      1.0  0.93985  0.42361  0.73323  1.0000
  H   H1008     1.0  0.72945  0.39561  0.65108  1.0000
  C   C570      1.0  0.52517  0.14084  0.83453  1.0000
  H   H1009     1.0  0.64085  0.10021  0.86629  1.0000
  C   C571      1.0  0.56291  0.09877  0.80933  1.0000
  C   C572      1.0  0.97515  0.16803  0.86405  1.0000
  C   C573      1.0  0.57779  0.98909  0.86921  1.0000
  H   H1010     1.0  0.54669  0.08106  0.76774  1.0000
  C   C574      1.0  0.76290  0.41880  0.79697  1.0000
  C   C575      1.0  0.82409  0.34718  0.88840  1.0000
  H   H1011     1.0  0.87937  0.32528  0.89009  1.0000
  S   S134      1.0  0.73493  0.07137  0.94309  1.0000
  S   S135      1.0  0.82102  0.42745  0.83471  1.0000
  H   H1012     1.0  0.71471  0.99212  0.88722  1.0000
  H   H1013     1.0  0.64075  0.01202  0.84846  1.0000
  H   H1014     1.0  0.57918  0.05725  0.76263  1.0000
  H   H1015     1.0  0.88261  0.38658  0.86957  1.0000
  H   H1016     1.0  0.87717  0.35322  0.85670  1.0000
  H   H1017     1.0  0.93208  0.36829  0.87950  1.0000
  H   H1018     1.0  0.93714  0.37806  0.72949  1.0000
  H   H1019     1.0  0.97319  0.14756  0.85548  1.0000
  C   C576      1.0  0.94746  0.09762  0.90957  1.0000
  H   H1020     1.0  0.64222  0.40324  0.71060  1.0000
  H   H1021     1.0  0.96554  0.23220  0.92888  1.0000
  C   C577      1.0  0.92208  0.17563  0.86819  1.0000
  S   S136      1.0  0.54326  0.00612  0.77183  1.0000
  H   H1022     1.0  0.84498  0.28081  0.95371  1.0000
  C   C578      1.0  0.62162  0.40604  0.67857  1.0000
  H   H1023     1.0  0.54052  0.10521  0.80341  1.0000
  S   S137      1.0  0.79089  0.46608  0.66292  1.0000
  C   C579      1.0  0.86818  0.06732  0.95047  1.0000
  H   H1024     1.0  0.78585  0.35857  0.64758  1.0000
  H   H1025     1.0  0.86134  0.31216  0.96187  1.0000
  C   C580      1.0  0.62001  0.40463  0.70379  1.0000
  H   H1026     1.0  0.86226  0.35440  0.93522  1.0000
  C   C581      1.0  0.86685  0.18136  0.86872  1.0000
  H   H1027     1.0  0.92686  0.11885  0.88139  1.0000
  Fe  Fe67      1.0  0.74295  0.46385  0.66492  1.0000
  H   H1028     1.0  0.89298  0.19543  0.89410  1.0000
  C   C582      1.0  0.52790  0.07663  0.86499  1.0000
  H   H1029     1.0  0.84231  0.40171  0.88521  1.0000
  Fe  Fe68      1.0  0.54760  0.99447  0.80816  1.0000
  H   H1030     1.0  0.84852  0.45271  0.67856  1.0000
  C   C583      1.0  0.97672  0.13285  0.95813  1.0000
  H   H1031     1.0  0.54142  0.99131  0.70743  1.0000
  H   H1032     1.0  0.82593  0.05811  0.94091  1.0000
  C   C584      1.0  0.84660  0.31394  0.92788  1.0000
  H   H1033     1.0  0.84955  0.35537  0.70067  1.0000
  H   H1034     1.0  0.87652  0.31937  0.72431  1.0000
  C   C585      1.0  0.54968  0.99768  0.69076  1.0000
  C   C586      1.0  0.87349  0.35575  0.70092  1.0000
  H   H1035     1.0  0.78609  0.37606  0.67364  1.0000
  H   H1036     1.0  0.60689  0.42405  0.71023  1.0000
  H   H1037     1.0  0.94415  0.07584  0.90370  1.0000
  C   C587      1.0  0.79738  0.12470  0.95439  1.0000
  H   H1038     1.0  0.91011  0.36454  0.67990  1.0000
  H   H1039     1.0  0.87855  0.37074  0.71382  1.0000
  H   H1040     1.0  0.94667  0.46882  0.73219  1.0000
  N   N32       1.0  0.87381  0.39365  0.66847  1.0000
  H   H1041     1.0  0.65288  0.00878  0.88825  1.0000
  C   C588      1.0  0.57012  0.07673  0.77157  1.0000
  H   H1042     1.0  0.85967  0.40256  0.93375  1.0000
  N   N33       1.0  0.64336  0.43554  0.64551  1.0000
  C   C589      1.0  0.86368  0.40677  0.91586  1.0000
  H   H1043     1.0  0.57630  0.11641  0.80365  1.0000
  C   C590      1.0  0.88620  0.36477  0.67800  1.0000
  H   H1044     1.0  0.83129  0.39748  0.68478  1.0000
  H   H1045     1.0  0.92000  0.19529  0.85711  1.0000
  N   N34       1.0  0.56275  0.09561  0.83427  1.0000
  H   H1046     1.0  0.75103  0.40064  0.79176  1.0000
  H   H1047     1.0  0.61874  0.45193  0.67440  1.0000
  H   H1048     1.0  0.89276  0.15684  0.89280  1.0000
  H   H1049     1.0  0.88185  0.30933  0.69598  1.0000
  H   H1050     1.0  0.97330  0.14800  0.90591  1.0000
  H   H1051     1.0  0.58625  0.05589  0.95347  1.0000
  H   H1052     1.0  0.87336  0.41453  0.69992  1.0000
  H   H1053     1.0  0.96575  0.11130  0.87863  1.0000
  C   C591      1.0  0.84827  0.47533  0.82088  1.0000
  C   C592      1.0  0.98204  0.20738  0.90054  1.0000
  H   H1054     1.0  0.75188  0.34537  0.73108  1.0000
  H   H1055     1.0  0.83421  0.34991  0.66409  1.0000
  H   H1056     1.0  0.92188  0.15710  0.85705  1.0000
  H   H1057     1.0  0.83125  0.36924  0.85616  1.0000
  H   H1058     1.0  0.76620  0.43686  0.76432  1.0000
  C   C593      1.0  0.88243  0.41700  0.68288  1.0000
  S   S138      1.0  0.62047  0.98814  0.92717  1.0000
  H   H1059     1.0  0.97113  0.25385  0.90399  1.0000
  H   H1060     1.0  0.58917  0.10018  0.87563  1.0000
  H   H1061     1.0  0.80462  0.45090  0.74928  1.0000
  H   H1062     1.0  0.82904  0.30494  0.91899  1.0000
  H   H1063     1.0  0.87913  0.06094  0.93458  1.0000
  H   H1064     1.0  0.68052  0.38788  0.66552  1.0000
  H   H1065     1.0  0.87436  0.44994  0.92288  1.0000
  C   C594      1.0  0.95187  0.20213  0.89168  1.0000
  H   H1066     1.0  0.55695  0.98340  0.86400  1.0000
  C   C595      1.0  0.76064  0.09008  0.95669  1.0000
  S   S139      1.0  0.70668  0.99557  0.94282  1.0000
  Fe  Fe69      1.0  0.49948  0.02827  0.78091  1.0000
  H   H1067     1.0  0.52874  0.14979  0.81756  1.0000
  H   H1068     1.0  0.86626  0.20210  0.85901  1.0000
  H   H1069     1.0  0.53026  0.18188  0.84972  1.0000
  H   H1070     1.0  0.82221  0.31360  0.95926  1.0000
  H   H1071     1.0  0.80945  0.13960  0.94466  1.0000
  C   C596      1.0  0.77675  0.10935  0.94431  1.0000
  S   S140      1.0  0.83707  0.21952  0.96768  1.0000
  H   H1072     1.0  0.93128  0.47470  0.77911  1.0000
  S   S141      1.0  0.98389  0.42189  0.66479  1.0000
  H   H1073     1.0  0.57369  0.99741  0.69135  1.0000
  C   C597      1.0  0.59786  0.99824  0.85347  1.0000
  C   C598      1.0  0.77192  0.47130  0.78821  1.0000
  H   H1074     1.0  0.60875  0.10051  0.83353  1.0000
  C   C599      1.0  0.95933  0.11338  0.96868  1.0000
  Fe  Fe70      1.0  0.70639  0.03881  0.95895  1.0000
  H   H1075     1.0  0.57146  0.13976  0.83929  1.0000
  H   H1076     1.0  0.58176  0.09532  0.76549  1.0000
  H   H1077     1.0  0.77708  0.04523  0.90987  1.0000
  C   C600      1.0  0.61203  0.99371  0.89881  1.0000
  H   H1078     1.0  0.94485  0.22082  0.88049  1.0000
  C   C601      1.0  0.87221  0.44831  0.67522  1.0000
  H   H1079     1.0  0.79413  0.46375  0.79409  1.0000
  S   S142      1.0  0.65737  0.04606  0.96065  1.0000
  H   H1080     1.0  0.63414  0.38592  0.67304  1.0000
  C   C602      1.0  0.78001  0.02155  0.90729  1.0000
  C   C603      1.0  0.63513  0.43366  0.66988  1.0000
  H   H1081     1.0  0.80124  0.38571  0.87233  1.0000
  C   C604      1.0  0.57401  0.07143  0.79639  1.0000
  C   C605      1.0  0.81312  0.36476  0.86759  1.0000
  N   N35       1.0  0.95024  0.17387  0.88039  1.0000
  H   H1082     1.0  0.77310  0.11262  0.92683  1.0000
  C   C606      1.0  0.97761  0.19152  0.84546  1.0000
  H   H1083     1.0  0.95927  0.19160  0.83400  1.0000
  H   H1084     1.0  0.82380  0.35646  0.93279  1.0000
  H   H1085     1.0  0.85431  0.46595  0.74526  1.0000
  H   H1086     1.0  0.84081  0.45449  0.71982  1.0000
  H   H1087     1.0  0.93623  0.20387  0.90601  1.0000
  C   C607      1.0  0.92053  0.35670  0.86726  1.0000
  C   C608      1.0  0.94407  0.39772  0.72194  1.0000
  C   C609      1.0  0.82802  0.37130  0.65600  1.0000
  C   C610      1.0  0.55411  0.12523  0.84325  1.0000
  C   C611      1.0  0.75839  0.36624  0.72567  1.0000
  H   H1088     1.0  0.93820  0.43446  0.84894  1.0000
  H   H1089     1.0  0.54428  0.07739  0.87781  1.0000
  C   C612      1.0  0.88756  0.36281  0.87059  1.0000
  H   H1090     1.0  0.59757  0.06537  0.79881  1.0000
  H   H1091     1.0  0.91035  0.32505  0.71005  1.0000
  C   C613      1.0  0.96725  0.42269  0.69119  1.0000
  H   H1092     1.0  0.52342  0.07481  0.83002  1.0000
  H   H1093     1.0  0.86636  0.16319  0.85734  1.0000
  H   H1094     1.0  0.87659  0.45215  0.65743  1.0000
  H   H1095     1.0  0.50026  0.99894  0.66687  1.0000
  C   C614      1.0  0.84857  0.01824  0.95583  1.0000
  H   H1096     1.0  0.85041  0.46604  0.80473  1.0000
  H   H1097     1.0  0.54035  0.02009  0.68649  1.0000
  H   H1098     1.0  0.93564  0.15513  0.91143  1.0000
  H   H1099     1.0  0.82117  0.46198  0.87249  1.0000
  S   S143      1.0  0.90300  0.23302  0.95257  1.0000
  C   C615      1.0  0.59923  0.08185  0.86599  1.0000
  H   H1100     1.0  0.73386  0.44970  0.77939  1.0000
  C   C616      1.0  0.80535  0.00744  0.92078  1.0000
  C   C617      1.0  0.89394  0.17711  0.88280  1.0000
  H   H1101     1.0  0.80418  0.34512  0.89893  1.0000
  H   H1102     1.0  0.49560  0.02684  0.73658  1.0000
  H   H1103     1.0  0.80266  0.32783  0.84909  1.0000
  H   H1104     1.0  0.84707  0.18219  0.87963  1.0000
  C   C618      1.0  0.62499  0.00518  0.86055  1.0000
  C   C619      1.0  0.79830  0.00927  0.94589  1.0000
  H   H1105     1.0  0.92736  0.33316  0.86891  1.0000
  H   H1106     1.0  0.65439  0.43628  0.68008  1.0000
  H   H1107     1.0  0.77279  0.34425  0.86582  1.0000
  C   C620      1.0  0.79181  0.34862  0.85508  1.0000
  C   C621      1.0  0.59347  0.08554  0.84095  1.0000
  C   C622      1.0  0.54195  0.07380  0.84147  1.0000
  H   H1108     1.0  0.56183  0.05293  0.80168  1.0000
  H   H1109     1.0  0.83719  0.44847  0.91503  1.0000
  Fe  Fe71      1.0  0.91589  0.18546  0.95922  1.0000
  H   H1110     1.0  0.78385  0.36207  0.84058  1.0000
  H   H1111     1.0  0.83151  0.32487  0.88325  1.0000
  C   C623      1.0  0.84357  0.30477  0.95219  1.0000
  C   C624      1.0  0.63184  0.07936  0.87038  1.0000
  H   H1112     1.0  0.60056  0.06388  0.83429  1.0000
  H   H1113     1.0  0.55294  0.05145  0.84021  1.0000
  H   H1114     1.0  0.59078  0.06158  0.87245  1.0000
  H   H1115     1.0  0.64376  0.06217  0.86042  1.0000
  C   C625      1.0  0.75777  0.44438  0.78059  1.0000
  C   C626      1.0  0.87744  0.34896  0.89271  1.0000
  H   H1116     1.0  0.49370  0.17737  0.84179  1.0000
  H   H1117     1.0  0.97724  0.21350  0.85205  1.0000
  C   C627      1.0  0.95184  0.14989  0.89785  1.0000
  C   C628      1.0  0.84108  0.39586  0.66784  1.0000
  C   C629      1.0  0.84210  0.39169  0.90208  1.0000
  C   C630      1.0  0.97988  0.23470  0.91407  1.0000
  H   H1118     1.0  0.86784  0.30366  0.92165  1.0000
  H   H1119     1.0  0.80927  0.98446  0.91608  1.0000
  H   H1120     1.0  0.63551  0.07384  0.88812  1.0000
  H   H1121     1.0  0.96215  0.37706  0.69252  1.0000
  C   C631      1.0  0.86008  0.43954  0.91177  1.0000
  S   S144      1.0  0.72262  0.43600  0.69088  1.0000
  N   N36       1.0  0.84736  0.35913  0.90150  1.0000
  N   N37       1.0  0.82338  0.00054  0.96091  1.0000
  S   S145      1.0  0.50513  0.01964  0.81721  1.0000
  H   H1122     1.0  0.88659  0.39910  0.91163  1.0000
  H   H1123     1.0  0.81974  0.39812  0.90875  1.0000
  H   H1124     1.0  0.89400  0.35170  0.90526  1.0000
  C   C632      1.0  0.84477  0.34744  0.92498  1.0000
  H   H1125     1.0  0.83280  0.41626  0.65905  1.0000
  C   C633      1.0  0.96265  0.44855  0.70240  1.0000
  H   H1126     1.0  0.78841  0.03151  0.94945  1.0000
  H   H1127     1.0  0.55237  0.12440  0.86151  1.0000
  C   C634      1.0  0.83186  0.47302  0.85909  1.0000
  C   C635      1.0  0.95216  0.42792  0.83438  1.0000
  C   C636      1.0  0.94542  0.44888  0.81482  1.0000
  H   H1128     1.0  0.88364  0.34722  0.66637  1.0000
  C   C637      1.0  0.94766  0.11920  0.88998  1.0000
  H   H1129     1.0  0.82477  0.01850  0.91583  1.0000
  H   H1130     1.0  0.96968  0.46822  0.69494  1.0000
  H   H1131     1.0  0.92961  0.10432  0.92155  1.0000
  C   C638      1.0  0.84094  0.05157  0.95455  1.0000
  H   H1132     1.0  0.88365  0.06246  0.96411  1.0000
  H   H1133     1.0  0.54966  0.05893  0.96489  1.0000
  H   H1134     1.0  0.86002  0.01154  0.94015  1.0000
  H   H1135     1.0  0.95803  0.44021  0.80030  1.0000
  H   H1136     1.0  0.94779  0.40583  0.82993  1.0000
  H   H1137     1.0  0.88921  0.46427  0.70538  1.0000
  H   H1138     1.0  0.59909  0.40627  0.67255  1.0000
  H   H1139     1.0  0.86197  0.09107  0.94973  1.0000
  C   C639      1.0  0.88738  0.47025  0.68757  1.0000
  C   C640      1.0  0.79479  0.37616  0.65637  1.0000
  H   H1140     1.0  0.97597  0.46837  0.76658  1.0000
  H   H1141     1.0  0.52416  0.03042  0.87011  1.0000
  H   H1142     1.0  0.51274  0.09665  0.86599  1.0000
  H   H1143     1.0  0.78459  0.01806  0.88946  1.0000
  C   C641      1.0  0.58492  0.98672  0.89171  1.0000
  H   H1144     1.0  0.55074  0.98402  0.65748  1.0000
  H   H1145     1.0  0.86535  0.01389  0.96865  1.0000
  H   H1146     1.0  0.78737  0.39714  0.64801  1.0000
  C   C642      1.0  0.91810  0.40285  0.64277  1.0000
  H   H1147     1.0  0.57149  0.00729  0.96289  1.0000
  C   C643      1.0  0.83801  0.47151  0.73230  1.0000
  C   C644      1.0  0.71509  0.38303  0.64160  1.0000
  C   C645      1.0  0.67482  0.42439  0.64178  1.0000
  C   C646      1.0  0.80724  0.47258  0.74211  1.0000
  H   H1148     1.0  0.52241  0.00411  0.96472  1.0000
  H   H1149     1.0  0.68881  0.43627  0.65210  1.0000
  H   H1150     1.0  0.75951  0.01216  0.91214  1.0000
  H   H1151     1.0  0.93235  0.38569  0.65140  1.0000
  H   H1152     1.0  0.78041  0.99529  0.94921  1.0000
  H   H1153     1.0  0.49180  0.05102  0.85963  1.0000
  C   C647      1.0  0.88567  0.39701  0.64514  1.0000
  H   H1154     1.0  0.97543  0.42718  0.83869  1.0000
  C   C648      1.0  0.51022  0.05128  0.87098  1.0000
  C   C649      1.0  0.57284  0.05264  0.96868  1.0000
  C   C650      1.0  0.68315  0.39199  0.64749  1.0000
  H   H1155     1.0  0.50803  0.12581  0.83389  1.0000
  H   H1156     1.0  0.50844  0.15819  0.86590  1.0000
  H   H1157     1.0  0.56939  0.97912  0.90366  1.0000
  H   H1158     1.0  0.92160  0.42400  0.64968  1.0000
  H   H1159     1.0  0.72049  0.35974  0.64592  1.0000
  H   H1160     1.0  0.83055  0.05946  0.97019  1.0000
  H   H1161     1.0  0.61612  0.47544  0.63926  1.0000
  H   H1162     1.0  0.79711  0.50032  0.19398  1.0000
  H   H1163     1.0  0.62242  0.89909  0.01480  1.0000
  H   H1164     1.0  0.76567  0.48396  0.15364  1.0000
  Fe  Fe72      1.0  0.77808  0.53365  0.27339  1.0000
  H   H1165     1.0  0.92913  0.74685  0.07244  1.0000
  S   S146      1.0  0.79405  0.57612  0.26158  1.0000
  H   H1166     1.0  0.81064  0.85758  0.98109  1.0000
  H   H1167     1.0  0.80067  0.57183  0.09354  1.0000
  S   S147      1.0  0.73331  0.52146  0.26732  1.0000
  Fe  Fe73      1.0  0.92044  0.56989  0.13091  1.0000
  S   S148      1.0  0.94587  0.60827  0.12814  1.0000
  S   S149      1.0  0.94425  0.52614  0.12539  1.0000
  Fe  Fe74      1.0  0.86669  0.60492  0.14755  1.0000
  S   S150      1.0  0.88761  0.64668  0.14575  1.0000
  S   S151      1.0  0.82036  0.60377  0.16008  1.0000
  Fe  Fe75      1.0  0.90619  0.63200  0.11267  1.0000
  S   S152      1.0  0.92011  0.65964  0.08284  1.0000
  Fe  Fe76      1.0  0.92545  0.61971  0.16088  1.0000
  S   S153      1.0  0.88198  0.59213  0.11319  1.0000
  S   S154      1.0  0.90320  0.57937  0.16509  1.0000
  S   S155      1.0  0.87768  0.82665  0.98332  1.0000
  Fe  Fe77      1.0  0.88097  0.77784  0.98384  1.0000
  S   S156      1.0  0.86144  0.74997  0.01130  1.0000
  H   H1168     1.0  0.94719  0.75418  0.18328  1.0000
  H   H1169     1.0  0.55714  0.95940  0.22201  1.0000
  H   H1170     1.0  0.89038  0.50750  0.16702  1.0000
  C   C651      1.0  0.75507  0.52116  0.18601  1.0000
  H   H1171     1.0  0.94167  0.58335  0.21206  1.0000
  C   C652      1.0  0.90303  0.68367  0.06256  1.0000
  C   C653      1.0  0.92068  0.69771  0.04720  1.0000
  C   C654      1.0  0.90841  0.71813  0.03149  1.0000
  C   C655      1.0  0.87823  0.72455  0.03079  1.0000
  C   C656      1.0  0.86055  0.71032  0.04602  1.0000
  C   C657      1.0  0.87283  0.68999  0.06181  1.0000
  H   H1172     1.0  0.94407  0.69306  0.04765  1.0000
  H   H1173     1.0  0.92231  0.72915  0.02012  1.0000
  H   H1174     1.0  0.83716  0.71509  0.04561  1.0000
  H   H1175     1.0  0.85896  0.67926  0.07339  1.0000
  C   C658      1.0  0.80075  0.58135  0.23294  1.0000
  C   C659      1.0  0.78309  0.60246  0.22126  1.0000
  C   C660      1.0  0.78927  0.60890  0.19895  1.0000
  C   C661      1.0  0.81415  0.59555  0.18837  1.0000
  C   C662      1.0  0.83239  0.57487  0.20014  1.0000
  C   C663      1.0  0.82521  0.56719  0.22218  1.0000
  H   H1176     1.0  0.76441  0.61379  0.22945  1.0000
  H   H1177     1.0  0.77503  0.62481  0.18999  1.0000
  H   H1178     1.0  0.85145  0.56414  0.19210  1.0000
  H   H1179     1.0  0.83886  0.55066  0.23090  1.0000
  N   N38       1.0  0.90245  0.59705  0.27372  1.0000
  C   C664      1.0  0.92177  0.50003  0.11799  1.0000
  C   C665      1.0  0.89473  0.50787  0.10852  1.0000
  C   C666      1.0  0.98246  0.49942  0.19938  1.0000
  H   H1180     1.0  0.90901  0.62110  0.22902  1.0000
  H   H1181     1.0  0.88762  0.53036  0.10512  1.0000
  H   H1182     1.0  0.91389  0.56234  0.25110  1.0000
  C   C667      1.0  0.76155  0.91738  0.97514  1.0000
  C   C668      1.0  0.88766  0.61346  0.23363  1.0000
  H   H1183     1.0  0.93475  0.51871  0.22537  1.0000
  C   C669      1.0  0.90406  0.78727  0.06571  1.0000
  H   H1184     1.0  0.93126  0.71009  0.98413  1.0000
  H   H1185     1.0  0.84148  0.50659  0.14191  1.0000
  H   H1186     1.0  0.89253  0.71079  0.10345  1.0000
  C   C670      1.0  0.86498  0.63302  0.22081  1.0000
  H   H1187     1.0  0.86640  0.65606  0.22454  1.0000
  H   H1188     1.0  0.86898  0.63033  0.20281  1.0000
  H   H1189     1.0  0.84267  0.62739  0.22506  1.0000
  S   S157      1.0  0.95208  0.63655  0.18720  1.0000
  Fe  Fe78      1.0  0.73370  0.50225  0.30196  1.0000
  H   H1190     1.0  0.79929  0.96286  0.99425  1.0000
  C   C671      1.0  0.77809  0.89393  0.98537  1.0000
  H   H1191     1.0  0.75170  0.55685  0.20858  1.0000
  H   H1192     1.0  0.78737  0.48609  0.11698  1.0000
  H   H1193     1.0  0.84673  0.49949  0.19204  1.0000
  C   C672      1.0  0.86047  0.60689  0.30346  1.0000
  C   C673      1.0  0.74686  0.53396  0.20845  1.0000
  C   C674      1.0  0.98247  0.56898  0.22756  1.0000
  C   C675      1.0  0.84888  0.49043  0.17527  1.0000
  C   C676      1.0  0.59061  0.93674  0.01302  1.0000
  H   H1194     1.0  0.93490  0.77741  0.10392  1.0000
  C   C677      1.0  0.79823  0.87576  0.97306  1.0000
  H   H1195     1.0  0.82411  0.55386  0.12766  1.0000
  H   H1196     1.0  0.57402  0.92408  0.00618  1.0000
  H   H1197     1.0  0.94227  0.71160  0.09689  1.0000
  S   S158      1.0  0.95158  0.85458  0.97987  1.0000
  H   H1198     1.0  0.97943  0.63210  0.28857  1.0000
  C   C678      1.0  0.83214  0.51144  0.15856  1.0000
  H   H1199     1.0  0.83994  0.70298  0.13445  1.0000
  S   S159      1.0  0.73541  0.93862  0.99108  1.0000
  C   C679      1.0  0.78861  0.51787  0.18222  1.0000
  C   C680      1.0  0.93196  0.60805  0.27009  1.0000
  H   H1200     1.0  0.74659  0.49966  0.18576  1.0000
  C   C681      1.0  0.88176  0.51939  0.26282  1.0000
  H   H1201     1.0  0.83831  0.70896  0.10485  1.0000
  H   H1202     1.0  0.85953  0.75076  0.13775  1.0000
  H   H1203     1.0  0.93024  0.63187  0.27239  1.0000
  H   H1204     1.0  0.88370  0.52033  0.24457  1.0000
  H   H1205     1.0  0.89344  0.70561  0.13226  1.0000
  H   H1206     1.0  0.49979  0.87425  0.23700  1.0000
  C   C682      1.0  0.62069  0.92145  0.00760  1.0000
  C   C683      1.0  0.98177  0.67762  0.12133  1.0000
  H   H1207     1.0  0.94748  0.53080  0.18613  1.0000
  H   H1208     1.0  0.55259  0.95999  0.97425  1.0000
  H   H1209     1.0  0.60557  0.96854  0.14811  1.0000
  C   C684      1.0  0.83764  0.71975  0.12095  1.0000
  C   C685      1.0  0.88120  0.48633  0.16892  1.0000
  H   H1210     1.0  0.93650  0.67967  0.13000  1.0000
  H   H1211     1.0  0.81609  0.73242  0.12297  1.0000
  H   H1212     1.0  0.62583  0.96085  0.07411  1.0000
  H   H1213     1.0  0.90158  0.50717  0.26964  1.0000
  C   C686      1.0  0.85152  0.66988  0.99343  1.0000
  C   C687      1.0  0.96421  0.58713  0.21356  1.0000
  H   H1214     1.0  0.67801  0.87358  0.97773  1.0000
  H   H1215     1.0  0.90337  0.61988  0.30442  1.0000
  Fe  Fe79      1.0  0.49134  0.96944  0.15752  1.0000
  C   C688      1.0  0.89217  0.72272  0.11902  1.0000
  H   H1216     1.0  0.75920  0.52153  0.22169  1.0000
  C   C689      1.0  0.86177  0.73989  0.12170  1.0000
  H   H1217     1.0  0.50856  0.89722  0.20028  1.0000
  H   H1218     1.0  0.59654  0.96757  0.98641  1.0000
  H   H1219     1.0  0.63793  0.93312  0.01471  1.0000
  H   H1220     1.0  0.90103  0.76650  0.14683  1.0000
  H   H1221     1.0  0.96327  0.57112  0.27974  1.0000
  H   H1222     1.0  0.65387  0.51324  0.24810  1.0000
  H   H1223     1.0  0.91800  0.73236  0.15532  1.0000
  H   H1224     1.0  0.92289  0.80032  0.06606  1.0000
  H   H1225     1.0  0.52955  0.95065  0.99651  1.0000
  S   S160      1.0  0.80080  0.49238  0.26109  1.0000
  H   H1226     1.0  0.83820  0.53350  0.16186  1.0000
  H   H1227     1.0  0.98278  0.53576  0.16124  1.0000
  H   H1228     1.0  0.72325  0.53318  0.21195  1.0000
  C   C690      1.0  0.48730  0.95548  0.29318  1.0000
  N   N39       1.0  0.91801  0.74004  0.11984  1.0000
  H   H1229     1.0  0.78225  0.55658  0.15292  1.0000
  S   S161      1.0  0.97700  0.50338  0.26905  1.0000
  H   H1230     1.0  0.85614  0.49243  0.09580  1.0000
  C   C691      1.0  0.91490  0.76595  0.10412  1.0000
  C   C692      1.0  0.90970  0.75941  0.07969  1.0000
  H   H1231     1.0  0.98117  0.95257  0.03269  1.0000
  H   H1232     1.0  0.76729  0.55719  0.10212  1.0000
  H   H1233     1.0  0.77510  0.88957  0.00287  1.0000
  H   H1234     1.0  0.85178  0.62838  0.29656  1.0000
  H   H1235     1.0  0.69058  0.50440  0.23742  1.0000
  C   C693      1.0  0.66762  0.49969  0.23632  1.0000
  H   H1236     1.0  0.83308  0.68711  0.99279  1.0000
  C   C694      1.0  0.95679  0.59364  0.28479  1.0000
  H   H1237     1.0  0.97901  0.66886  0.10477  1.0000
  C   C695      1.0  0.48858  0.90335  0.20944  1.0000
  C   C696      1.0  0.58752  0.96833  0.00363  1.0000
  H   H1238     1.0  0.58807  0.93653  0.03131  1.0000
  H   H1239     1.0  0.95033  0.59304  0.30253  1.0000
  H   H1240     1.0  0.89711  0.78213  0.10987  1.0000
  H   H1241     1.0  0.90073  0.78183  0.04830  1.0000
  H   H1242     1.0  0.89068  0.74700  0.07805  1.0000
  C   C697      1.0  0.53885  0.96946  0.98813  1.0000
  H   H1243     1.0  0.59920  0.97108  0.17745  1.0000
  H   H1244     1.0  0.85786  0.75648  0.10827  1.0000
  H   H1245     1.0  0.79697  0.53794  0.18770  1.0000
  C   C698      1.0  0.84415  0.64750  0.01119  1.0000
  H   H1246     1.0  0.51242  0.95598  0.24810  1.0000
  C   C699      1.0  0.78696  0.56613  0.10806  1.0000
  H   H1247     1.0  0.54308  0.95852  0.03234  1.0000
  H   H1248     1.0  0.74372  0.53549  0.17333  1.0000
  C   C700      1.0  0.94500  0.72088  0.11329  1.0000
  C   C701      1.0  0.95071  0.50796  0.19215  1.0000
  C   C702      1.0  0.92936  0.50512  0.21163  1.0000
  H   H1249     1.0  0.88412  0.80031  0.07175  1.0000
  C   C703      1.0  0.87741  0.54994  0.27163  1.0000
  C   C704      1.0  0.95363  0.69474  0.12921  1.0000
  C   C705      1.0  0.78980  0.48307  0.15295  1.0000
  H   H1250     1.0  0.86263  0.63047  0.01320  1.0000
  H   H1251     1.0  0.97380  0.55159  0.23699  1.0000
  H   H1252     1.0  0.96848  0.91214  0.98150  1.0000
  H   H1253     1.0  0.88008  0.63804  0.26334  1.0000
  H   H1254     1.0  0.81157  0.52484  0.11303  1.0000
  H   H1255     1.0  0.85887  0.60857  0.26137  1.0000
  H   H1256     1.0  0.85115  0.95798  0.99073  1.0000
  N   N40       1.0  0.79942  0.51179  0.15895  1.0000
  H   H1257     1.0  0.87496  0.63787  0.97245  1.0000
  H   H1258     1.0  0.87097  0.67958  0.99889  1.0000
  S   S162      1.0  0.49405  0.97535  0.12052  1.0000
  H   H1259     1.0  0.83994  0.65822  0.02722  1.0000
  H   H1260     1.0  0.82435  0.63739  0.00692  1.0000
  H   H1261     1.0  0.84772  0.59041  0.29673  1.0000
  H   H1262     1.0  0.62432  0.92026  0.98946  1.0000
  H   H1263     1.0  0.98602  0.51254  0.21387  1.0000
  C   C706      1.0  0.89354  0.60110  0.29778  1.0000
  H   H1264     1.0  0.86275  0.50762  0.26781  1.0000
  H   H1265     1.0  0.94004  0.60474  0.25292  1.0000
  H   H1266     1.0  0.87198  0.54794  0.28946  1.0000
  C   C707      1.0  0.91988  0.75046  0.14300  1.0000
  H   H1267     1.0  0.78037  0.58620  0.11718  1.0000
  C   C708      1.0  0.78624  0.53598  0.14384  1.0000
  C   C709      1.0  0.94756  0.76519  0.14803  1.0000
  H   H1268     1.0  0.51073  0.95089  0.28884  1.0000
  C   C710      1.0  0.88130  0.61488  0.25888  1.0000
  H   H1269     1.0  0.85867  0.56174  0.26331  1.0000
  H   H1270     1.0  0.88706  0.59111  0.22791  1.0000
  H   H1271     1.0  0.88272  0.91416  0.97983  1.0000
  C   C711      1.0  0.80437  0.54395  0.12291  1.0000
  H   H1272     1.0  0.76446  0.53116  0.13841  1.0000
  C   C712      1.0  0.97499  0.61076  0.20220  1.0000
  H   H1273     1.0  0.66042  0.50556  0.21930  1.0000
  H   H1274     1.0  0.92153  0.55301  0.27884  1.0000
  C   C713      1.0  0.90523  0.56549  0.26823  1.0000
  H   H1275     1.0  0.90693  0.51255  0.20645  1.0000
  H   H1276     1.0  0.67630  0.91225  0.97327  1.0000
  H   H1277     1.0  0.50636  0.97197  0.06234  1.0000
  H   H1278     1.0  0.94876  0.78517  0.13768  1.0000
  C   C714      1.0  0.87700  0.48640  0.10317  1.0000
  Fe  Fe80      1.0  0.75621  0.47886  0.25742  1.0000
  H   H1279     1.0  0.94481  0.49384  0.17893  1.0000
  H   H1280     1.0  0.86092  0.47800  0.23344  1.0000
  C   C715      1.0  0.98392  0.60988  0.28232  1.0000
  H   H1281     1.0  0.91367  0.66194  0.97889  1.0000
  H   H1282     1.0  0.92805  0.78904  0.17606  1.0000
  H   H1283     1.0  0.95711  0.70164  0.14617  1.0000
  H   H1284     1.0  0.95989  0.68339  0.97546  1.0000
  H   H1285     1.0  0.93000  0.48228  0.21764  1.0000
  H   H1286     1.0  0.63558  0.97160  0.16615  1.0000
  S   S163      1.0  0.57801  0.97593  0.10403  1.0000
  H   H1287     1.0  0.84524  0.91146  0.97369  1.0000
  H   H1288     1.0  0.98287  0.48537  0.15629  1.0000
  C   C716      1.0  0.85764  0.95552  0.97310  1.0000
  H   H1289     1.0  0.96766  0.75057  0.14503  1.0000
  C   C717      1.0  0.94739  0.77368  0.17217  1.0000
  H   H1290     1.0  0.96398  0.73371  0.11091  1.0000
  H   H1291     1.0  0.96727  0.78432  0.17536  1.0000
  H   H1292     1.0  0.83106  0.61130  0.33192  1.0000
  S   S164      1.0  0.77892  0.50944  0.61973  1.0000
  H   H1293     1.0  0.92035  0.63407  0.58580  1.0000
  Fe  Fe81      1.0  0.73152  0.50293  0.62425  1.0000
  S   S165      1.0  0.69984  0.52429  0.59907  1.0000
  C   C718      1.0  0.67649  0.48364  0.39505  1.0000
  H   H1294     1.0  0.86287  0.58627  0.33628  1.0000
  H   H1295     1.0  0.68539  0.66315  0.39728  1.0000
  C   C719      1.0  0.70228  0.53783  0.45325  1.0000
  Fe  Fe82      1.0  0.58090  0.52448  0.46409  1.0000
  H   H1296     1.0  0.82337  0.48065  0.54709  1.0000
  S   S166      1.0  0.56036  0.57014  0.45635  1.0000
  S   S167      1.0  0.93463  0.52829  0.32242  1.0000
  H   H1297     1.0  0.60579  0.59895  0.41192  1.0000
  C   C720      1.0  0.91305  0.47793  0.31137  1.0000
  C   C721      1.0  0.85482  0.60733  0.32840  1.0000
  S   S168      1.0  0.62806  0.51416  0.47281  1.0000
  H   H1298     1.0  0.72038  0.54935  0.34702  1.0000
  H   H1299     1.0  0.71577  0.56692  0.42780  1.0000
  S   S169      1.0  0.69048  0.50704  0.32132  1.0000
  H   H1300     1.0  0.88928  0.50034  0.62402  1.0000
  H   H1301     1.0  0.68297  0.60458  0.36115  1.0000
  C   C722      1.0  0.68934  0.65324  0.41399  1.0000
  H   H1302     1.0  0.52180  0.52386  0.44246  1.0000
  H   H1303     1.0  0.49469  0.54850  0.42919  1.0000
  H   H1304     1.0  0.88214  0.62267  0.61385  1.0000
  H   H1305     1.0  0.85959  0.54823  0.63286  1.0000
  H   H1306     1.0  0.67097  0.66071  0.42530  1.0000
  S   S170      1.0  0.77650  0.51886  0.30919  1.0000
  C   C723      1.0  0.90699  0.50530  0.32032  1.0000
  C   C724      1.0  0.66459  0.60897  0.40507  1.0000
  H   H1307     1.0  0.73322  0.58331  0.35395  1.0000
  H   H1308     1.0  0.71345  0.51036  0.49697  1.0000
  C   C725      1.0  0.50384  0.52555  0.43061  1.0000
  C   C726      1.0  0.65750  0.49933  0.35911  1.0000
  C   C727      1.0  0.84349  0.55102  0.58961  1.0000
  H   H1309     1.0  0.63234  0.58542  0.37661  1.0000
  H   H1310     1.0  0.83349  0.53414  0.59977  1.0000
  H   H1311     1.0  0.49682  0.68519  0.53379  1.0000
  H   H1312     1.0  0.83039  0.58581  0.61121  1.0000
  H   H1313     1.0  0.73117  0.48597  0.35580  1.0000
  H   H1314     1.0  0.76218  0.57534  0.55711  1.0000
  C   C728      1.0  0.51148  0.60898  0.45692  1.0000
  C   C729      1.0  0.52705  0.58560  0.46805  1.0000
  C   C730      1.0  0.51614  0.57560  0.48831  1.0000
  H   H1315     1.0  0.51992  0.61709  0.44136  1.0000
  H   H1316     1.0  0.52837  0.55816  0.49728  1.0000
  C   C731      1.0  0.68160  0.50644  0.57888  1.0000
  C   C732      1.0  0.68691  0.58069  0.36092  1.0000
  N   N41       1.0  0.66580  0.57700  0.40108  1.0000
  C   C733      1.0  0.80978  0.47888  0.53234  1.0000
  C   C734      1.0  0.65243  0.50958  0.54552  1.0000
  C   C735      1.0  0.66760  0.52287  0.56164  1.0000
  H   H1317     1.0  0.71820  0.49414  0.53566  1.0000
  H   H1318     1.0  0.58495  0.54520  0.39162  1.0000
  H   H1319     1.0  0.64161  0.52252  0.53245  1.0000
  H   H1320     1.0  0.66837  0.54607  0.56079  1.0000
  C   C736      1.0  0.71476  0.57314  0.34719  1.0000
  H   H1321     1.0  0.73517  0.55175  0.56568  1.0000
  C   C737      1.0  0.75891  0.55315  0.56336  1.0000
  C   C738      1.0  0.85587  0.49737  0.32374  1.0000
  H   H1322     1.0  0.90236  0.58204  0.30801  1.0000
  H   H1323     1.0  0.65750  0.62180  0.39002  1.0000
  H   H1324     1.0  0.79487  0.53511  0.54372  1.0000
  C   C739      1.0  0.63710  0.57137  0.39155  1.0000
  C   C740      1.0  0.70469  0.48114  0.38548  1.0000
  H   H1325     1.0  0.78361  0.49633  0.57049  1.0000
  H   H1326     1.0  0.63911  0.50644  0.34896  1.0000
  H   H1327     1.0  0.69359  0.55486  0.46477  1.0000
  H   H1328     1.0  0.66883  0.57212  0.35231  1.0000
  H   H1329     1.0  0.95320  0.60996  0.58310  1.0000
  C   C741      1.0  0.68953  0.56708  0.38457  1.0000
  H   H1330     1.0  0.71134  0.57062  0.39043  1.0000
  C   C742      1.0  0.68574  0.49720  0.34962  1.0000
  H   H1331     1.0  0.85653  0.48013  0.50198  1.0000
  H   H1332     1.0  0.63830  0.54878  0.38591  1.0000
  H   H1333     1.0  0.76957  0.54948  0.57953  1.0000
  C   C743      1.0  0.92221  0.59544  0.60736  1.0000
  S   S171      1.0  0.92529  0.50585  0.58450  1.0000
  H   H1334     1.0  0.87369  0.53570  0.33404  1.0000
  H   H1335     1.0  0.52700  0.49434  0.40863  1.0000
  C   C744      1.0  0.66961  0.55951  0.42252  1.0000
  H   H1336     1.0  0.56342  0.57274  0.40685  1.0000
  H   H1337     1.0  0.69735  0.61178  0.43005  1.0000
  Fe  Fe83      1.0  0.96026  0.50137  0.60965  1.0000
  H   H1338     1.0  0.72514  0.53060  0.45749  1.0000
  C   C745      1.0  0.88212  0.48673  0.61160  1.0000
  N   N42       1.0  0.88231  0.58607  0.63701  1.0000
  C   C746      1.0  0.87176  0.56361  0.62266  1.0000
  H   H1339     1.0  0.81133  0.49915  0.52229  1.0000
  H   H1340     1.0  0.49160  0.48307  0.43837  1.0000
  H   H1341     1.0  0.90809  0.62238  0.63470  1.0000
  H   H1342     1.0  0.86580  0.62480  0.33572  1.0000
  H   H1343     1.0  0.65818  0.57143  0.43641  1.0000
  H   H1344     1.0  0.68941  0.51898  0.45537  1.0000
  C   C747      1.0  0.60986  0.57607  0.40712  1.0000
  H   H1345     1.0  0.64691  0.52397  0.62761  1.0000
  H   H1346     1.0  0.83382  0.50496  0.32856  1.0000
  C   C748      1.0  0.89785  0.60798  0.62356  1.0000
  H   H1347     1.0  0.91339  0.58216  0.59475  1.0000
  H   H1348     1.0  0.70958  0.66079  0.42020  1.0000
  C   C749      1.0  0.51693  0.51710  0.40804  1.0000
  H   H1349     1.0  0.71165  0.61414  0.40196  1.0000
  H   H1350     1.0  0.76446  0.49844  0.50925  1.0000
  H   H1351     1.0  0.71058  0.53161  0.41872  1.0000
  H   H1352     1.0  0.57901  0.58188  0.38032  1.0000
  H   H1353     1.0  0.65897  0.53908  0.42174  1.0000
  H   H1354     1.0  0.89050  0.55002  0.61522  1.0000
  C   C750      1.0  0.69274  0.62023  0.41307  1.0000
  C   C751      1.0  0.70932  0.48780  0.36288  1.0000
  H   H1355     1.0  0.49102  0.83676  0.57426  1.0000
  C   C752      1.0  0.87845  0.51473  0.32694  1.0000
  S   S172      1.0  0.58487  0.49574  0.43487  1.0000
  H   H1356     1.0  0.69026  0.54324  0.38289  1.0000
  S   S173      1.0  0.56459  0.49081  0.48746  1.0000
  C   C753      1.0  0.65284  0.49233  0.38167  1.0000
  H   H1357     1.0  0.64762  0.61523  0.41786  1.0000
  H   H1358     1.0  0.48848  0.49973  0.53571  1.0000
  H   H1359     1.0  0.86334  0.54099  0.58102  1.0000
  H   H1360     1.0  0.98379  0.50840  0.48561  1.0000
  C   C754      1.0  0.53537  0.96126  0.59962  1.0000
  H   H1361     1.0  0.75975  0.53542  0.53128  1.0000
  C   C755      1.0  0.77181  0.53106  0.54677  1.0000
  H   H1362     1.0  0.74721  0.49853  0.56217  1.0000
  H   H1363     1.0  0.61219  0.56225  0.42237  1.0000
  C   C756      1.0  0.93667  0.61961  0.59507  1.0000
  C   C757      1.0  0.70128  0.54942  0.42940  1.0000
  C   C758      1.0  0.53112  0.94855  0.62292  1.0000
  H   H1364     1.0  0.82775  0.55977  0.57699  1.0000
  C   C759      1.0  0.58271  0.56847  0.39567  1.0000
  C   C760      1.0  0.76976  0.49960  0.55566  1.0000
  H   H1365     1.0  0.71158  0.58117  0.32988  1.0000
  H   H1366     1.0  0.86106  0.59147  0.59313  1.0000
  C   C761      1.0  0.85107  0.57541  0.60404  1.0000
  H   H1367     1.0  0.94771  0.63245  0.60683  1.0000
  H   H1368     1.0  0.93950  0.58183  0.61622  1.0000
  H   H1369     1.0  0.68702  0.48567  0.50451  1.0000
  H   H1370     1.0  0.53055  0.92488  0.62145  1.0000
  C   C762      1.0  0.76018  0.47875  0.51923  1.0000
  H   H1371     1.0  0.51677  0.95750  0.58921  1.0000
  C   C763      1.0  0.48711  0.50578  0.47793  1.0000
  H   H1372     1.0  0.53406  0.53133  0.40323  1.0000
  C   C764      1.0  0.89700  0.48436  0.59122  1.0000
  Fe  Fe84      1.0  0.63051  0.48263  0.44518  1.0000
  H   H1373     1.0  0.55040  0.95195  0.63250  1.0000
  C   C765      1.0  0.72687  0.47882  0.52296  1.0000
  Fe  Fe85      1.0  0.61230  0.47814  0.49417  1.0000
  H   H1374     1.0  0.49991  0.48435  0.47585  1.0000
  H   H1375     1.0  0.51500  0.51455  0.51755  1.0000
  H   H1376     1.0  0.63102  0.49407  0.38877  1.0000
  H   H1377     1.0  0.49997  0.51958  0.39531  1.0000
  C   C766      1.0  0.65079  0.47967  0.54664  1.0000
  H   H1378     1.0  0.48759  0.92218  0.31915  1.0000
  C   C767      1.0  0.50240  0.96216  0.63381  1.0000
  H   H1379     1.0  0.50361  0.52157  0.47654  1.0000
  C   C768      1.0  0.71065  0.48755  0.50177  1.0000
  H   H1380     1.0  0.55565  0.95072  0.59194  1.0000
  C   C769      1.0  0.48968  0.58861  0.49718  1.0000
  H   H1381     1.0  0.98270  0.54743  0.48249  1.0000
  C   C770      1.0  0.49820  0.49905  0.51876  1.0000
  H   H1382     1.0  0.84359  0.61650  0.63690  1.0000
  H   H1383     1.0  0.49189  0.90294  0.63722  1.0000
  Fe  Fe86      1.0  0.97549  0.50875  0.30564  1.0000
  H   H1384     1.0  0.89480  0.52712  0.73755  1.0000
  H   H1385     1.0  0.83918  0.70047  0.91070  1.0000
  S   S174      1.0  0.52812  0.93823  0.73965  1.0000
  H   H1386     1.0  0.71249  0.83914  0.86793  1.0000
  H   H1387     1.0  0.86571  0.74640  0.78913  1.0000
  H   H1388     1.0  0.95903  0.75050  0.77445  1.0000
  H   H1389     1.0  0.89196  0.64250  0.93563  1.0000
  N   N43       1.0  0.86386  0.67605  0.95170  1.0000
  H   H1390     1.0  0.96780  0.63916  0.79718  1.0000
  C   C771      1.0  0.91014  0.54181  0.68915  1.0000
  H   H1391     1.0  0.63443  0.94199  0.87431  1.0000
  H   H1392     1.0  0.87744  0.63706  0.66303  1.0000
  S   S175      1.0  0.87149  0.64121  0.77747  1.0000
  Fe  Fe87      1.0  0.87028  0.57991  0.82218  1.0000
  S   S176      1.0  0.83375  0.61505  0.81873  1.0000
  S   S177      1.0  0.86961  0.54729  0.85037  1.0000
  Fe  Fe88      1.0  0.83935  0.60800  0.78231  1.0000
  S   S178      1.0  0.79932  0.60593  0.76186  1.0000
  Fe  Fe89      1.0  0.86874  0.64519  0.81467  1.0000
  S   S179      1.0  0.86082  0.68867  0.83174  1.0000
  S   S180      1.0  0.87309  0.57024  0.78627  1.0000
  H   H1393     1.0  0.91946  0.78026  0.84066  1.0000
  S   S181      1.0  0.73125  0.51187  0.66080  1.0000
  N   N44       1.0  0.92677  0.72339  0.78729  1.0000
  H   H1394     1.0  0.82945  0.73565  0.76246  1.0000
  S   S182      1.0  0.81196  0.53970  0.67185  1.0000
  C   C772      1.0  0.98400  0.90008  0.97075  1.0000
  H   H1395     1.0  0.92195  0.55900  0.64436  1.0000
  Fe  Fe90      1.0  0.90519  0.60357  0.78363  1.0000
  C   C773      1.0  0.92026  0.73946  0.80834  1.0000
  H   H1396     1.0  0.91361  0.58719  0.66278  1.0000
  H   H1397     1.0  0.82347  0.64993  0.66631  1.0000
  Fe  Fe91      1.0  0.90573  0.77486  0.93650  1.0000
  H   H1398     1.0  0.50183  0.88512  0.78154  1.0000
  S   S183      1.0  0.92345  0.73996  0.91229  1.0000
  Fe  Fe92      1.0  0.86096  0.82545  0.94909  1.0000
  S   S184      1.0  0.82577  0.85756  0.93407  1.0000
  S   S185      1.0  0.90528  0.82337  0.93232  1.0000
  C   C774      1.0  0.85635  0.60178  0.64870  1.0000
  C   C775      1.0  0.84975  0.64057  0.92260  1.0000
  C   C776      1.0  0.93746  0.74404  0.76994  1.0000
  C   C777      1.0  0.80181  0.88077  0.95034  1.0000
  H   H1399     1.0  0.90405  0.69700  0.76599  1.0000
  H   H1400     1.0  0.51830  0.86659  0.67665  1.0000
  C   C778      1.0  0.80232  0.58587  0.73757  1.0000
  C   C779      1.0  0.77846  0.58672  0.72363  1.0000
  C   C780      1.0  0.78063  0.57152  0.70383  1.0000
  C   C781      1.0  0.80664  0.55518  0.69803  1.0000
  C   C782      1.0  0.83016  0.55381  0.71230  1.0000
  C   C783      1.0  0.82810  0.56915  0.73192  1.0000
  H   H1401     1.0  0.75844  0.59966  0.72792  1.0000
  H   H1402     1.0  0.76251  0.57312  0.69281  1.0000
  H   H1403     1.0  0.85018  0.54092  0.70820  1.0000
  H   H1404     1.0  0.84658  0.56826  0.74252  1.0000
  C   C784      1.0  0.87732  0.70114  0.85533  1.0000
  C   C785      1.0  0.87934  0.73945  0.88197  1.0000
  C   C786      1.0  0.90443  0.72493  0.89105  1.0000
  C   C787      1.0  0.91569  0.69830  0.88229  1.0000
  C   C788      1.0  0.90213  0.68634  0.86464  1.0000
  H   H1405     1.0  0.93521  0.68699  0.88906  1.0000
  H   H1406     1.0  0.91117  0.66597  0.85798  1.0000
  H   H1407     1.0  0.70132  0.51842  0.72988  1.0000
  C   C789      1.0  0.94659  0.75177  0.81872  1.0000
  H   H1408     1.0  0.87058  0.76008  0.88836  1.0000
  C   C790      1.0  0.80950  0.73486  0.92280  1.0000
  H   H1409     1.0  0.95379  0.76986  0.80820  1.0000
  H   H1410     1.0  0.84228  0.96586  0.94050  1.0000
  H   H1411     1.0  0.97895  0.52269  0.77784  1.0000
  C   C791      1.0  0.84288  0.49941  0.86267  1.0000
  C   C792      1.0  0.85561  0.51445  0.84521  1.0000
  C   C793      1.0  0.85764  0.50273  0.82421  1.0000
  H   H1412     1.0  0.68295  0.94213  0.87587  1.0000
  S   S186      1.0  0.86023  0.77706  0.95068  1.0000
  H   H1413     1.0  0.84101  0.50851  0.87890  1.0000
  H   H1414     1.0  0.86619  0.51498  0.81060  1.0000
  H   H1415     1.0  0.96571  0.63901  0.82689  1.0000
  H   H1416     1.0  0.97185  0.70615  0.79148  1.0000
  S   S187      1.0  0.52823  0.95237  0.80467  1.0000
  H   H1417     1.0  0.50868  0.92199  0.68310  1.0000
  H   H1418     1.0  0.89989  0.48902  0.74492  1.0000
  H   H1419     1.0  0.53235  0.87657  0.74062  1.0000
  H   H1420     1.0  0.87942  0.74935  0.76111  1.0000
  C   C794      1.0  0.89768  0.51115  0.75149  1.0000
  H   H1421     1.0  0.84692  0.73940  0.85704  1.0000
  C   C795      1.0  0.83519  0.63521  0.67862  1.0000
  H   H1422     1.0  0.81716  0.68469  0.94766  1.0000
  S   S188      1.0  0.90510  0.61024  0.82038  1.0000
  C   C796      1.0  0.83737  0.71446  0.92523  1.0000
  H   H1423     1.0  0.78415  0.57364  0.80513  1.0000
  H   H1424     1.0  0.82869  0.65372  0.92009  1.0000
  H   H1425     1.0  0.74725  0.52706  0.79290  1.0000
  H   H1426     1.0  0.84185  0.49256  0.72417  1.0000
  C   C797      1.0  0.84767  0.71913  0.76667  1.0000
  C   C798      1.0  0.86600  0.72767  0.86417  1.0000
  C   C799      1.0  0.89943  0.71144  0.78022  1.0000
  H   H1427     1.0  0.80205  0.55536  0.82842  1.0000
  H   H1428     1.0  0.76371  0.55327  0.82502  1.0000
  C   C800      1.0  0.78546  0.90445  0.94013  1.0000
  C   C801      1.0  0.76559  0.92285  0.95252  1.0000
  H   H1429     1.0  0.88894  0.52835  0.66057  1.0000
  N   N45       1.0  0.95075  0.50244  0.80119  1.0000
  H   H1430     1.0  0.90177  0.52450  0.69966  1.0000
  H   H1431     1.0  0.93267  0.53424  0.68383  1.0000
  C   C802      1.0  0.93844  0.76361  0.84150  1.0000
  H   H1432     1.0  0.75328  0.94109  0.94462  1.0000
  C   C803      1.0  0.68619  0.89114  0.96717  1.0000
  H   H1433     1.0  0.72927  0.49968  0.71258  1.0000
  H   H1434     1.0  0.91012  0.56116  0.69937  1.0000
  S   S189      1.0  0.95079  0.50004  0.64596  1.0000
  H   H1435     1.0  0.53351  0.92176  0.66071  1.0000
  H   H1436     1.0  0.86250  0.64549  0.88785  1.0000
  C   C804      1.0  0.90344  0.57108  0.65317  1.0000
  H   H1437     1.0  0.95651  0.71240  0.74590  1.0000
  C   C805      1.0  0.96775  0.57807  0.69235  1.0000
  H   H1438     1.0  0.69098  0.86692  0.93796  1.0000
  H   H1439     1.0  0.88124  0.67257  0.91823  1.0000
  H   H1440     1.0  0.97624  0.52332  0.83642  1.0000
  H   H1441     1.0  0.91942  0.53161  0.81863  1.0000
  S   S190      1.0  0.97755  0.57437  0.66402  1.0000
  H   H1442     1.0  0.92011  0.72751  0.73974  1.0000
  H   H1443     1.0  0.90978  0.72564  0.82091  1.0000
  C   C806      1.0  0.94282  0.60694  0.72156  1.0000
  S   S191      1.0  0.94920  0.59356  0.76613  1.0000
  H   H1444     1.0  0.94771  0.55033  0.84294  1.0000
  H   H1445     1.0  0.87441  0.49156  0.68589  1.0000
  H   H1446     1.0  0.90394  0.75838  0.80554  1.0000
  H   H1447     1.0  0.94486  0.71040  0.95583  1.0000
  C   C807      1.0  0.96176  0.54131  0.82911  1.0000
  H   H1448     1.0  0.87400  0.60664  0.68176  1.0000
  H   H1449     1.0  0.87787  0.51382  0.76231  1.0000
  H   H1450     1.0  0.50691  0.95779  0.95174  1.0000
  H   H1451     1.0  0.55253  0.95503  0.67835  1.0000
  C   C808      1.0  0.64664  0.51932  0.64570  1.0000
  C   C809      1.0  0.97947  0.87166  0.96545  1.0000
  C   C810      1.0  0.95338  0.75467  0.73035  1.0000
  H   H1452     1.0  0.67250  0.85262  0.90847  1.0000
  H   H1453     1.0  0.79032  0.72234  0.92214  1.0000
  H   H1454     1.0  0.72136  0.82993  0.89638  1.0000
  H   H1455     1.0  0.80649  0.74981  0.93678  1.0000
  C   C811      1.0  0.67861  0.88735  0.94314  1.0000
  H   H1456     1.0  0.93713  0.48680  0.83375  1.0000
  H   H1457     1.0  0.83751  0.64484  0.96716  1.0000
  C   C812      1.0  0.51192  0.88437  0.73317  1.0000
  H   H1458     1.0  0.73508  0.92689  0.88822  1.0000
  C   C813      1.0  0.97101  0.56177  0.73080  1.0000
  H   H1459     1.0  0.72178  0.53843  0.70997  1.0000
  H   H1460     1.0  0.84057  0.64810  0.69277  1.0000
  C   C814      1.0  0.72752  0.97249  0.88080  1.0000
  C   C815      1.0  0.51442  0.87077  0.65877  1.0000
  C   C816      1.0  0.94563  0.67831  0.81117  1.0000
  H   H1461     1.0  0.88065  0.61403  0.90192  1.0000
  H   H1462     1.0  0.83989  0.70456  0.77999  1.0000
  H   H1463     1.0  0.77075  0.54371  0.77365  1.0000
  H   H1464     1.0  0.78825  0.90852  0.92257  1.0000
  H   H1465     1.0  0.84076  0.58641  0.65473  1.0000
  C   C817      1.0  0.95339  0.58648  0.73758  1.0000
  H   H1466     1.0  0.75101  0.97540  0.88167  1.0000
  Fe  Fe93      1.0  0.92224  0.82251  0.96674  1.0000
  H   H1467     1.0  0.81399  0.52827  0.79488  1.0000
  H   H1468     1.0  0.94697  0.69008  0.82667  1.0000
  H   H1469     1.0  0.89131  0.69718  0.79344  1.0000
  C   C818      1.0  0.94992  0.69836  0.79058  1.0000
  C   C819      1.0  0.83344  0.96904  0.95760  1.0000
  H   H1470     1.0  0.94402  0.51173  0.75295  1.0000
  H   H1471     1.0  0.67545  0.95969  0.90135  1.0000
  C   C820      1.0  0.76929  0.52436  0.78481  1.0000
  H   H1472     1.0  0.81473  0.95568  0.95902  1.0000
  C   C821      1.0  0.68825  0.94079  0.89367  1.0000
  H   H1473     1.0  0.87095  0.91919  0.95178  1.0000
  H   H1474     1.0  0.92423  0.66955  0.81116  1.0000
  C   C822      1.0  0.72309  0.51969  0.72188  1.0000
  C   C823      1.0  0.89086  0.54870  0.66925  1.0000
  H   H1475     1.0  0.92983  0.62640  0.72657  1.0000
  H   H1476     1.0  0.76683  0.52511  0.73020  1.0000
  H   H1477     1.0  0.85384  0.70634  0.75180  1.0000
  H   H1478     1.0  0.89379  0.70745  0.94271  1.0000
  C   C824      1.0  0.86314  0.62024  0.66842  1.0000
  H   H1479     1.0  0.66115  0.53358  0.65340  1.0000
  C   C825      1.0  0.87346  0.73399  0.77443  1.0000
  H   H1480     1.0  0.97455  0.47779  0.82712  1.0000
  H   H1481     1.0  0.90625  0.49743  0.79398  1.0000
  C   C826      1.0  0.78495  0.55396  0.81609  1.0000
  H   H1482     1.0  0.95577  0.74586  0.71351  1.0000
  H   H1483     1.0  0.93309  0.74582  0.85306  1.0000
  C   C827      1.0  0.79218  0.52678  0.80272  1.0000
  H   H1484     1.0  0.93947  0.54900  0.79825  1.0000
  C   C828      1.0  0.83697  0.69649  0.94726  1.0000
  Fe  Fe94      1.0  0.77959  0.51349  0.65655  1.0000
  C   C829      1.0  0.72095  0.94568  0.89458  1.0000
  C   C830      1.0  0.74579  0.52358  0.73910  1.0000
  H   H1485     1.0  0.86914  0.55673  0.67560  1.0000
  H   H1486     1.0  0.72714  0.94927  0.91168  1.0000
  H   H1487     1.0  0.80556  0.51690  0.75197  1.0000
  C   C831      1.0  0.80204  0.49555  0.75993  1.0000
  H   H1488     1.0  0.79334  0.50794  0.81447  1.0000
  H   H1489     1.0  0.72228  0.97010  0.86323  1.0000
  H   H1490     1.0  0.81090  0.74801  0.90724  1.0000
  N   N46       1.0  0.67966  0.91287  0.90425  1.0000
  C   C832      1.0  0.64708  0.91316  0.90255  1.0000
  C   C833      1.0  0.68732  0.91298  0.92831  1.0000
  H   H1491     1.0  0.82001  0.49119  0.77181  1.0000
  C   C834      1.0  0.69632  0.88768  0.89278  1.0000
  C   C835      1.0  0.68166  0.85904  0.89224  1.0000
  C   C836      1.0  0.63494  0.91867  0.87899  1.0000
  H   H1492     1.0  0.84589  0.62231  0.93422  1.0000
  H   H1493     1.0  0.94300  0.61943  0.68695  1.0000
  H   H1494     1.0  0.73921  0.54439  0.74718  1.0000
  C   C837      1.0  0.70332  0.83411  0.88458  1.0000
  C   C838      1.0  0.60382  0.91053  0.87778  1.0000
  H   H1495     1.0  0.72690  0.49910  0.76578  1.0000
  H   H1496     1.0  0.63584  0.93022  0.91311  1.0000
  H   H1497     1.0  0.63940  0.89275  0.90928  1.0000
  H   H1498     1.0  0.71122  0.91278  0.93010  1.0000
  C   C839      1.0  0.50991  0.92485  0.66482  1.0000
  C   C840      1.0  0.96907  0.65267  0.81184  1.0000
  H   H1499     1.0  0.62418  0.52448  0.65241  1.0000
  H   H1500     1.0  0.70103  0.89356  0.87516  1.0000
  H   H1501     1.0  0.71813  0.88269  0.90021  1.0000
  H   H1502     1.0  0.66351  0.86134  0.88051  1.0000
  C   C841      1.0  0.49560  0.89941  0.65514  1.0000
  C   C842      1.0  0.50311  0.91405  0.73225  1.0000
  H   H1503     1.0  0.64865  0.90644  0.86648  1.0000
  Fe  Fe95      1.0  0.51955  0.96644  0.76932  1.0000
  H   H1504     1.0  0.65493  0.88540  0.94279  1.0000
  H   H1505     1.0  0.96533  0.73515  0.82071  1.0000
  H   H1506     1.0  0.67737  0.93338  0.93585  1.0000
  H   H1507     1.0  0.92314  0.53954  0.76758  1.0000
  H   H1508     1.0  0.92676  0.66288  0.95063  1.0000
  C   C843      1.0  0.92479  0.51636  0.76409  1.0000
  H   H1509     1.0  0.85600  0.72766  0.92444  1.0000
  H   H1510     1.0  0.53562  0.87112  0.64973  1.0000
  H   H1511     1.0  0.69215  0.81411  0.88372  1.0000
  H   H1512     1.0  0.60322  0.88688  0.88071  1.0000
  C   C844      1.0  0.95049  0.60304  0.69911  1.0000
  H   H1513     1.0  0.59523  0.91651  0.86113  1.0000
  C   C845      1.0  0.85974  0.62790  0.90037  1.0000
  C   C846      1.0  0.92763  0.49673  0.78526  1.0000
  H   H1514     1.0  0.83319  0.71235  0.96068  1.0000
  C   C847      1.0  0.94172  0.53152  0.81108  1.0000
  H   H1515     1.0  0.84316  0.61447  0.89441  1.0000
  H   H1516     1.0  0.92282  0.76459  0.76927  1.0000
  C   C848      1.0  0.87310  0.65847  0.93177  1.0000
  H   H1517     1.0  0.68052  0.48432  0.64544  1.0000
  H   H1518     1.0  0.95136  0.68424  0.77603  1.0000
  C   C849      1.0  0.94123  0.73239  0.74623  1.0000
  H   H1519     1.0  0.93839  0.77492  0.72962  1.0000
  H   H1520     1.0  0.95708  0.77358  0.84819  1.0000
  C   C850      1.0  0.49493  0.86469  0.72398  1.0000
  N   N47       1.0  0.77290  0.49686  0.77196  1.0000
  H   H1521     1.0  0.82067  0.61890  0.68486  1.0000
  H   H1522     1.0  0.50214  0.84181  0.72476  1.0000
  H   H1523     1.0  0.58950  0.92238  0.89020  1.0000
  H   H1524     1.0  0.71016  0.88988  0.96882  1.0000
  H   H1525     1.0  0.96639  0.58459  0.81527  1.0000
  C   C851      1.0  0.88821  0.69373  0.95718  1.0000
  H   H1526     1.0  0.88115  0.70945  0.97023  1.0000
  H   H1527     1.0  0.50314  0.85274  0.65266  1.0000
  N   N48       1.0  0.49689  0.95478  0.65793  1.0000
  C   C852      1.0  0.65730  0.48766  0.65078  1.0000
  H   H1528     1.0  0.75929  0.47788  0.80348  1.0000
  C   C853      1.0  0.74795  0.49806  0.75627  1.0000
  H   H1529     1.0  0.65597  0.48408  0.66892  1.0000
  Fe  Fe96      1.0  0.98535  0.53067  0.64772  1.0000
  C   C854      1.0  0.49409  0.97046  0.96455  1.0000
  C   C855      1.0  0.97985  0.50380  0.78965  1.0000
  C   C856      1.0  0.97751  0.55716  0.70829  1.0000
  C   C857      1.0  0.98042  0.56503  0.82072  1.0000
  H   H1530     1.0  0.49994  0.97353  0.68974  1.0000
  S   S192      1.0  0.92671  0.77366  0.96992  1.0000
  C   C858      1.0  0.91706  0.67627  0.96427  1.0000
  C   C859      1.0  0.93959  0.69636  0.97027  1.0000
  H   H1531     1.0  0.79204  0.47745  0.72837  1.0000
  H   H1532     1.0  0.98010  0.54630  0.74300  1.0000
  C   C860      1.0  0.95251  0.47990  0.81994  1.0000
  C   C861      1.0  0.85718  0.65575  0.97065  1.0000
  H   H1533     1.0  0.97511  0.75970  0.73560  1.0000
  H   H1534     1.0  0.48740  0.90100  0.80681  1.0000
  C   C862      1.0  0.54175  0.97662  0.67356  1.0000
  C   C863      1.0  0.50834  0.97659  0.67246  1.0000
  H   H1535     1.0  0.74890  0.47799  0.74672  1.0000
  H   H1536     1.0  0.87804  0.96587  0.96993  1.0000
  C   C864      1.0  0.86448  0.92316  0.96929  1.0000
