data_image0
_chemical_formula_structural       H2CSCHC2HFeSHSHSCNHSC3HC2H5C6H5C2H3C4H5CHCH4CH3C2H4FeH2CHC3H2CSH5CSCHCSCH3CHNC6H2FeH12NCHC5H2CHCH15SFeH15S2H2CH6C4H7C2H5FeHCH2CH3NH2C2H3CSCH6CHSC3FeCH5CHS2FeS2FeS2FeS2FeSFeS3C6H4C6H4FeH3SH2C2H2C3NH3CHC2HCH5SNC2HC2H2C2H7CSCH12CHC3HCH2C2H5SC4HC3H2Fe2HCHCFeH10C2H2C3SNH2C3H5C2SHSH2CH3CHCH2C3HCH5C2H6NCHCH5CFeH8C2HC2H3CFeSHFeCSHC2FeSCHFeSH6NHCH4C2H4CHC3SC2HCSH3CH4C2SH2C7H5CH4CH2CSH4NHCHC2H3NCH7CSC3HNH5C4HCH4CH5CH2C3H4CH2SNCH2CHCH3C2HCHCH7SH5C3H7CH2C2HC2H2C2HC3H2SC2H3CHCHSH2CH2CH2CH2C2FeH2C2HFeH3CH2CHFeS2FeS2FeSFeS3CH3FeS2FeSCFeS2FeSFeSCSC4HC2HCH3CNCHCH2C2H2CH3C4HCH4C6H5C4H3CH3CHCH5CHCHCH4SHNH3C4HC4H4CHCH3CHC2H7SH2CH2FeNC5HC4H6CH13FeH3C4H3CHCH3C3H4CH5CH5CH3NH3CSH5CHCH2C3H2CSH5CH4C2SC3NH2C2H2C2H2CH4CH3C2H4C2H3SH12CH3SC2HC3HSCHCNHCHCH6C5H3C4H2CH5CHCHCH11CHC2H5C2H3SH3CH9CH5FeSHFeS2FeSFe2S2HCHS2FeS2FeSCFeSHSHCH2FeS2FeSHSCH3C5H4CHCHSH2C6H5CH6CHC6H4C6H4C2HCH3C2HNHC3H4C2H5SCHNC4H6C2FeH2C4SH6SCH2CH5NH2CH4NH4CHC3HC3HCH2SHNCHCSCH4NHCH2CHFeH3C2H2CH4SH6CH4CHFeH2CH2CNH2CH2C2H4CH2FeH4C2H3C2H2C2HSNH2CH5C2SC2H4CH3CH2FeHC2HCHC2HC2HC2H2CH2CH2SCHCH4FeS2FeS2FeHFeS3FeS2FeS2FeSCHS2H3S2H2C2H3C3H2CHC5H2C2HSH2CNH2C2HCHCH4C6H4CNC5H3CH4SH3CHCH3CH2CH2C2SCH2CFeHCH3NC4NCH7CFeCH2CH2CNC9H5CH11CH6CH2CH7C2HC4H6C3H8CH3CHCH3NC2H3CHCH2CH3CH2C2SH2FeH7SHC2H8CFeHC2H3CH5CHFeH2C2H5CHC2NCH2C2H2CHCH2CH2C2H4C2HCH5CHCH2CH2C2H2SC2HC2HC2H5CH3CH2C2NH7C3H3CHSH2C2H4CHSCFeHCH3FeH5S2H2C3H2FeS2FeSCFeHFeS3CSHNSH2C2H3SHFeS2FeSHSHCHCHC6H6CH5C4H5C6H4C6H7CSC2HCFeH2CHCH3CH2SH2CSH3CHNC12H22C2HNCHC2H2SH4FeHFeH4CHFeH3C2HSHSHC2H2C2H8C2H2C2SCHC2HCHFeH2SC2H3CH2CH2C2H2CHCHC2FeC2H3SHCHSCH4CHC5H6CSHCHCHCH2C2H2FeCH2CSCH4CHNCNC3HCH2CH3CHSHSH5C2HCHSH8C3H2FeH3CHC2H2CH13CH3SH5C2H2C2H4FeSFeH2SFeSCFeSHSFeS2FeS2FeSFeS3C6H4CH4FeC6FeH3SHC2H3C2H2C5HCH3CSHCH2C2HCH3C2H2CHC2H8SHNH6CSHCHC2H2S2H6C2HC2H3NCHCHCSC3SH2CH4C2HNCH2CHCHCHC3HCHCHCFeHCH2C3HCSH2SH4C2H2CHCNHCH2CH2C2HFeH5C2SH3CH2CH3CHC2H3SH5CHCH3C2HSCH10CHCH3CHSH2SHSFeSFeCH3FeS2FeSCFeSHSCH3CHSC2H5CH4C7H2CHFeHSHCHS2H2C6H5C2HCH10CH8C3H2CH2NCHCH2CH4CNC3HCH2CH3CH8C3HCHCFeCH2CFeHCHCH9CH6CHCH4C2H3CHC2NCHCH4CH5CH3CNH2CH4C2HCH2CHCH6SH2
_chemical_formula_sum              "H1536 C864 S192 Fe96 N48"
_cell_length_a       46.3365
_cell_length_b       44.1171
_cell_length_c       59.2251
_cell_angle_alpha    84.4166
_cell_angle_beta     90.3623
_cell_angle_gamma    89.9687

_space_group_name_H-M_alt    "P 1"
_space_group_IT_number       1

loop_
  _space_group_symop_operation_xyz
  'x, y, z'

loop_
  _atom_site_type_symbol
  _atom_site_label
  _atom_site_symmetry_multiplicity
  _atom_site_fract_x
  _atom_site_fract_y
  _atom_site_fract_z
  _atom_site_occupancy
  H   H1        1.0  0.44948  0.03065  0.26354  1.0000
  H   H2        1.0  0.47232  0.04902  0.11799  1.0000
  C   C1        1.0  0.00189  0.48715  0.15610  1.0000
  S   S1        1.0  0.38769  0.07263  0.18807  1.0000
  C   C2        1.0  0.44717  0.00114  0.30672  1.0000
  H   H3        1.0  0.02879  0.24245  0.22656  1.0000
  C   C3        1.0  0.99257  0.32107  0.07404  1.0000
  C   C4        1.0  0.31049  0.03424  0.22911  1.0000
  H   H4        1.0  0.13526  0.03373  0.07371  1.0000
  Fe  Fe1       1.0  0.01557  0.37748  0.18813  1.0000
  S   S2        1.0  0.06369  0.38157  0.19036  1.0000
  H   H5        1.0  0.27514  0.05046  0.17545  1.0000
  S   S3        1.0  0.10949  0.46642  0.29191  1.0000
  H   H6        1.0  0.04919  0.35312  0.27134  1.0000
  S   S4        1.0  0.38647  0.00356  0.15001  1.0000
  C   C5        1.0  0.46027  0.15948  0.17874  1.0000
  N   N1        1.0  0.10141  0.49066  0.18763  1.0000
  H   H7        1.0  0.02597  0.02207  0.07341  1.0000
  S   S5        1.0  0.40844  0.09209  0.29121  1.0000
  C   C6        1.0  0.07332  0.38035  0.21913  1.0000
  C   C7        1.0  0.09875  0.39436  0.22566  1.0000
  C   C8        1.0  0.10571  0.39466  0.24876  1.0000
  H   H8        1.0  0.39297  0.03926  0.26924  1.0000
  C   C9        1.0  0.06292  0.36490  0.25866  1.0000
  C   C10       1.0  0.05533  0.36580  0.23566  1.0000
  H   H9        1.0  0.11292  0.40507  0.21287  1.0000
  H   H10       1.0  0.19177  0.08093  0.13710  1.0000
  H   H11       1.0  0.00447  0.46502  0.14994  1.0000
  H   H12       1.0  0.03577  0.35478  0.23073  1.0000
  H   H13       1.0  0.99930  0.18048  0.11942  1.0000
  C   C11       1.0  0.40412  0.08661  0.26244  1.0000
  C   C12       1.0  0.40794  0.11079  0.24561  1.0000
  C   C13       1.0  0.40260  0.10657  0.22275  1.0000
  C   C14       1.0  0.39484  0.07780  0.21660  1.0000
  C   C15       1.0  0.39221  0.05336  0.23338  1.0000
  C   C16       1.0  0.39597  0.05799  0.25630  1.0000
  H   H14       1.0  0.41422  0.13297  0.25031  1.0000
  H   H15       1.0  0.40477  0.12554  0.20987  1.0000
  H   H16       1.0  0.38668  0.03097  0.22881  1.0000
  H   H17       1.0  0.04679  0.46344  0.20271  1.0000
  H   H18       1.0  0.06846  0.08661  0.16131  1.0000
  C   C17       1.0  0.30601  0.02058  0.25399  1.0000
  C   C18       1.0  0.09239  0.02014  0.15374  1.0000
  H   H19       1.0  0.43916  0.23021  0.31052  1.0000
  H   H20       1.0  0.45873  0.15403  0.19740  1.0000
  H   H21       1.0  0.12515  0.40585  0.25380  1.0000
  C   C19       1.0  0.02597  0.09248  0.14655  1.0000
  C   C20       1.0  0.45028  0.05505  0.12331  1.0000
  C   C21       1.0  0.08788  0.37967  0.26525  1.0000
  C   C22       1.0  0.11193  0.03840  0.07058  1.0000
  H   H22       1.0  0.34868  0.12685  0.26327  1.0000
  H   H23       1.0  0.11718  0.07092  0.15848  1.0000
  H   H24       1.0  0.35112  0.00965  0.30386  1.0000
  H   H25       1.0  0.26741  0.48363  0.25106  1.0000
  H   H26       1.0  0.20177  0.05339  0.22415  1.0000
  C   C23       1.0  0.05253  0.07271  0.15279  1.0000
  H   H27       1.0  0.31651  0.11037  0.27609  1.0000
  C   C24       1.0  0.45584  0.00635  0.26442  1.0000
  H   H28       1.0  0.42874  0.09097  0.13860  1.0000
  H   H29       1.0  0.34882  0.99989  0.25836  1.0000
  H   H30       1.0  0.07395  0.00490  0.15042  1.0000
  H   H31       1.0  0.47957  0.00451  0.26694  1.0000
  C   C25       1.0  0.05728  0.47864  0.21416  1.0000
  H   H32       1.0  0.28626  0.99652  0.15654  1.0000
  H   H33       1.0  0.18340  0.47279  0.21771  1.0000
  H   H34       1.0  0.45469  0.09397  0.20235  1.0000
  C   C26       1.0  0.10405  0.46222  0.15076  1.0000
  C   C27       1.0  0.09285  0.43367  0.14090  1.0000
  H   H35       1.0  0.02066  0.03095  0.99737  1.0000
  H   H36       1.0  0.06949  0.46419  0.22731  1.0000
  H   H37       1.0  0.47102  0.00075  0.30874  1.0000
  H   H38       1.0  0.08855  0.44407  0.18411  1.0000
  Fe  Fe2       1.0  0.45023  0.11609  0.29684  1.0000
  H   H39       1.0  0.03418  0.39428  0.29453  1.0000
  H   H40       1.0  0.04529  0.05355  0.16500  1.0000
  C   C28       1.0  0.08928  0.46651  0.17371  1.0000
  H   H41       1.0  0.30899  0.03174  0.18220  1.0000
  C   C29       1.0  0.02085  0.01325  0.09061  1.0000
  C   C30       1.0  0.11931  0.99981  0.15903  1.0000
  C   C31       1.0  0.43763  0.18396  0.17204  1.0000
  H   H42       1.0  0.03512  0.19505  0.11373  1.0000
  H   H43       1.0  0.25928  0.32822  0.30170  1.0000
  C   C32       1.0  0.45499  0.13076  0.16607  1.0000
  S   S6        1.0  0.99063  0.39211  0.15629  1.0000
  H   H44       1.0  0.03189  0.11286  0.13500  1.0000
  H   H45       1.0  0.06896  0.43447  0.13911  1.0000
  H   H46       1.0  0.10238  0.43204  0.12391  1.0000
  H   H47       1.0  0.09902  0.41297  0.15209  1.0000
  H   H48       1.0  0.33481  0.07193  0.15801  1.0000
  C   C33       1.0  0.99972  0.02780  0.10264  1.0000
  S   S7        1.0  0.46070  0.16421  0.28350  1.0000
  C   C34       1.0  0.01106  0.25813  0.22039  1.0000
  H   H49       1.0  0.48739  0.11467  0.20489  1.0000
  C   C35       1.0  0.20975  0.06334  0.20739  1.0000
  S   S8        1.0  0.42691  0.99699  0.19677  1.0000
  C   C36       1.0  0.01197  0.20139  0.11430  1.0000
  H   H50       1.0  0.10966  0.05437  0.05498  1.0000
  H   H51       1.0  0.99470  0.33576  0.08818  1.0000
  H   H52       1.0  0.19458  0.08159  0.20069  1.0000
  C   C37       1.0  0.47715  0.09644  0.19584  1.0000
  H   H53       1.0  0.48601  0.06268  0.15675  1.0000
  N   N2        1.0  0.09489  0.04513  0.13450  1.0000
  C   C38       1.0  0.10143  0.03097  0.11291  1.0000
  C   C39       1.0  0.06567  0.06035  0.13147  1.0000
  C   C40       1.0  0.11702  0.06859  0.13993  1.0000
  C   C41       1.0  0.14865  0.06340  0.13245  1.0000
  C   C42       1.0  0.09845  0.05242  0.09063  1.0000
  C   C43       1.0  0.16953  0.08475  0.14315  1.0000
  H   H54       1.0  0.01638  0.10029  0.16213  1.0000
  H   H55       1.0  0.04966  0.04426  0.12526  1.0000
  Fe  Fe3       1.0  0.38759  0.02264  0.18385  1.0000
  H   H56       1.0  0.08673  0.01142  0.11126  1.0000
  H   H57       1.0  0.06658  0.07997  0.11818  1.0000
  H   H58       1.0  0.11095  0.09159  0.13184  1.0000
  H   H59       1.0  0.13702  0.01331  0.16572  1.0000
  H   H60       1.0  0.07526  0.05648  0.08644  1.0000
  H   H61       1.0  0.10881  0.07476  0.09229  1.0000
  H   H62       1.0  0.16355  0.10891  0.13831  1.0000
  H   H63       1.0  0.16942  0.08013  0.16191  1.0000
  H   H64       1.0  0.31388  0.14067  0.25312  1.0000
  H   H65       1.0  0.09905  0.48202  0.13826  1.0000
  H   H66       1.0  0.18973  0.43839  0.20455  1.0000
  H   H67       1.0  0.47089  0.06480  0.23649  1.0000
  N   N3        1.0  0.29255  0.06180  0.22113  1.0000
  C   C44       1.0  0.26143  0.05203  0.21993  1.0000
  H   H68       1.0  0.11425  0.45978  0.21651  1.0000
  C   C45       1.0  0.29498  0.08619  0.23721  1.0000
  C   C46       1.0  0.30343  0.07450  0.19815  1.0000
  C   C47       1.0  0.29845  0.05422  0.17847  1.0000
  C   C48       1.0  0.23994  0.07671  0.20968  1.0000
  C   C49       1.0  0.32612  0.09638  0.24260  1.0000
  H   H69       1.0  0.45356  0.13868  0.14778  1.0000
  H   H70       1.0  0.20996  0.04540  0.19543  1.0000
  C   C50       1.0  0.31113  0.06888  0.15628  1.0000
  H   H71       1.0  0.48270  0.04648  0.19774  1.0000
  C   C51       1.0  0.32610  0.12003  0.25981  1.0000
  H   H72       1.0  0.01626  0.28120  0.22530  1.0000
  H   H73       1.0  0.33386  0.03924  0.22676  1.0000
  H   H74       1.0  0.12778  0.46030  0.15228  1.0000
  H   H75       1.0  0.16317  0.43862  0.22667  1.0000
  H   H76       1.0  0.28403  0.07894  0.25352  1.0000
  H   H77       1.0  0.28342  0.10714  0.23016  1.0000
  H   H78       1.0  0.29402  0.09738  0.19306  1.0000
  H   H79       1.0  0.32711  0.07852  0.19892  1.0000
  H   H80       1.0  0.23428  0.00769  0.14833  1.0000
  H   H81       1.0  0.10079  0.01681  0.06764  1.0000
  H   H82       1.0  0.23827  0.09548  0.22080  1.0000
  H   H83       1.0  0.24658  0.08652  0.19256  1.0000
  H   H84       1.0  0.33693  0.10674  0.22707  1.0000
  H   H85       1.0  0.33930  0.07694  0.24997  1.0000
  H   H86       1.0  0.01450  0.31642  0.06773  1.0000
  S   S9        1.0  0.09635  0.37917  0.29419  1.0000
  Fe  Fe4       1.0  0.15679  0.47541  0.28668  1.0000
  H   H87       1.0  0.16059  0.47715  0.18050  1.0000
  H   H88       1.0  0.01739  0.47709  0.23296  1.0000
  H   H89       1.0  0.99610  0.26522  0.05701  1.0000
  H   H90       1.0  0.30718  0.05390  0.14254  1.0000
  H   H91       1.0  0.25335  0.04444  0.23720  1.0000
  H   H92       1.0  0.45003  0.99732  0.24812  1.0000
  H   H93       1.0  0.15053  0.06799  0.11375  1.0000
  H   H94       1.0  0.32555  0.40737  0.30816  1.0000
  H   H95       1.0  0.43647  0.05902  0.10792  1.0000
  H   H96       1.0  0.36214  0.40454  0.27805  1.0000
  H   H97       1.0  0.43299  0.12211  0.17079  1.0000
  H   H98       1.0  0.43876  0.19136  0.15359  1.0000
  H   H99       1.0  0.44129  0.03565  0.13442  1.0000
  H   H100      1.0  0.45159  0.06371  0.16977  1.0000
  H   H101      1.0  0.06647  0.47178  0.16885  1.0000
  S   S10       1.0  0.17096  0.42647  0.29338  1.0000
  S   S11       1.0  0.98979  0.33489  0.19645  1.0000
  H   H102      1.0  0.03968  0.43007  0.25938  1.0000
  H   H103      1.0  0.31103  0.03732  0.26625  1.0000
  C   C52       1.0  0.25875  0.48276  0.26855  1.0000
  H   H104      1.0  0.08738  0.02980  0.16991  1.0000
  H   H105      1.0  0.30091  0.09135  0.15136  1.0000
  H   H106      1.0  0.23708  0.37797  0.28890  1.0000
  H   H107      1.0  0.00928  0.21776  0.12725  1.0000
  H   H108      1.0  0.15624  0.03982  0.13699  1.0000
  H   H109      1.0  0.30585  0.01543  0.21844  1.0000
  C   C53       1.0  0.36892  0.40569  0.29596  1.0000
  C   C54       1.0  0.17287  0.45233  0.21189  1.0000
  C   C55       1.0  0.46717  0.07776  0.15893  1.0000
  C   C56       1.0  0.00513  0.02077  0.98578  1.0000
  H   H110      1.0  0.25935  0.03164  0.21030  1.0000
  H   H111      1.0  0.27431  0.47012  0.28032  1.0000
  H   H112      1.0  0.01582  0.23600  0.08652  1.0000
  H   H113      1.0  0.04910  0.43055  0.29968  1.0000
  H   H114      1.0  0.46966  0.36296  0.28676  1.0000
  H   H115      1.0  0.12334  0.02085  0.11338  1.0000
  H   H116      1.0  0.14278  0.44078  0.18668  1.0000
  C   C57       1.0  0.12398  0.47740  0.20422  1.0000
  C   C58       1.0  0.02914  0.41878  0.29477  1.0000
  H   H117      1.0  0.00997  0.25889  0.20160  1.0000
  H   H118      1.0  0.37336  0.42984  0.29863  1.0000
  H   H119      1.0  0.30852  0.31152  0.29917  1.0000
  H   H120      1.0  0.00935  0.07928  0.13809  1.0000
  H   H121      1.0  0.29048  0.37306  0.29645  1.0000
  Fe  Fe5       1.0  0.12427  0.41841  0.30189  1.0000
  H   H122      1.0  0.44138  0.02567  0.30459  1.0000
  C   C59       1.0  0.45811  0.36629  0.30270  1.0000
  H   H123      1.0  0.46164  0.10188  0.12432  1.0000
  H   H124      1.0  0.99073  0.28056  0.09689  1.0000
  C   C60       1.0  0.45134  0.08379  0.13574  1.0000
  H   H125      1.0  0.48179  0.16949  0.17469  1.0000
  H   H126      1.0  0.33793  0.35549  0.29182  1.0000
  H   H127      1.0  0.00282  0.41852  0.26427  1.0000
  N   N4        1.0  0.47662  0.10522  0.17054  1.0000
  H   H128      1.0  0.41564  0.17520  0.17626  1.0000
  H   H129      1.0  0.44168  0.20406  0.18154  1.0000
  C   C61       1.0  0.15001  0.46182  0.19388  1.0000
  C   C62       1.0  0.00214  0.21573  0.09099  1.0000
  H   H130      1.0  0.32718  0.25661  0.30271  1.0000
  H   H131      1.0  0.44194  0.34785  0.30613  1.0000
  H   H132      1.0  0.00627  0.19880  0.07871  1.0000
  C   C63       1.0  0.23349  0.36716  0.30639  1.0000
  S   S12       1.0  0.48940  0.09517  0.28290  1.0000
  C   C64       1.0  0.02093  0.43172  0.27080  1.0000
  H   H133      1.0  0.44654  0.38843  0.30041  1.0000
  H   H134      1.0  0.38914  0.39241  0.29931  1.0000
  H   H135      1.0  0.99106  0.36832  0.29594  1.0000
  H   H136      1.0  0.01457  0.45599  0.27073  1.0000
  H   H137      1.0  0.28345  0.01275  0.25669  1.0000
  H   H138      1.0  0.23788  0.47028  0.26899  1.0000
  C   C65       1.0  0.33977  0.35902  0.31017  1.0000
  H   H139      1.0  0.21290  0.35425  0.30660  1.0000
  S   S13       1.0  0.99045  0.40545  0.21075  1.0000
  C   C66       1.0  0.99326  0.01619  0.12485  1.0000
  C   C67       1.0  0.28637  0.36715  0.62889  1.0000
  C   C68       1.0  0.25905  0.47747  0.61644  1.0000
  Fe  Fe6       1.0  0.41989  0.39555  0.60609  1.0000
  C   C69       1.0  0.33185  0.25852  0.32094  1.0000
  H   H140      1.0  0.43551  0.28022  0.59566  1.0000
  H   H141      1.0  0.99179  0.43955  0.35406  1.0000
  H   H142      1.0  0.28413  0.38306  0.32424  1.0000
  H   H143      1.0  0.47101  0.37082  0.56903  1.0000
  H   H144      1.0  0.43139  0.27154  0.53659  1.0000
  C   C70       1.0  0.31885  0.34794  0.34784  1.0000
  H   H145      1.0  0.19635  0.39226  0.61266  1.0000
  S   S14       1.0  0.37259  0.38748  0.60072  1.0000
  S   S15       1.0  0.36844  0.46010  0.58196  1.0000
  Fe  Fe7       1.0  0.37886  0.41618  0.56755  1.0000
  S   S16       1.0  0.35549  0.40591  0.53548  1.0000
  S   S17       1.0  0.42672  0.42119  0.57166  1.0000
  Fe  Fe8       1.0  0.41054  0.35983  0.36636  1.0000
  S   S18       1.0  0.37588  0.37391  0.38977  1.0000
  S   S19       1.0  0.40443  0.32078  0.34431  1.0000
  Fe  Fe9       1.0  0.44759  0.41698  0.37236  1.0000
  S   S20       1.0  0.41543  0.43592  0.39543  1.0000
  S   S21       1.0  0.16531  0.48646  0.32228  1.0000
  Fe  Fe10      1.0  0.41267  0.38775  0.41186  1.0000
  S   S22       1.0  0.42518  0.37572  0.44869  1.0000
  Fe  Fe11      1.0  0.38116  0.42075  0.37144  1.0000
  S   S23       1.0  0.34558  0.45057  0.35414  1.0000
  S   S24       1.0  0.44657  0.36957  0.38978  1.0000
  S   S25       1.0  0.41398  0.40598  0.34697  1.0000
  C   C71       1.0  0.37526  0.39887  0.51121  1.0000
  C   C72       1.0  0.40481  0.39258  0.51258  1.0000
  C   C73       1.0  0.41980  0.38558  0.49320  1.0000
  C   C74       1.0  0.40552  0.38564  0.47222  1.0000
  C   C75       1.0  0.37614  0.39270  0.47068  1.0000
  C   C76       1.0  0.36100  0.39903  0.49021  1.0000
  H   H146      1.0  0.41594  0.39255  0.52864  1.0000
  H   H147      1.0  0.44254  0.38005  0.49447  1.0000
  H   H148      1.0  0.36494  0.39258  0.45460  1.0000
  H   H149      1.0  0.33811  0.40389  0.48907  1.0000
  C   C77       1.0  0.24916  0.42572  0.35320  1.0000
  C   C78       1.0  0.26671  0.41513  0.37175  1.0000
  C   C79       1.0  0.29644  0.42179  0.37195  1.0000
  C   C80       1.0  0.30889  0.43929  0.35361  1.0000
  C   C81       1.0  0.29146  0.44933  0.33482  1.0000
  C   C82       1.0  0.26184  0.44206  0.33444  1.0000
  H   H150      1.0  0.25713  0.40221  0.38628  1.0000
  H   H151      1.0  0.30953  0.41425  0.38661  1.0000
  H   H152      1.0  0.36988  0.48605  0.41686  1.0000
  H   H153      1.0  0.40359  0.31672  0.48373  1.0000
  Fe  Fe12      1.0  0.36575  0.43210  0.61547  1.0000
  H   H154      1.0  0.45288  0.46363  0.49611  1.0000
  H   H155      1.0  0.07263  0.41781  0.61342  1.0000
  H   H156      1.0  0.27522  0.34636  0.36182  1.0000
  S   S26       1.0  0.33318  0.43852  0.64339  1.0000
  H   H157      1.0  0.39344  0.27022  0.53878  1.0000
  H   H158      1.0  0.29169  0.30917  0.36139  1.0000
  C   C83       1.0  0.48381  0.44655  0.46040  1.0000
  C   C84       1.0  0.46156  0.23571  0.34176  1.0000
  H   H159      1.0  0.43172  0.01682  0.63331  1.0000
  H   H160      1.0  0.47143  0.03732  0.33635  1.0000
  C   C85       1.0  0.42632  0.28782  0.34409  1.0000
  C   C86       1.0  0.44640  0.27951  0.36130  1.0000
  C   C87       1.0  0.44514  0.99770  0.34867  1.0000
  N   N5        1.0  0.31400  0.34528  0.32289  1.0000
  H   H161      1.0  0.23132  0.38522  0.31801  1.0000
  H   H162      1.0  0.44846  0.29304  0.37551  1.0000
  H   H163      1.0  0.05602  0.45376  0.61773  1.0000
  C   C88       1.0  0.30497  0.33392  0.38887  1.0000
  H   H164      1.0  0.44029  0.43799  0.45096  1.0000
  C   C89       1.0  0.45885  0.27090  0.64356  1.0000
  C   C90       1.0  0.43776  0.21611  0.59341  1.0000
  H   H165      1.0  0.04458  0.48788  0.32067  1.0000
  C   C91       1.0  0.29567  0.33329  0.36411  1.0000
  H   H166      1.0  0.39882  0.24154  0.59640  1.0000
  H   H167      1.0  0.47857  0.31851  0.33408  1.0000
  H   H168      1.0  0.28781  0.32372  0.40020  1.0000
  H   H169      1.0  0.30854  0.35769  0.39290  1.0000
  H   H170      1.0  0.08727  0.38122  0.36348  1.0000
  S   S27       1.0  0.13079  0.42440  0.33862  1.0000
  N   N6        1.0  0.41412  0.29560  0.56391  1.0000
  C   C92       1.0  0.42949  0.32564  0.56477  1.0000
  C   C93       1.0  0.38443  0.29794  0.57400  1.0000
  H   H171      1.0  0.21447  0.42305  0.62400  1.0000
  C   C94       1.0  0.41229  0.28561  0.54019  1.0000
  C   C95       1.0  0.41057  0.31111  0.52015  1.0000
  H   H172      1.0  0.43429  0.04668  0.33918  1.0000
  H   H173      1.0  0.28088  0.35482  0.61396  1.0000
  C   C96       1.0  0.36384  0.32220  0.56211  1.0000
  C   C97       1.0  0.33578  0.32403  0.57537  1.0000
  H   H174      1.0  0.46399  0.36881  0.53904  1.0000
  H   H175      1.0  0.39021  0.02764  0.34243  1.0000
  H   H176      1.0  0.22861  0.35410  0.62645  1.0000
  H   H177      1.0  0.42707  0.33377  0.58186  1.0000
  H   H178      1.0  0.41941  0.34387  0.55315  1.0000
  H   H179      1.0  0.37267  0.27598  0.57400  1.0000
  H   H180      1.0  0.38643  0.30243  0.59214  1.0000
  C   C98       1.0  0.28744  0.36314  0.31433  1.0000
  S   S28       1.0  0.41300  0.43813  0.62346  1.0000
  C   C99       1.0  0.46576  0.30118  0.63558  1.0000
  H   H181      1.0  0.15118  0.40666  0.63583  1.0000
  H   H182      1.0  0.34389  0.00208  0.33395  1.0000
  H   H183      1.0  0.39385  0.32828  0.52272  1.0000
  H   H184      1.0  0.34549  0.46417  0.43551  1.0000
  H   H185      1.0  0.43150  0.32323  0.51811  1.0000
  H   H186      1.0  0.45432  0.21184  0.58062  1.0000
  H   H187      1.0  0.47413  0.31445  0.57490  1.0000
  H   H188      1.0  0.37362  0.34520  0.56062  1.0000
  H   H189      1.0  0.35779  0.31599  0.54502  1.0000
  H   H190      1.0  0.34025  0.32960  0.59294  1.0000
  H   H191      1.0  0.32184  0.34226  0.56684  1.0000
  H   H192      1.0  0.32394  0.30208  0.57603  1.0000
  C   C100      1.0  0.40388  0.29803  0.49774  1.0000
  H   H193      1.0  0.31332  0.24948  0.33133  1.0000
  C   C101      1.0  0.42361  0.26968  0.32592  1.0000
  C   C102      1.0  0.44116  0.24376  0.32472  1.0000
  C   C103      1.0  0.45200  0.03238  0.34696  1.0000
  H   H194      1.0  0.29900  0.46086  0.60334  1.0000
  C   C104      1.0  0.47939  0.36641  0.32252  1.0000
  H   H195      1.0  0.34301  0.29198  0.34330  1.0000
  H   H196      1.0  0.39538  0.44796  0.44348  1.0000
  C   C105      1.0  0.26094  0.38666  0.63524  1.0000
  C   C106      1.0  0.41616  0.49220  0.50078  1.0000
  H   H197      1.0  0.36003  0.34750  0.31630  1.0000
  H   H198      1.0  0.37966  0.46411  0.46724  1.0000
  H   H199      1.0  0.44867  0.22348  0.60871  1.0000
  H   H200      1.0  0.07756  0.38481  0.39250  1.0000
  H   H201      1.0  0.08239  0.41862  0.37328  1.0000
  S   S29       1.0  0.48554  0.20458  0.34048  1.0000
  C   C107      1.0  0.24288  0.48218  0.63583  1.0000
  C   C108      1.0  0.46233  0.32515  0.55975  1.0000
  C   C109      1.0  0.28699  0.46475  0.61840  1.0000
  C   C110      1.0  0.06763  0.43373  0.62627  1.0000
  H   H202      1.0  0.17175  0.43886  0.64311  1.0000
  C   C111      1.0  0.43282  0.47029  0.48646  1.0000
  C   C112      1.0  0.16922  0.42215  0.63043  1.0000
  C   C113      1.0  0.41010  0.47725  0.52460  1.0000
  H   H203      1.0  0.39641  0.45678  0.52382  1.0000
  H   H204      1.0  0.38238  0.28687  0.49839  1.0000
  Fe  Fe13      1.0  0.41622  0.46317  0.58868  1.0000
  Fe  Fe14      1.0  0.17657  0.43700  0.32952  1.0000
  H   H205      1.0  0.02340  0.35944  0.32855  1.0000
  C   C114      1.0  0.43921  0.06271  0.64007  1.0000
  H   H206      1.0  0.42064  0.28127  0.49395  1.0000
  C   C115      1.0  0.40816  0.28363  0.64015  1.0000
  Fe  Fe15      1.0  0.11904  0.47288  0.32828  1.0000
  H   H207      1.0  0.15655  0.42373  0.59475  1.0000
  H   H208      1.0  0.46649  0.48682  0.38141  1.0000
  H   H209      1.0  0.00497  0.44816  0.31464  1.0000
  H   H210      1.0  0.39805  0.33033  0.62825  1.0000
  H   H211      1.0  0.42509  0.07281  0.62609  1.0000
  H   H212      1.0  0.31974  0.37226  0.35119  1.0000
  H   H213      1.0  0.03084  0.40697  0.38069  1.0000
  H   H214      1.0  0.35729  0.29866  0.31496  1.0000
  H   H215      1.0  0.08828  0.44133  0.63342  1.0000
  H   H216      1.0  0.30524  0.38205  0.62446  1.0000
  C   C116      1.0  0.29900  0.45652  0.63984  1.0000
  C   C117      1.0  0.16035  0.43964  0.60788  1.0000
  H   H217      1.0  0.14010  0.45245  0.61009  1.0000
  H   H218      1.0  0.05364  0.39889  0.33296  1.0000
  C   C118      1.0  0.47444  0.35722  0.55445  1.0000
  C   C119      1.0  0.00251  0.37070  0.33195  1.0000
  C   C120      1.0  0.41619  0.24026  0.58365  1.0000
  S   S30       1.0  0.45337  0.36012  0.61874  1.0000
  N   N7        1.0  0.00706  0.40426  0.33423  1.0000
  H   H219      1.0  0.42029  0.44884  0.48639  1.0000
  H   H220      1.0  0.45702  0.46591  0.43219  1.0000
  C   C121      1.0  0.38740  0.01844  0.32576  1.0000
  C   C122      1.0  0.04245  0.39402  0.36837  1.0000
  C   C123      1.0  0.07442  0.39475  0.37470  1.0000
  H   H221      1.0  0.34041  0.33870  0.35333  1.0000
  H   H222      1.0  0.02984  0.40845  0.63700  1.0000
  H   H223      1.0  0.03518  0.36996  0.37046  1.0000
  H   H224      1.0  0.40668  0.23250  0.56798  1.0000
  H   H225      1.0  0.47942  0.24729  0.37347  1.0000
  C   C124      1.0  0.23390  0.36679  0.64133  1.0000
  C   C125      1.0  0.19809  0.40491  0.62802  1.0000
  S   S31       1.0  0.21163  0.41803  0.35426  1.0000
  H   H226      1.0  0.43891  0.04031  0.38120  1.0000
  S   S32       1.0  0.46987  0.11921  0.33133  1.0000
  H   H227      1.0  0.40813  0.27587  0.31253  1.0000
  H   H228      1.0  0.45228  0.26779  0.57140  1.0000
  C   C126      1.0  0.03702  0.40856  0.34377  1.0000
  H   H229      1.0  0.32515  0.32062  0.39235  1.0000
  H   H230      1.0  0.42626  0.19444  0.59846  1.0000
  H   H231      1.0  0.25677  0.40362  0.62052  1.0000
  C   C127      1.0  0.45841  0.04271  0.37037  1.0000
  H   H232      1.0  0.04224  0.43325  0.34349  1.0000
  C   C128      1.0  0.43081  0.27186  0.57888  1.0000
  H   H233      1.0  0.30100  0.46268  0.32050  1.0000
  H   H234      1.0  0.46185  0.06270  0.63396  1.0000
  C   C129      1.0  0.44390  0.32277  0.62988  1.0000
  C   C130      1.0  0.46393  0.25360  0.36009  1.0000
  C   C131      1.0  0.41506  0.31391  0.63239  1.0000
  H   H235      1.0  0.46499  0.06702  0.36861  1.0000
  C   C132      1.0  0.31177  0.31246  0.31776  1.0000
  H   H236      1.0  0.29253  0.30127  0.32586  1.0000
  H   H237      1.0  0.46677  0.37125  0.33762  1.0000
  H   H238      1.0  0.43057  0.47072  0.53362  1.0000
  H   H239      1.0  0.22400  0.49148  0.34086  1.0000
  H   H240      1.0  0.46704  0.31182  0.54525  1.0000
  C   C133      1.0  0.45433  0.45838  0.45057  1.0000
  C   C134      1.0  0.38815  0.46947  0.44984  1.0000
  H   H241      1.0  0.25301  0.33415  0.33088  1.0000
  H   H242      1.0  0.17058  0.35708  0.63861  1.0000
  H   H243      1.0  0.47776  0.00023  0.63248  1.0000
  H   H244      1.0  0.17736  0.45624  0.60192  1.0000
  H   H245      1.0  0.39703  0.03422  0.31233  1.0000
  H   H246      1.0  0.47633  0.02912  0.37879  1.0000
  N   N8        1.0  0.43999  0.48293  0.46258  1.0000
  C   C135      1.0  0.36293  0.48151  0.43480  1.0000
  H   H247      1.0  0.35240  0.39681  0.32955  1.0000
  C   C136      1.0  0.35503  0.01750  0.32085  1.0000
  H   H248      1.0  0.48395  0.40578  0.44220  1.0000
  H   H249      1.0  0.24863  0.44911  0.31977  1.0000
  H   H250      1.0  0.22773  0.49189  0.38192  1.0000
  H   H251      1.0  0.48814  0.30786  0.63371  1.0000
  H   H252      1.0  0.48068  0.43318  0.47709  1.0000
  C   C137      1.0  0.33791  0.29161  0.32501  1.0000
  Fe  Fe16      1.0  0.48356  0.16629  0.31709  1.0000
  H   H253      1.0  0.35115  0.24437  0.32592  1.0000
  H   H254      1.0  0.24976  0.48342  0.59979  1.0000
  H   H255      1.0  0.48622  0.47412  0.59477  1.0000
  H   H256      1.0  0.34587  0.04076  0.32091  1.0000
  H   H257      1.0  0.48003  0.49241  0.52535  1.0000
  H   H258      1.0  0.38577  0.27690  0.64185  1.0000
  H   H259      1.0  0.99493  0.35895  0.34833  1.0000
  H   H260      1.0  0.99633  0.31506  0.31406  1.0000
  C   C138      1.0  0.34516  0.39340  0.31211  1.0000
  C   C139      1.0  0.25835  0.34568  0.31399  1.0000
  H   H261      1.0  0.29265  0.35053  0.64339  1.0000
  C   C140      1.0  0.00477  0.42361  0.31186  1.0000
  C   C141      1.0  0.41306  0.49311  0.44946  1.0000
  H   H262      1.0  0.01876  0.48446  0.73441  1.0000
  H   H263      1.0  0.20498  0.00983  0.92040  1.0000
  H   H264      1.0  0.31667  0.01632  0.71545  1.0000
  C   C142      1.0  0.40800  0.10923  0.79436  1.0000
  Fe  Fe17      1.0  0.13179  0.45693  0.68767  1.0000
  S   S33       1.0  0.12032  0.40705  0.69161  1.0000
  H   H265      1.0  0.00509  0.38934  0.72154  1.0000
  Fe  Fe18      1.0  0.01754  0.37234  0.78977  1.0000
  C   C143      1.0  0.21355  0.40242  0.66766  1.0000
  S   S34       1.0  0.06164  0.35402  0.78330  1.0000
  H   H266      1.0  0.38541  0.05811  0.78057  1.0000
  C   C144      1.0  0.27851  0.00143  0.78424  1.0000
  C   C145      1.0  0.48424  0.99956  0.84227  1.0000
  Fe  Fe19      1.0  0.44634  0.18278  0.66850  1.0000
  S   S35       1.0  0.42852  0.15946  0.70085  1.0000
  C   C146      1.0  0.46785  0.06131  0.75328  1.0000
  H   H267      1.0  0.44817  0.06951  0.78422  1.0000
  Fe  Fe20      1.0  0.42724  0.11685  0.68330  1.0000
  S   S36       1.0  0.38662  0.08883  0.68153  1.0000
  H   H268      1.0  0.01769  0.38199  0.67134  1.0000
  H   H269      1.0  0.16693  0.37198  0.66522  1.0000
  H   H270      1.0  0.99024  0.33570  0.72190  1.0000
  H   H271      1.0  0.37124  0.07338  0.75420  1.0000
  H   H272      1.0  0.03630  0.29544  0.82943  1.0000
  H   H273      1.0  0.24435  0.37047  0.68625  1.0000
  N   N9        1.0  0.20741  0.38355  0.64829  1.0000
  H   H274      1.0  0.20613  0.33045  0.67998  1.0000
  C   C147      1.0  0.47469  0.02537  0.82877  1.0000
  H   H275      1.0  0.08091  0.41680  0.80281  1.0000
  H   H276      1.0  0.46227  0.05629  0.73582  1.0000
  H   H277      1.0  0.43707  0.02891  0.68361  1.0000
  H   H278      1.0  0.41264  0.08706  0.80431  1.0000
  C   C148      1.0  0.44207  0.13305  0.82132  1.0000
  C   C149      1.0  0.18287  0.36157  0.65420  1.0000
  H   H279      1.0  0.33678  0.47621  0.69557  1.0000
  H   H280      1.0  0.02358  0.30858  0.88945  1.0000
  H   H281      1.0  0.99028  0.12947  0.95614  1.0000
  H   H282      1.0  0.20866  0.37136  0.69847  1.0000
  C   C150      1.0  0.03732  0.99865  0.87420  1.0000
  H   H283      1.0  0.00807  0.47146  0.87627  1.0000
  C   C151      1.0  0.37652  0.05858  0.70141  1.0000
  C   C152      1.0  0.34804  0.04824  0.70082  1.0000
  C   C153      1.0  0.33878  0.02406  0.71608  1.0000
  S   S37       1.0  0.47125  0.10121  0.69516  1.0000
  C   C154      1.0  0.38659  0.02003  0.73274  1.0000
  C   C155      1.0  0.39599  0.04411  0.71713  1.0000
  H   H284      1.0  0.33301  0.05905  0.68849  1.0000
  C   C156      1.0  0.00998  0.22306  0.84181  1.0000
  S   S38       1.0  0.48904  0.14738  0.74589  1.0000
  H   H285      1.0  0.41826  0.05118  0.71697  1.0000
  H   H286      1.0  0.05675  0.22314  0.81102  1.0000
  H   H287      1.0  0.06140  0.45224  0.80013  1.0000
  C   C157      1.0  0.10474  0.22500  0.83540  1.0000
  H   H288      1.0  0.34814  0.16144  0.71049  1.0000
  H   H289      1.0  0.24512  0.39457  0.72178  1.0000
  H   H290      1.0  0.14803  0.31021  0.66099  1.0000
  H   H291      1.0  0.44763  0.11028  0.83002  1.0000
  C   C158      1.0  0.04136  0.43927  0.66325  1.0000
  C   C159      1.0  0.42382  0.09520  0.75663  1.0000
  S   S39       1.0  0.41968  0.22393  0.65424  1.0000
  H   H292      1.0  0.00943  0.01443  0.84610  1.0000
  H   H293      1.0  0.10282  0.20322  0.82753  1.0000
  C   C160      1.0  0.16391  0.31248  0.67485  1.0000
  C   C161      1.0  0.10382  0.39310  0.71721  1.0000
  C   C162      1.0  0.10340  0.36166  0.72333  1.0000
  C   C163      1.0  0.09046  0.34987  0.74365  1.0000
  C   C164      1.0  0.07656  0.36929  0.75743  1.0000
  C   C165      1.0  0.07608  0.40068  0.75097  1.0000
  C   C166      1.0  0.09073  0.41265  0.73135  1.0000
  H   H294      1.0  0.11355  0.34641  0.71254  1.0000
  H   H295      1.0  0.09093  0.32561  0.74858  1.0000
  H   H296      1.0  0.06529  0.41581  0.76150  1.0000
  H   H297      1.0  0.09133  0.43692  0.72689  1.0000
  H   H298      1.0  0.00488  0.29649  0.75258  1.0000
  C   C167      1.0  0.01197  0.48522  0.86044  1.0000
  H   H299      1.0  0.17782  0.42216  0.73899  1.0000
  H   H300      1.0  0.40160  0.00886  0.74484  1.0000
  H   H301      1.0  0.30542  0.06662  0.78937  1.0000
  H   H302      1.0  0.00235  0.26590  0.87070  1.0000
  C   C168      1.0  0.44082  0.06671  0.76681  1.0000
  H   H303      1.0  0.04446  0.43341  0.71048  1.0000
  H   H304      1.0  0.41651  0.09073  0.73945  1.0000
  C   C169      1.0  0.04284  0.99907  0.89740  1.0000
  S   S40       1.0  0.12850  0.48282  0.65321  1.0000
  H   H305      1.0  0.03881  0.27633  0.78166  1.0000
  H   H306      1.0  0.38078  0.47588  0.65320  1.0000
  H   H307      1.0  0.18194  0.45225  0.80611  1.0000
  H   H308      1.0  0.07470  0.41185  0.84422  1.0000
  N   N10       1.0  0.01886  0.42845  0.68064  1.0000
  H   H309      1.0  0.17120  0.46096  0.76620  1.0000
  C   C170      1.0  0.07664  0.43789  0.81101  1.0000
  H   H310      1.0  0.03294  0.18394  0.82968  1.0000
  C   C171      1.0  0.10510  0.45515  0.81522  1.0000
  C   C172      1.0  0.17099  0.46925  0.81572  1.0000
  H   H311      1.0  0.46892  0.02604  0.66794  1.0000
  H   H312      1.0  0.06644  0.21777  0.85512  1.0000
  H   H313      1.0  0.11502  0.42544  0.77772  1.0000
  N   N11       1.0  0.12207  0.46623  0.79437  1.0000
  C   C173      1.0  0.19078  0.32949  0.66571  1.0000
  H   H314      1.0  0.35224  0.08385  0.80268  1.0000
  H   H315      1.0  0.43920  0.11433  0.75339  1.0000
  H   H316      1.0  0.36353  0.46170  0.71608  1.0000
  H   H317      1.0  0.34285  0.17242  0.73875  1.0000
  H   H318      1.0  0.36020  0.44520  0.68952  1.0000
  H   H319      1.0  0.38996  0.11905  0.80361  1.0000
  H   H320      1.0  0.06237  0.44335  0.67179  1.0000
  C   C174      1.0  0.01591  0.27783  0.78673  1.0000
  S   S41       1.0  0.17761  0.47019  0.69403  1.0000
  C   C175      1.0  0.35876  0.16337  0.72716  1.0000
  C   C176      1.0  0.02012  0.27858  0.83673  1.0000
  C   C177      1.0  0.13323  0.43896  0.78360  1.0000
  H   H321      1.0  0.33274  0.03936  0.78349  1.0000
  N   N12       1.0  0.39872  0.10449  0.77050  1.0000
  H   H322      1.0  0.11481  0.24245  0.82310  1.0000
  H   H323      1.0  0.24099  0.34912  0.65479  1.0000
  H   H324      1.0  0.37692  0.17974  0.72454  1.0000
  H   H325      1.0  0.04087  0.26589  0.87030  1.0000
  H   H326      1.0  0.29220  0.45546  0.67587  1.0000
  C   C178      1.0  0.99972  0.47678  0.84034  1.0000
  C   C179      1.0  0.02146  0.30992  0.87069  1.0000
  C   C180      1.0  0.32489  0.06297  0.77914  1.0000
  C   C181      1.0  0.06137  0.42844  0.83338  1.0000
  H   H327      1.0  0.48164  0.01244  0.70572  1.0000
  C   C182      1.0  0.38673  0.13413  0.75934  1.0000
  H   H328      1.0  0.18038  0.40579  0.76805  1.0000
  H   H329      1.0  0.01065  0.22993  0.79546  1.0000
  H   H330      1.0  0.07868  0.25693  0.85086  1.0000
  H   H331      1.0  0.11911  0.22120  0.85049  1.0000
  C   C183      1.0  0.36958  0.13203  0.73692  1.0000
  H   H332      1.0  0.45394  0.12141  0.78856  1.0000
  H   H333      1.0  0.14474  0.42302  0.79632  1.0000
  H   H334      1.0  0.43001  0.15355  0.78816  1.0000
  H   H335      1.0  0.06463  0.26220  0.81164  1.0000
  H   H336      1.0  0.05703  0.44862  0.84266  1.0000
  C   C184      1.0  0.00113  0.37994  0.70510  1.0000
  H   H337      1.0  0.40456  0.15073  0.75538  1.0000
  H   H338      1.0  0.37256  0.14531  0.77117  1.0000
  C   C185      1.0  0.16553  0.41672  0.75490  1.0000
  C   C186      1.0  0.05490  0.24232  0.82183  1.0000
  C   C187      1.0  0.43447  0.13037  0.79646  1.0000
  H   H339      1.0  0.11845  0.43936  0.82675  1.0000
  H   H340      1.0  0.42742  0.04587  0.76721  1.0000
  H   H341      1.0  0.03479  0.46157  0.65437  1.0000
  H   H342      1.0  0.20752  0.04280  0.88467  1.0000
  C   C188      1.0  0.07510  0.23573  0.84262  1.0000
  H   H343      1.0  0.38322  0.12256  0.72402  1.0000
  H   H344      1.0  0.35032  0.11725  0.73957  1.0000
  S   S42       1.0  0.99654  0.36324  0.82376  1.0000
  N   N13       1.0  0.02361  0.24853  0.82660  1.0000
  C   C189      1.0  0.02152  0.27785  0.86303  1.0000
  H   H345      1.0  0.00023  0.25590  0.75747  1.0000
  H   H346      1.0  0.04040  0.41754  0.82994  1.0000
  C   C190      1.0  0.23673  0.40747  0.70607  1.0000
  H   H347      1.0  0.99528  0.48867  0.80431  1.0000
  C   C191      1.0  0.15288  0.44598  0.76261  1.0000
  H   H348      1.0  0.43790  0.07696  0.65439  1.0000
  H   H349      1.0  0.00705  0.43889  0.71447  1.0000
  H   H350      1.0  0.99868  0.28893  0.83195  1.0000
  C   C192      1.0  0.28306  0.46172  0.65922  1.0000
  C   C193      1.0  0.44637  0.01746  0.66937  1.0000
  H   H351      1.0  0.14814  0.40042  0.75152  1.0000
  C   C194      1.0  0.34823  0.08588  0.78407  1.0000
  H   H352      1.0  0.33954  0.10893  0.77899  1.0000
  C   C195      1.0  0.21178  0.01803  0.88464  1.0000
  H   H353      1.0  0.46111  0.14815  0.82233  1.0000
  H   H354      1.0  0.31880  0.06575  0.76087  1.0000
  H   H355      1.0  0.02814  0.34063  0.71584  1.0000
  H   H356      1.0  0.42375  0.14287  0.83018  1.0000
  H   H357      1.0  0.40269  0.47924  0.69037  1.0000
  H   H358      1.0  0.01080  0.16589  0.86700  1.0000
  H   H359      1.0  0.40595  0.03140  0.65171  1.0000
  S   S43       1.0  0.43731  0.03189  0.82437  1.0000
  H   H360      1.0  0.08752  0.47052  0.76932  1.0000
  H   H361      1.0  0.00080  0.32161  0.86581  1.0000
  H   H362      1.0  0.21897  0.42244  0.71078  1.0000
  H   H363      1.0  0.02001  0.22073  0.85893  1.0000
  H   H364      1.0  0.29070  0.00073  0.80048  1.0000
  C   C196      1.0  0.02483  0.44342  0.70205  1.0000
  C   C197      1.0  0.37653  0.07945  0.77156  1.0000
  C   C198      1.0  0.22591  0.38528  0.68965  1.0000
  H   H365      1.0  0.19150  0.00676  0.87981  1.0000
  H   H366      1.0  0.14028  0.45733  0.74818  1.0000
  H   H367      1.0  0.09979  0.47446  0.82529  1.0000
  H   H368      1.0  0.26401  0.02158  0.78294  1.0000
  H   H369      1.0  0.03974  0.32352  0.86306  1.0000
  H   H370      1.0  0.29387  0.00412  0.76990  1.0000
  H   H371      1.0  0.24315  0.47843  0.67231  1.0000
  C   C199      1.0  0.25522  0.47465  0.65726  1.0000
  H   H372      1.0  0.99858  0.14425  0.84450  1.0000
  H   H373      1.0  0.04411  0.38872  0.69203  1.0000
  C   C200      1.0  0.02517  0.01694  0.91009  1.0000
  C   C201      1.0  0.02152  0.39445  0.68644  1.0000
  H   H374      1.0  0.06189  0.39796  0.65300  1.0000
  C   C202      1.0  0.04915  0.41758  0.64504  1.0000
  C   C203      1.0  0.35899  0.46682  0.69767  1.0000
  H   H375      1.0  0.25447  0.42177  0.69831  1.0000
  H   H376      1.0  0.19350  0.41375  0.67277  1.0000
  C   C204      1.0  0.02892  0.47852  0.69932  1.0000
  C   C205      1.0  0.35787  0.01010  0.73224  1.0000
  H   H377      1.0  0.47582  0.25441  0.64777  1.0000
  C   C206      1.0  0.10352  0.48507  0.77731  1.0000
  C   C207      1.0  0.00175  0.03356  0.89989  1.0000
  C   C208      1.0  0.99568  0.03236  0.87686  1.0000
  H   H378      1.0  0.05666  0.47941  0.72913  1.0000
  H   H379      1.0  0.01256  0.30002  0.79365  1.0000
  S   S44       1.0  0.00284  0.42078  0.78349  1.0000
  C   C209      1.0  0.00746  0.25082  0.80423  1.0000
  C   C210      1.0  0.38106  0.48970  0.68719  1.0000
  H   H380      1.0  0.24193  0.01715  0.91226  1.0000
  H   H381      1.0  0.31529  0.00769  0.93208  1.0000
  H   H382      1.0  0.48792  0.06722  0.80966  1.0000
  C   C211      1.0  0.01056  0.19092  0.83325  1.0000
  H   H383      1.0  0.16245  0.45750  0.83169  1.0000
  C   C212      1.0  0.99807  0.16704  0.85098  1.0000
  H   H384      1.0  0.17004  0.28932  0.68241  1.0000
  S   S45       1.0  0.44237  0.14067  0.65031  1.0000
  H   H385      1.0  0.22853  0.01481  0.87177  1.0000
  H   H386      1.0  0.48209  0.08157  0.75259  1.0000
  C   C213      1.0  0.03640  0.49002  0.72210  1.0000
  H   H387      1.0  0.47989  0.04163  0.76185  1.0000
  H   H388      1.0  0.39120  0.00161  0.68333  1.0000
  C   C214      1.0  0.99769  0.27774  0.76513  1.0000
  H   H389      1.0  0.01132  0.08341  0.97664  1.0000
  H   H390      1.0  0.21143  0.47954  0.83208  1.0000
  C   C215      1.0  0.00597  0.34558  0.70919  1.0000
  H   H391      1.0  0.22831  0.42141  0.66206  1.0000
  H   H392      1.0  0.00269  0.33458  0.69328  1.0000
  C   C216      1.0  0.42934  0.03045  0.64786  1.0000
  C   C217      1.0  0.22199  0.00489  0.90816  1.0000
  Fe  Fe21      1.0  0.47420  0.14632  0.70972  1.0000
  H   H393      1.0  0.26792  0.39879  0.64989  1.0000
  H   H394      1.0  0.02957  0.01786  0.92793  1.0000
  C   C218      1.0  0.14654  0.48588  0.80143  1.0000
  C   C219      1.0  0.01374  0.01509  0.86402  1.0000
  H   H395      1.0  0.20088  0.31576  0.65308  1.0000
  Fe  Fe22      1.0  0.48670  0.12807  0.66357  1.0000
  H   H396      1.0  0.15367  0.32479  0.68822  1.0000
  H   H397      1.0  0.99723  0.19029  0.81768  1.0000
  H   H398      1.0  0.01104  0.03076  0.96853  1.0000
  C   C220      1.0  0.42997  0.26197  0.64577  1.0000
  H   H399      1.0  0.04676  0.48555  0.68758  1.0000
  H   H400      1.0  0.00890  0.49031  0.69295  1.0000
  C   C221      1.0  0.19399  0.49186  0.82202  1.0000
  H   H401      1.0  0.45746  0.99496  0.74295  1.0000
  Fe  Fe23      1.0  0.09061  0.92934  0.12057  1.0000
  S   S46       1.0  0.09101  0.89082  0.09840  1.0000
  S   S47       1.0  0.05044  0.94637  0.13724  1.0000
  Fe  Fe24      1.0  0.15649  0.93892  0.11750  1.0000
  S   S48       1.0  0.16206  0.90181  0.09422  1.0000
  S   S49       1.0  0.18850  0.97306  0.13011  1.0000
  Fe  Fe25      1.0  0.12161  0.92013  0.07654  1.0000
  S   S50       1.0  0.11007  0.93237  0.03961  1.0000
  Fe  Fe26      1.0  0.13092  0.87512  0.11780  1.0000
  S   S51       1.0  0.14115  0.82623  0.13091  1.0000
  S   S52       1.0  0.11861  0.95953  0.09765  1.0000
  S   S53       1.0  0.12805  0.91104  0.14214  1.0000
  C   C222      1.0  0.11311  0.51707  0.17222  1.0000
  H   H402      1.0  0.03171  0.60428  0.98093  1.0000
  H   H403      1.0  0.00428  0.79444  0.20837  1.0000
  H   H404      1.0  0.32161  0.97525  0.24799  1.0000
  Fe  Fe27      1.0  0.39526  0.96151  0.21020  1.0000
  S   S54       1.0  0.40039  0.94015  0.24594  1.0000
  S   S55       1.0  0.39516  0.93707  0.17884  1.0000
  Fe  Fe28      1.0  0.04745  0.60840  0.17089  1.0000
  S   S56       1.0  0.05550  0.60389  0.20844  1.0000
  C   C223      1.0  0.16064  0.80043  0.06824  1.0000
  Fe  Fe29      1.0  0.05350  0.67796  0.16609  1.0000
  S   S57       1.0  0.06291  0.67887  0.20319  1.0000
  S   S58       1.0  0.04691  0.72152  0.14264  1.0000
  Fe  Fe30      1.0  0.09056  0.63779  0.20011  1.0000
  S   S59       1.0  0.13436  0.63282  0.21653  1.0000
  Fe  Fe31      1.0  0.02697  0.64496  0.20841  1.0000
  S   S60       1.0  0.08481  0.63990  0.16235  1.0000
  C   C224      1.0  0.46538  0.88343  0.23199  1.0000
  S   S61       1.0  0.32151  0.94260  0.15032  1.0000
  C   C225      1.0  0.13043  0.81559  0.06549  1.0000
  C   C226      1.0  0.14486  0.59581  0.22713  1.0000
  C   C227      1.0  0.17396  0.58789  0.22585  1.0000
  C   C228      1.0  0.21474  0.56221  0.29240  1.0000
  H   H405      1.0  0.12678  0.98923  0.14389  1.0000
  C   C229      1.0  0.13508  0.54591  0.24708  1.0000
  C   C230      1.0  0.12528  0.57466  0.23754  1.0000
  H   H406      1.0  0.18912  0.60406  0.21774  1.0000
  C   C231      1.0  0.16439  0.53836  0.24595  1.0000
  H   H407      1.0  0.20611  0.55329  0.23354  1.0000
  H   H408      1.0  0.10278  0.58068  0.23860  1.0000
  H   H409      1.0  0.05370  0.60306  0.26625  1.0000
  C   C232      1.0  0.03306  0.49436  0.22590  1.0000
  N   N14       1.0  0.10633  0.79514  0.05884  1.0000
  C   C233      1.0  0.42183  0.92370  0.09766  1.0000
  H   H410      1.0  0.05843  0.99030  0.99149  1.0000
  C   C234      1.0  0.02344  0.75725  0.19227  1.0000
  H   H411      1.0  0.47158  0.93621  0.07170  1.0000
  H   H412      1.0  0.14158  0.59012  0.17514  1.0000
  C   C235      1.0  0.42945  0.91443  0.24864  1.0000
  C   C236      1.0  0.44208  0.90383  0.22950  1.0000
  H   H413      1.0  0.40091  0.86131  0.17078  1.0000
  H   H414      1.0  0.05952  0.79641  0.05727  1.0000
  C   C237      1.0  0.44031  0.90466  0.27022  1.0000
  H   H415      1.0  0.43377  0.91105  0.21281  1.0000
  H   H416      1.0  0.41930  0.93737  0.08097  1.0000
  H   H417      1.0  0.43007  0.91200  0.28504  1.0000
  C   C238      1.0  0.28454  0.95171  0.14533  1.0000
  C   C239      1.0  0.26668  0.93012  0.13623  1.0000
  C   C240      1.0  0.23726  0.93626  0.13166  1.0000
  C   C241      1.0  0.22538  0.96423  0.13598  1.0000
  H   H418      1.0  0.27075  0.57037  0.29013  1.0000
  C   C242      1.0  0.12074  0.79871  0.99331  1.0000
  H   H419      1.0  0.27562  0.90841  0.13276  1.0000
  H   H420      1.0  0.22379  0.91936  0.12472  1.0000
  H   H421      1.0  0.44782  0.96437  0.28397  1.0000
  H   H422      1.0  0.04705  0.95578  0.98015  1.0000
  C   C243      1.0  0.11453  0.79763  0.13454  1.0000
  C   C244      1.0  0.08618  0.80295  0.12701  1.0000
  C   C245      1.0  0.06582  0.77920  0.12916  1.0000
  C   C246      1.0  0.07337  0.75033  0.13965  1.0000
  C   C247      1.0  0.10166  0.74508  0.14736  1.0000
  C   C248      1.0  0.12223  0.76858  0.14456  1.0000
  H   H423      1.0  0.08013  0.82519  0.11917  1.0000
  H   H424      1.0  0.04403  0.78326  0.12292  1.0000
  H   H425      1.0  0.10775  0.72283  0.15529  1.0000
  H   H426      1.0  0.14421  0.76424  0.15030  1.0000
  H   H427      1.0  0.41589  0.89726  0.13671  1.0000
  C   C249      1.0  0.15475  0.87812  0.00016  1.0000
  C   C250      1.0  0.14496  0.89191  0.01920  1.0000
  C   C251      1.0  0.12364  0.91447  0.01653  1.0000
  C   C252      1.0  0.11253  0.92337  0.99482  1.0000
  H   H428      1.0  0.22018  0.60850  0.30337  1.0000
  H   H429      1.0  0.17129  0.86075  0.00220  1.0000
  H   H430      1.0  0.15397  0.88535  0.03584  1.0000
  C   C253      1.0  0.25434  0.51514  0.27505  1.0000
  H   H431      1.0  0.16166  0.78539  0.08443  1.0000
  H   H432      1.0  0.18501  0.83955  0.05315  1.0000
  H   H433      1.0  0.11454  0.83206  0.01681  1.0000
  C   C254      1.0  0.01821  0.55918  0.27095  1.0000
  H   H434      1.0  0.34638  0.87804  0.05025  1.0000
  C   C255      1.0  0.47708  0.87489  0.25352  1.0000
  H   H435      1.0  0.01328  0.76300  0.17540  1.0000
  H   H436      1.0  0.03522  0.87630  0.24297  1.0000
  H   H437      1.0  0.34448  0.98632  0.10920  1.0000
  H   H438      1.0  0.10540  0.55552  0.19273  1.0000
  H   H439      1.0  0.12002  0.52959  0.25510  1.0000
  C   C256      1.0  0.10918  0.78594  0.03499  1.0000
  H   H440      1.0  0.35770  0.85220  0.09953  1.0000
  C   C257      1.0  0.18448  0.82419  0.06916  1.0000
  H   H441      1.0  0.02778  0.62819  0.27535  1.0000
  C   C258      1.0  0.46458  0.88562  0.27264  1.0000
  H   H442      1.0  0.12544  0.82461  0.08199  1.0000
  H   H443      1.0  0.19578  0.54737  0.28973  1.0000
  H   H444      1.0  0.03969  0.54977  0.26750  1.0000
  H   H445      1.0  0.08573  0.51717  0.21405  1.0000
  S   S62       1.0  0.35576  0.98894  0.20003  1.0000
  H   H446      1.0  0.15383  0.56171  0.15747  1.0000
  N   N15       1.0  0.39431  0.90669  0.10417  1.0000
  H   H447      1.0  0.10448  0.70171  0.07776  1.0000
  H   H448      1.0  0.02122  0.51060  0.21362  1.0000
  H   H449      1.0  0.05211  0.97679  0.09134  1.0000
  C   C259      1.0  0.12379  0.80895  0.01713  1.0000
  C   C260      1.0  0.35655  0.87194  0.08646  1.0000
  C   C261      1.0  0.08085  0.74476  0.07408  1.0000
  C   C262      1.0  0.38604  0.88846  0.08482  1.0000
  H   H450      1.0  0.04111  0.50528  0.14079  1.0000
  C   C263      1.0  0.37430  0.87740  0.14150  1.0000
  C   C264      1.0  0.38281  0.85312  0.16056  1.0000
  C   C265      1.0  0.08446  0.55867  0.29554  1.0000
  C   C266      1.0  0.10697  0.76659  0.07523  1.0000
  H   H451      1.0  0.42670  0.94042  0.11012  1.0000
  H   H452      1.0  0.38929  0.83171  0.15353  1.0000
  H   H453      1.0  0.07506  0.74148  0.05628  1.0000
  H   H454      1.0  0.41086  0.86467  0.12161  1.0000
  C   C267      1.0  0.34881  0.85926  0.06406  1.0000
  H   H455      1.0  0.13150  0.50996  0.16209  1.0000
  C   C268      1.0  0.26375  0.56377  0.30788  1.0000
  H   H456      1.0  0.04474  0.86038  0.07220  1.0000
  H   H457      1.0  0.06748  0.69921  0.08706  1.0000
  H   H458      1.0  0.13237  0.81483  0.98101  1.0000
  C   C269      1.0  0.01678  0.57063  0.29485  1.0000
  H   H459      1.0  0.09215  0.62574  0.29010  1.0000
  C   C270      1.0  0.03579  0.98766  0.10077  1.0000
  C   C271      1.0  0.36442  0.95404  0.08831  1.0000
  H   H460      1.0  0.05855  0.67109  0.25706  1.0000
  H   H461      1.0  0.36693  0.89759  0.14962  1.0000
  H   H462      1.0  0.35556  0.86891  0.13242  1.0000
  H   H463      1.0  0.09618  0.52524  0.15959  1.0000
  H   H464      1.0  0.36412  0.84817  0.17199  1.0000
  H   H465      1.0  0.32166  0.98290  0.27725  1.0000
  H   H466      1.0  0.19507  0.61567  0.26650  1.0000
  S   S63       1.0  0.46212  0.96552  0.14324  1.0000
  H   H467      1.0  0.00930  0.97472  0.00395  1.0000
  H   H468      1.0  0.12670  0.75299  0.07260  1.0000
  C   C272      1.0  0.11280  0.97390  0.17734  1.0000
  H   H469      1.0  0.07490  0.81466  0.07994  1.0000
  H   H470      1.0  0.31942  0.96044  0.09757  1.0000
  Fe  Fe32      1.0  0.42367  0.97509  0.16448  1.0000
  N   N16       1.0  0.04503  0.81132  0.19486  1.0000
  C   C273      1.0  0.02644  0.78574  0.20559  1.0000
  C   C274      1.0  0.04573  0.83762  0.20949  1.0000
  C   C275      1.0  0.03118  0.82258  0.17240  1.0000
  C   C276      1.0  0.07516  0.80064  0.19021  1.0000
  C   C277      1.0  0.09288  0.78692  0.21095  1.0000
  H   H471      1.0  0.01338  0.57817  0.25773  1.0000
  C   C278      1.0  0.04410  0.85206  0.15980  1.0000
  C   C279      1.0  0.04476  0.82980  0.23563  1.0000
  C   C280      1.0  0.44928  0.90380  0.09580  1.0000
  C   C281      1.0  0.12066  0.77213  0.20357  1.0000
  H   H472      1.0  0.20491  0.93170  0.00605  1.0000
  H   H473      1.0  0.07320  0.86641  0.24424  1.0000
  H   H474      1.0  0.08594  0.57031  0.27823  1.0000
  H   H475      1.0  0.03450  0.77719  0.22269  1.0000
  H   H476      1.0  0.06506  0.85212  0.20534  1.0000
  H   H477      1.0  0.01650  0.55029  0.30742  1.0000
  C   C282      1.0  0.24325  0.98594  0.14502  1.0000
  H   H478      1.0  0.03246  0.80492  0.16032  1.0000
  H   H479      1.0  0.07458  0.78380  0.17748  1.0000
  H   H480      1.0  0.08839  0.81972  0.18219  1.0000
  H   H481      1.0  0.08073  0.76914  0.22142  1.0000
  H   H482      1.0  0.09929  0.80529  0.22149  1.0000
  H   H483      1.0  0.23975  0.52687  0.26212  1.0000
  H   H484      1.0  0.04481  0.74671  0.18990  1.0000
  H   H485      1.0  0.06702  0.84882  0.15536  1.0000
  H   H486      1.0  0.02673  0.85286  0.20564  1.0000
  H   H487      1.0  0.38663  0.90312  0.06843  1.0000
  H   H488      1.0  0.06042  0.81191  0.24174  1.0000
  H   H489      1.0  0.36571  0.84318  0.05933  1.0000
  H   H490      1.0  0.35815  0.94292  0.07302  1.0000
  Fe  Fe33      1.0  0.35765  0.96738  0.16728  1.0000
  H   H491      1.0  0.13393  0.76437  0.21872  1.0000
  H   H492      1.0  0.11555  0.75193  0.19444  1.0000
  H   H493      1.0  0.13354  0.78858  0.19235  1.0000
  C   C283      1.0  0.32575  0.99303  0.25967  1.0000
  C   C284      1.0  0.24143  0.51463  0.29918  1.0000
  C   C285      1.0  0.40025  0.88612  0.12570  1.0000
  C   C286      1.0  0.18276  0.60833  0.28211  1.0000
  H   H494      1.0  0.45472  0.89099  0.11233  1.0000
  H   H495      1.0  0.04198  0.50672  0.23983  1.0000
  H   H496      1.0  0.10600  0.98303  0.19330  1.0000
  C   C287      1.0  0.12342  0.54524  0.18386  1.0000
  H   H497      1.0  0.44635  0.88733  0.08300  1.0000
  C   C288      1.0  0.07182  0.63779  0.28484  1.0000
  H   H498      1.0  0.00469  0.86620  0.14130  1.0000
  H   H499      1.0  0.11774  0.57746  0.15384  1.0000
  H   H500      1.0  0.27563  0.52664  0.27414  1.0000
  C   C289      1.0  0.01947  0.53875  0.15873  1.0000
  C   C290      1.0  0.18358  0.55918  0.23488  1.0000
  C   C291      1.0  0.04728  0.61487  0.28111  1.0000
  H   H501      1.0  0.08507  0.64376  0.24942  1.0000
  H   H502      1.0  0.09570  0.67414  0.26588  1.0000
  H   H503      1.0  0.12197  0.76454  0.03494  1.0000
  H   H504      1.0  0.20572  0.81261  0.07152  1.0000
  C   C292      1.0  0.07808  0.65790  0.26294  1.0000
  H   H505      1.0  0.02852  0.84261  0.12628  1.0000
  H   H506      1.0  0.09423  0.71563  0.10429  1.0000
  H   H507      1.0  0.06587  0.65306  0.29786  1.0000
  H   H508      1.0  0.33868  0.88720  0.09041  1.0000
  H   H509      1.0  0.06183  0.75420  0.08236  1.0000
  C   C293      1.0  0.07786  0.81097  0.06176  1.0000
  H   H510      1.0  0.04288  0.87164  0.17018  1.0000
  H   H511      1.0  0.16523  0.78639  0.05413  1.0000
  H   H512      1.0  0.41681  0.98917  0.28010  1.0000
  H   H513      1.0  0.18097  0.83787  0.08370  1.0000
  H   H514      1.0  0.13237  0.83616  0.05329  1.0000
  C   C294      1.0  0.02262  0.50993  0.15096  1.0000
  H   H515      1.0  0.09769  0.79847  0.98809  1.0000
  H   H516      1.0  0.09062  0.85839  0.05012  1.0000
  H   H517      1.0  0.47326  0.87884  0.28932  1.0000
  N   N17       1.0  0.23644  0.54514  0.30806  1.0000
  H   H518      1.0  0.00383  0.98226  0.15247  1.0000
  H   H519      1.0  0.07138  0.83857  0.02927  1.0000
  H   H520      1.0  0.08758  0.78024  0.02821  1.0000
  C   C295      1.0  0.08727  0.71346  0.08655  1.0000
  S   S64       1.0  0.01522  0.64650  0.17150  1.0000
  H   H521      1.0  0.38311  0.96924  0.08419  1.0000
  H   H522      1.0  0.37861  0.94275  0.12303  1.0000
  H   H523      1.0  0.02612  0.84220  0.05019  1.0000
  H   H524      1.0  0.22077  0.50170  0.29925  1.0000
  H   H525      1.0  0.99435  0.52936  0.25047  1.0000
  C   C296      1.0  0.04481  0.85671  0.05391  1.0000
  H   H526      1.0  0.02285  0.82154  0.24071  1.0000
  C   C297      1.0  0.03009  0.97665  0.12323  1.0000
  H   H527      1.0  0.09549  0.95899  0.17155  1.0000
  H   H528      1.0  0.22416  0.56821  0.27533  1.0000
  C   C298      1.0  0.20110  0.94644  0.99001  1.0000
  C   C299      1.0  0.99557  0.53447  0.26842  1.0000
  C   C300      1.0  0.07310  0.84196  0.04753  1.0000
  H   H529      1.0  0.17901  0.94178  0.98382  1.0000
  H   H530      1.0  0.07502  0.53570  0.29438  1.0000
  C   C301      1.0  0.20267  0.59234  0.30023  1.0000
  S   S65       1.0  0.04633  0.56631  0.15211  1.0000
  H   H531      1.0  0.10863  0.77249  0.09301  1.0000
  H   H532      1.0  0.32799  0.84680  0.06587  1.0000
  H   H533      1.0  0.16508  0.59295  0.27768  1.0000
  H   H534      1.0  0.14109  0.53908  0.19615  1.0000
  H   H535      1.0  0.35111  0.91909  0.11392  1.0000
  C   C302      1.0  0.13486  0.57005  0.16642  1.0000
  H   H536      1.0  0.09634  0.94107  0.99263  1.0000
  H   H537      1.0  0.14720  0.81070  0.02082  1.0000
  H   H538      1.0  0.40226  0.87033  0.08295  1.0000
  H   H539      1.0  0.04235  0.87922  0.04390  1.0000
  C   C303      1.0  0.05103  0.85790  0.24805  1.0000
  C   C304      1.0  0.37173  0.93009  0.10849  1.0000
  S   S66       1.0  0.17837  0.50326  0.25775  1.0000
  C   C305      1.0  0.01188  0.98619  0.98658  1.0000
  C   C306      1.0  0.47540  0.92345  0.08856  1.0000
  C   C307      1.0  0.02759  0.86109  0.13773  1.0000
  N   N18       1.0  0.03968  0.59277  0.30127  1.0000
  H   H540      1.0  0.06291  0.51786  0.18973  1.0000
  H   H541      1.0  0.04936  0.85188  0.26665  1.0000
  C   C308      1.0  0.07711  0.50273  0.20114  1.0000
  C   C309      1.0  0.33922  0.97427  0.09407  1.0000
  H   H542      1.0  0.03737  0.88186  0.12884  1.0000
  H   H543      1.0  0.47478  0.87484  0.21722  1.0000
  C   C310      1.0  0.27269  0.97970  0.14972  1.0000
  C   C311      1.0  0.00446  0.73303  0.20503  1.0000
  H   H544      1.0  0.13021  0.77570  0.99259  1.0000
  H   H545      1.0  0.20239  0.97062  0.99368  1.0000
  C   C312      1.0  0.00850  0.99075  0.13513  1.0000
  H   H546      1.0  0.12660  0.57698  0.30327  1.0000
  H   H547      1.0  0.00771  0.82684  0.17475  1.0000
  H   H548      1.0  0.47995  0.93985  0.10118  1.0000
  H   H549      1.0  0.12751  0.53894  0.29460  1.0000
  C   C313      1.0  0.99521  0.54493  0.17147  1.0000
  H   H550      1.0  0.00236  0.71313  0.19497  1.0000
  H   H551      1.0  0.32312  0.56937  0.29899  1.0000
  H   H552      1.0  0.17301  0.62884  0.28848  1.0000
  C   C314      1.0  0.04302  0.98066  0.97964  1.0000
  C   C315      1.0  0.44027  0.98819  0.28388  1.0000
  H   H553      1.0  0.13251  0.95983  0.18085  1.0000
  H   H554      1.0  0.48439  0.88085  0.16063  1.0000
  H   H555      1.0  0.01423  0.72496  0.22173  1.0000
  H   H556      1.0  0.00127  0.51332  0.27926  1.0000
  C   C316      1.0  0.11539  0.55468  0.30457  1.0000
  C   C317      1.0  0.14315  0.88673  0.97850  1.0000
  H   H557      1.0  0.13219  0.49489  0.21494  1.0000
  H   H558      1.0  0.99490  0.58106  0.29561  1.0000
  H   H559      1.0  0.99261  0.56716  0.17747  1.0000
  S   S67       1.0  0.99771  0.65157  0.23762  1.0000
  H   H560      1.0  0.24517  0.94495  0.97922  1.0000
  H   H561      1.0  0.33470  0.99154  0.07956  1.0000
  H   H562      1.0  0.25621  0.50043  0.31043  1.0000
  H   H563      1.0  0.45108  0.58891  0.33137  1.0000
  H   H564      1.0  0.00673  0.52981  0.38941  1.0000
  H   H565      1.0  0.23047  0.53287  0.37937  1.0000
  H   H566      1.0  0.48646  0.63737  0.32175  1.0000
  H   H567      1.0  0.45274  0.96945  0.62878  1.0000
  H   H568      1.0  0.39512  0.49906  0.49283  1.0000
  H   H569      1.0  0.45732  0.58673  0.36177  1.0000
  H   H570      1.0  0.42439  0.89024  0.33695  1.0000
  H   H571      1.0  0.18991  0.58790  0.31601  1.0000
  C   C318      1.0  0.45956  0.51008  0.46374  1.0000
  H   H572      1.0  0.41834  0.49932  0.43128  1.0000
  H   H573      1.0  0.11563  0.54515  0.32257  1.0000
  H   H574      1.0  0.39480  0.50450  0.61768  1.0000
  S   S68       1.0  0.43551  0.51049  0.58028  1.0000
  C   C319      1.0  0.01426  0.59252  0.34033  1.0000
  C   C320      1.0  0.05509  0.50256  0.35341  1.0000
  H   H575      1.0  0.44197  0.54653  0.62481  1.0000
  C   C321      1.0  0.47978  0.55101  0.58442  1.0000
  C   C322      1.0  0.22141  0.51315  0.37142  1.0000
  C   C323      1.0  0.06583  0.57623  0.31157  1.0000
  H   H576      1.0  0.47703  0.50491  0.47654  1.0000
  S   S69       1.0  0.20729  0.49688  0.63242  1.0000
  C   C324      1.0  0.47377  0.52275  0.44114  1.0000
  H   H577      1.0  0.19745  0.51459  0.37116  1.0000
  C   C325      1.0  0.00446  0.51838  0.63920  1.0000
  N   N19       1.0  0.43359  0.98489  0.32761  1.0000
  H   H578      1.0  0.42891  0.51302  0.50284  1.0000
  C   C326      1.0  0.23299  0.51225  0.34741  1.0000
  H   H579      1.0  0.03134  0.57902  0.34987  1.0000
  C   C327      1.0  0.31701  0.56819  0.31717  1.0000
  H   H580      1.0  0.43867  0.88464  0.36547  1.0000
  H   H581      1.0  0.05069  0.51290  0.63601  1.0000
  H   H582      1.0  0.45719  0.52907  0.42793  1.0000
  H   H583      1.0  0.40417  0.51429  0.45553  1.0000
  H   H584      1.0  0.33510  0.55749  0.32747  1.0000
  H   H585      1.0  0.43025  0.99212  0.36317  1.0000
  C   C328      1.0  0.40106  0.98643  0.32648  1.0000
  C   C329      1.0  0.00085  0.61337  0.35654  1.0000
  C   C330      1.0  0.02688  0.61117  0.31903  1.0000
  C   C331      1.0  0.04414  0.51434  0.37266  1.0000
  C   C332      1.0  0.44091  0.89811  0.34873  1.0000
  H   H586      1.0  0.99920  0.50292  0.62669  1.0000
  H   H587      1.0  0.34422  0.50270  0.61979  1.0000
  H   H588      1.0  0.45262  0.93807  0.36453  1.0000
  C   C333      1.0  0.35319  0.52616  0.61809  1.0000
  C   C334      1.0  0.43693  0.93199  0.35145  1.0000
  C   C335      1.0  0.28971  0.54912  0.32146  1.0000
  C   C336      1.0  0.01470  0.52026  0.37447  1.0000
  H   H589      1.0  0.32547  0.53755  0.58883  1.0000
  H   H590      1.0  0.36177  0.52716  0.58181  1.0000
  C   C337      1.0  0.46607  0.58072  0.34536  1.0000
  H   H591      1.0  0.35410  0.50272  0.44076  1.0000
  H   H592      1.0  0.25668  0.50948  0.34857  1.0000
  H   H593      1.0  0.05944  0.55906  0.32562  1.0000
  H   H594      1.0  0.46758  0.55550  0.34609  1.0000
  H   H595      1.0  0.47768  0.56946  0.45013  1.0000
  C   C338      1.0  0.34859  0.53955  0.59355  1.0000
  H   H596      1.0  0.05861  0.51931  0.38624  1.0000
  C   C339      1.0  0.00623  0.50244  0.33768  1.0000
  H   H597      1.0  0.48853  0.50577  0.43475  1.0000
  C   C340      1.0  0.03612  0.49645  0.33580  1.0000
  H   H598      1.0  0.44737  0.52939  0.46984  1.0000
  H   H599      1.0  0.46542  0.94941  0.32456  1.0000
  H   H600      1.0  0.39147  0.97316  0.34145  1.0000
  H   H601      1.0  0.46270  0.89374  0.34202  1.0000
  H   H602      1.0  0.41494  0.93504  0.35805  1.0000
  H   H603      1.0  0.39847  0.49347  0.53454  1.0000
  H   H604      1.0  0.47743  0.68601  0.35065  1.0000
  H   H605      1.0  0.39681  0.54434  0.61514  1.0000
  H   H606      1.0  0.28530  0.54807  0.33991  1.0000
  H   H607      1.0  0.35471  0.56399  0.59156  1.0000
  H   H608      1.0  0.46392  0.56836  0.57928  1.0000
  C   C341      1.0  0.47304  0.97574  0.63711  1.0000
  H   H609      1.0  0.07990  0.59232  0.31996  1.0000
  C   C342      1.0  0.38570  0.52494  0.62472  1.0000
  C   C343      1.0  0.44208  0.95166  0.32859  1.0000
  H   H610      1.0  0.29465  0.52595  0.31684  1.0000
  H   H611      1.0  0.04326  0.62667  0.32544  1.0000
  H   H612      1.0  0.25974  0.58570  0.31508  1.0000
  H   H613      1.0  0.46610  0.98668  0.35386  1.0000
  H   H614      1.0  0.47853  0.63708  0.35076  1.0000
  C   C344      1.0  0.22367  0.54095  0.33168  1.0000
  C   C345      1.0  0.47160  0.52016  0.58644  1.0000
  H   H615      1.0  0.19972  0.53914  0.33068  1.0000
  H   H616      1.0  0.22785  0.56142  0.34084  1.0000
  H   H617      1.0  0.48789  0.53521  0.39192  1.0000
  S   S70       1.0  0.09285  0.49847  0.35211  1.0000
  H   H618      1.0  0.99812  0.65761  0.63500  1.0000
  H   H619      1.0  0.43013  0.94037  0.31541  1.0000
  H   H620      1.0  0.34047  0.53981  0.62927  1.0000
  C   C346      1.0  0.99564  0.51470  0.35702  1.0000
  H   H621      1.0  0.48097  0.74237  0.34937  1.0000
  H   H622      1.0  0.31372  0.59162  0.32207  1.0000
  H   H623      1.0  0.01731  0.62906  0.36257  1.0000
  H   H624      1.0  0.36727  0.58366  0.63147  1.0000
  H   H625      1.0  0.99153  0.49857  0.32401  1.0000
  H   H626      1.0  0.40538  0.58566  0.63534  1.0000
  H   H627      1.0  0.99200  0.59928  0.37149  1.0000
  H   H628      1.0  0.48013  0.50911  0.63915  1.0000
  H   H629      1.0  0.99704  0.57682  0.33565  1.0000
  C   C347      1.0  0.44533  0.54146  0.64331  1.0000
  H   H630      1.0  0.01779  0.62248  0.64265  1.0000
  H   H631      1.0  0.00923  0.62614  0.31139  1.0000
  H   H632      1.0  0.48417  0.72917  0.32162  1.0000
  H   H633      1.0  0.46922  0.80842  0.64193  1.0000
  H   H634      1.0  0.39287  0.97525  0.31165  1.0000
  Fe  Fe34      1.0  0.09916  0.93984  0.89862  1.0000
  S   S71       1.0  0.09099  0.89090  0.91154  1.0000
  H   H635      1.0  0.36235  0.98273  0.65207  1.0000
  Fe  Fe35      1.0  0.15692  0.92366  0.87635  1.0000
  S   S72       1.0  0.15271  0.87364  0.88758  1.0000
  S   S73       1.0  0.19227  0.94780  0.85462  1.0000
  Fe  Fe36      1.0  0.10590  0.87906  0.87734  1.0000
  S   S74       1.0  0.07858  0.84938  0.85590  1.0000
  Fe  Fe37      1.0  0.13802  0.88940  0.92086  1.0000
  Fe  Fe38      1.0  0.11304  0.52174  0.67169  1.0000
  S   S75       1.0  0.11097  0.92847  0.86366  1.0000
  S   S76       1.0  0.14548  0.93891  0.91035  1.0000
  H   H636      1.0  0.28739  0.94309  0.80538  1.0000
  C   C348      1.0  0.04083  0.64172  0.71348  1.0000
  H   H637      1.0  0.15663  0.49850  0.78636  1.0000
  S   S77       1.0  0.16959  0.52652  0.74245  1.0000
  S   S78       1.0  0.15796  0.54008  0.67554  1.0000
  Fe  Fe39      1.0  0.06359  0.67560  0.82617  1.0000
  S   S79       1.0  0.04975  0.68928  0.79016  1.0000
  S   S80       1.0  0.08165  0.70472  0.85297  1.0000
  Fe  Fe40      1.0  0.05327  0.60679  0.82091  1.0000
  S   S81       1.0  0.03902  0.61538  0.78465  1.0000
  C   C349      1.0  0.06741  0.72013  0.68630  1.0000
  Fe  Fe41      1.0  0.07570  0.64881  0.78161  1.0000
  S   S82       1.0  0.10479  0.65114  0.75132  1.0000
  H   H638      1.0  0.99973  0.53060  0.74559  1.0000
  S   S83       1.0  0.09208  0.63738  0.81699  1.0000
  H   H639      1.0  0.36043  0.55049  0.66607  1.0000
  C   C350      1.0  0.44010  0.89728  0.73301  1.0000
  H   H640      1.0  0.44119  0.78705  0.66815  1.0000
  H   H641      1.0  0.33479  0.98673  0.91240  1.0000
  Fe  Fe42      1.0  0.36102  0.94610  0.83289  1.0000
  S   S84       1.0  0.36586  0.92220  0.80126  1.0000
  S   S85       1.0  0.32853  0.92734  0.85967  1.0000
  Fe  Fe43      1.0  0.41352  0.92568  0.80696  1.0000
  S   S86       1.0  0.44605  0.88927  0.80157  1.0000
  H   H642      1.0  0.20698  0.90991  0.90724  1.0000
  S   S87       1.0  0.40907  0.94566  0.84024  1.0000
  C   C351      1.0  0.03456  0.52944  0.84006  1.0000
  H   H643      1.0  0.37965  0.51053  0.69622  1.0000
  H   H644      1.0  0.20608  0.96001  0.90469  1.0000
  H   H645      1.0  0.23323  0.85961  0.94081  1.0000
  C   C352      1.0  0.02181  0.52159  0.81987  1.0000
  C   C353      1.0  0.46789  0.88925  0.72654  1.0000
  C   C354      1.0  0.48175  0.88037  0.76617  1.0000
  C   C355      1.0  0.43348  0.89800  0.75604  1.0000
  C   C356      1.0  0.45423  0.88925  0.77267  1.0000
  H   H646      1.0  0.41456  0.97284  0.64974  1.0000
  H   H647      1.0  0.01941  0.63086  0.71658  1.0000
  H   H648      1.0  0.39326  0.80745  0.69952  1.0000
  H   H649      1.0  0.41216  0.90478  0.76097  1.0000
  C   C357      1.0  0.10175  0.61957  0.88568  1.0000
  H   H650      1.0  0.35201  0.50046  0.65905  1.0000
  C   C358      1.0  0.03404  0.92254  0.84792  1.0000
  H   H651      1.0  0.46878  0.89772  0.84757  1.0000
  S   S88       1.0  0.47621  0.88945  0.69768  1.0000
  H   H652      1.0  0.14389  0.60766  0.87332  1.0000
  H   H653      1.0  0.00129  0.95401  0.85581  1.0000
  C   C359      1.0  0.15327  0.56199  0.74531  1.0000
  C   C360      1.0  0.14241  0.56844  0.76634  1.0000
  C   C361      1.0  0.12728  0.59565  0.76831  1.0000
  C   C362      1.0  0.12439  0.61730  0.74952  1.0000
  C   C363      1.0  0.13665  0.61155  0.72882  1.0000
  C   C364      1.0  0.15050  0.58373  0.72661  1.0000
  H   H654      1.0  0.14526  0.55224  0.78103  1.0000
  H   H655      1.0  0.11815  0.59997  0.78441  1.0000
  H   H656      1.0  0.13496  0.62836  0.71432  1.0000
  H   H657      1.0  0.15953  0.57942  0.71049  1.0000
  H   H658      1.0  0.19538  0.95321  0.94379  1.0000
  C   C365      1.0  0.01724  0.92708  0.93862  1.0000
  H   H659      1.0  0.05975  0.72127  0.66847  1.0000
  H   H660      1.0  0.43231  0.98559  0.70930  1.0000
  H   H661      1.0  0.03927  0.96533  0.82649  1.0000
  H   H662      1.0  0.44973  0.95085  0.70455  1.0000
  H   H663      1.0  0.10990  0.62109  0.90318  1.0000
  H   H664      1.0  0.00895  0.94919  0.89524  1.0000
  C   C366      1.0  0.01942  0.61179  0.89656  1.0000
  H   H665      1.0  0.02691  0.68635  0.66330  1.0000
  C   C367      1.0  0.22999  0.94107  0.85576  1.0000
  C   C368      1.0  0.24186  0.91403  0.86615  1.0000
  C   C369      1.0  0.27206  0.91008  0.86715  1.0000
  C   C370      1.0  0.29067  0.93287  0.85748  1.0000
  C   C371      1.0  0.27878  0.95981  0.84700  1.0000
  C   C372      1.0  0.24862  0.96378  0.84601  1.0000
  H   H666      1.0  0.22778  0.89604  0.87315  1.0000
  H   H667      1.0  0.28108  0.88914  0.87529  1.0000
  H   H668      1.0  0.29983  0.94657  0.77744  1.0000
  H   H669      1.0  0.24706  0.89107  0.75625  1.0000
  C   C373      1.0  0.08065  0.80921  0.85491  1.0000
  C   C374      1.0  0.09682  0.79044  0.87066  1.0000
  C   C375      1.0  0.09698  0.75859  0.86970  1.0000
  C   C376      1.0  0.08126  0.74510  0.85288  1.0000
  C   C377      1.0  0.06522  0.76387  0.83705  1.0000
  C   C378      1.0  0.06484  0.79570  0.83814  1.0000
  H   H670      1.0  0.10903  0.80044  0.88368  1.0000
  H   H671      1.0  0.10945  0.74431  0.88204  1.0000
  H   H672      1.0  0.05298  0.75387  0.82405  1.0000
  H   H673      1.0  0.05225  0.80996  0.82587  1.0000
  C   C379      1.0  0.22371  0.87866  0.79974  1.0000
  C   C380      1.0  0.22467  0.86868  0.92393  1.0000
  H   H674      1.0  0.04102  0.71126  0.73265  1.0000
  C   C381      1.0  0.01810  0.55912  0.67077  1.0000
  H   H675      1.0  0.07622  0.62918  0.93076  1.0000
  H   H676      1.0  0.02463  0.71261  0.88298  1.0000
  H   H677      1.0  0.39483  0.84720  0.68917  1.0000
  C   C382      1.0  0.28677  0.88838  0.78812  1.0000
  C   C383      1.0  0.29678  0.88105  0.81313  1.0000
  H   H678      1.0  0.99937  0.72776  0.75476  1.0000
  N   N20       1.0  0.44663  0.98329  0.67479  1.0000
  H   H679      1.0  0.23842  0.85911  0.80406  1.0000
  C   C384      1.0  0.27638  0.92494  0.74090  1.0000
  C   C385      1.0  0.31765  0.85407  0.81552  1.0000
  C   C386      1.0  0.99787  0.87857  0.87756  1.0000
  H   H680      1.0  0.01890  0.72338  0.91120  1.0000
  H   H681      1.0  0.35956  0.60866  0.66702  1.0000
  H   H682      1.0  0.05166  0.51621  0.76229  1.0000
  H   H683      1.0  0.48352  0.89496  0.87590  1.0000
  C   C387      1.0  0.04905  0.60672  0.96801  1.0000
  C   C388      1.0  0.00066  0.91136  0.92066  1.0000
  H   H684      1.0  0.42113  0.94301  0.67106  1.0000
  H   H685      1.0  0.27834  0.86698  0.78203  1.0000
  H   H686      1.0  0.30670  0.89373  0.77812  1.0000
  H   H687      1.0  0.05626  0.61113  0.68862  1.0000
  H   H688      1.0  0.30819  0.90075  0.81917  1.0000
  S   S89       1.0  0.41813  0.97048  0.78617  1.0000
  C   C389      1.0  0.06208  0.61776  0.70559  1.0000
  H   H689      1.0  0.29651  0.91131  0.74273  1.0000
  N   N21       1.0  0.03822  0.67088  0.69803  1.0000
  C   C390      1.0  0.48547  0.90689  0.85859  1.0000
  C   C391      1.0  0.48900  0.71084  0.66138  1.0000
  C   C392      1.0  0.03563  0.61087  0.94427  1.0000
  C   C393      1.0  0.21767  0.95856  0.94938  1.0000
  H   H690      1.0  0.47165  0.94401  0.66754  1.0000
  H   H691      1.0  0.33679  0.85872  0.80453  1.0000
  H   H692      1.0  0.32525  0.85017  0.83341  1.0000
  H   H693      1.0  0.30675  0.83308  0.81094  1.0000
  H   H694      1.0  0.44318  0.56270  0.65176  1.0000
  H   H695      1.0  0.99755  0.97502  0.97482  1.0000
  C   C394      1.0  0.38061  0.61011  0.65809  1.0000
  C   C395      1.0  0.04144  0.94046  0.82532  1.0000
  Fe  Fe44      1.0  0.17384  0.49820  0.66047  1.0000
  H   H696      1.0  0.47238  0.78368  0.72431  1.0000
  H   H697      1.0  0.36329  0.94451  0.66653  1.0000
  C   C396      1.0  0.01563  0.57687  0.89650  1.0000
  C   C397      1.0  0.44847  0.79204  0.68525  1.0000
  C   C398      1.0  0.01479  0.69024  0.70682  1.0000
  C   C399      1.0  0.04044  0.54446  0.66026  1.0000
  S   S90       1.0  0.07638  0.55544  0.66509  1.0000
  H   H698      1.0  0.13823  0.50387  0.81162  1.0000
  H   H699      1.0  0.99823  0.74429  0.72566  1.0000
  H   H700      1.0  0.45143  0.73310  0.67297  1.0000
  H   H701      1.0  0.04877  0.65349  0.66604  1.0000
  H   H702      1.0  0.20494  0.85560  0.92040  1.0000
  H   H703      1.0  0.21671  0.98280  0.95303  1.0000
  S   S91       1.0  0.07043  0.97659  0.91158  1.0000
  C   C400      1.0  0.05927  0.61321  0.92569  1.0000
  H   H704      1.0  0.28008  0.93003  0.70426  1.0000
  H   H705      1.0  0.03308  0.91842  0.89499  1.0000
  C   C401      1.0  0.47834  0.98783  0.71087  1.0000
  H   H706      1.0  0.07325  0.66512  0.89837  1.0000
  H   H707      1.0  0.06412  0.93559  0.82083  1.0000
  H   H708      1.0  0.02493  0.56944  0.88075  1.0000
  H   H709      1.0  0.39628  0.55497  0.67558  1.0000
  H   H710      1.0  0.28211  0.94927  0.74159  1.0000
  N   N22       1.0  0.26511  0.91391  0.78377  1.0000
  H   H711      1.0  0.03956  0.67473  0.92790  1.0000
  H   H712      1.0  0.00873  0.66887  0.90983  1.0000
  C   C402      1.0  0.06998  0.60837  0.88561  1.0000
  H   H713      1.0  0.24410  0.93587  0.71438  1.0000
  H   H714      1.0  0.24142  0.96577  0.89448  1.0000
  H   H715      1.0  0.09778  0.75702  0.67823  1.0000
  H   H716      1.0  0.05362  0.73516  0.69566  1.0000
  N   N23       1.0  0.48076  0.78856  0.68805  1.0000
  H   H717      1.0  0.04552  0.66241  0.87782  1.0000
  H   H718      1.0  0.02142  0.87328  0.87872  1.0000
  H   H719      1.0  0.99557  0.55702  0.72049  1.0000
  H   H720      1.0  0.04079  0.92290  0.93728  1.0000
  C   C403      1.0  0.06260  0.58893  0.72209  1.0000
  H   H721      1.0  0.03997  0.51627  0.87580  1.0000
  C   C404      1.0  0.05098  0.65651  0.89606  1.0000
  C   C405      1.0  0.02987  0.51081  0.86019  1.0000
  C   C406      1.0  0.03047  0.66462  0.67412  1.0000
  H   H722      1.0  0.99398  0.67784  0.70751  1.0000
  C   C407      1.0  0.00270  0.92902  0.85505  1.0000
  C   C408      1.0  0.47155  0.96915  0.66324  1.0000
  C   C409      1.0  0.23974  0.90953  0.79959  1.0000
  H   H723      1.0  0.24089  0.86522  0.91069  1.0000
  C   C410      1.0  0.38319  0.55232  0.66005  1.0000
  H   H724      1.0  0.05512  0.71844  0.90122  1.0000
  H   H725      1.0  0.11412  0.59560  0.85666  1.0000
  S   S92       1.0  0.02601  0.64381  0.83328  1.0000
  H   H726      1.0  0.06998  0.59045  0.92703  1.0000
  N   N24       1.0  0.39214  0.52369  0.64981  1.0000
  C   C411      1.0  0.19948  0.87650  0.81725  1.0000
  H   H727      1.0  0.18447  0.50902  0.83236  1.0000
  C   C412      1.0  0.21709  0.90241  0.92385  1.0000
  S   S93       1.0  0.15496  0.86872  0.95492  1.0000
  C   C413      1.0  0.26397  0.92187  0.71727  1.0000
  H   H728      1.0  0.10342  0.64242  0.87607  1.0000
  H   H729      1.0  0.43741  0.77487  0.69728  1.0000
  H   H730      1.0  0.02545  0.53575  0.80422  1.0000
  H   H731      1.0  0.25858  0.91922  0.91319  1.0000
  N   N25       1.0  0.99283  0.91241  0.87714  1.0000
  H   H732      1.0  0.25625  0.91034  0.94281  1.0000
  C   C414      1.0  0.41897  0.96829  0.66814  1.0000
  H   H733      1.0  0.20076  0.90446  0.93710  1.0000
  H   H734      1.0  0.42380  0.90347  0.72023  1.0000
  C   C415      1.0  0.31880  0.98472  0.92638  1.0000
  H   H735      1.0  0.06204  0.61248  0.86781  1.0000
  Fe  Fe45      1.0  0.15809  0.51063  0.70859  1.0000
  H   H736      1.0  0.06891  0.59435  0.73934  1.0000
  H   H737      1.0  0.10228  0.52805  0.79363  1.0000
  H   H738      1.0  0.24645  0.91277  0.81723  1.0000
  C   C416      1.0  0.24431  0.92159  0.92791  1.0000
  C   C417      1.0  0.12168  0.59817  0.87420  1.0000
  H   H739      1.0  0.04955  0.92928  0.86077  1.0000
  H   H740      1.0  0.00316  0.62385  0.68270  1.0000
  C   C418      1.0  0.25430  0.91426  0.75965  1.0000
  H   H741      1.0  0.07860  0.57265  0.71625  1.0000
  H   H742      1.0  0.22313  0.92740  0.79522  1.0000
  H   H743      1.0  0.26399  0.99183  0.94264  1.0000
  H   H744      1.0  0.04847  0.64661  0.73058  1.0000
  S   S94       1.0  0.05839  0.56062  0.84106  1.0000
  H   H745      1.0  0.21383  0.87626  0.78289  1.0000
  H   H746      1.0  0.04116  0.57788  0.72287  1.0000
  H   H747      1.0  0.39123  0.96424  0.69827  1.0000
  H   H748      1.0  0.05113  0.98553  0.86418  1.0000
  H   H749      1.0  0.08397  0.53692  0.75291  1.0000
  H   H750      1.0  0.07589  0.68718  0.71512  1.0000
  C   C419      1.0  0.08719  0.51200  0.78650  1.0000
  H   H751      1.0  0.03956  0.51509  0.71971  1.0000
  H   H752      1.0  0.02676  0.56424  0.91116  1.0000
  H   H753      1.0  0.03733  0.89813  0.84582  1.0000
  H   H754      1.0  0.27749  0.95520  0.95166  1.0000
  C   C420      1.0  0.99655  0.72269  0.73687  1.0000
  H   H755      1.0  0.20841  0.87742  0.83462  1.0000
  Fe  Fe46      1.0  0.01436  0.65457  0.79654  1.0000
  H   H756      1.0  0.27846  0.87513  0.82465  1.0000
  H   H757      1.0  0.11268  0.71958  0.67636  1.0000
  C   C421      1.0  0.12217  0.90956  0.97587  1.0000
  H   H758      1.0  0.23468  0.92876  0.75691  1.0000
  H   H759      1.0  0.02154  0.59090  0.94248  1.0000
  C   C422      1.0  0.27974  0.94352  0.78760  1.0000
  N   N26       1.0  0.23911  0.95476  0.93077  1.0000
  H   H760      1.0  0.06117  0.55100  0.77405  1.0000
  H   H761      1.0  0.18378  0.89544  0.81364  1.0000
  C   C423      1.0  0.06995  0.53004  0.76768  1.0000
  H   H762      1.0  0.02162  0.63125  0.94332  1.0000
  H   H763      1.0  0.08322  0.67407  0.68856  1.0000
  C   C424      1.0  0.39160  0.97700  0.68112  1.0000
  C   C425      1.0  0.47324  0.73980  0.66655  1.0000
  H   H764      1.0  0.12235  0.57535  0.88394  1.0000
  H   H765      1.0  0.06272  0.58590  0.97004  1.0000
  H   H766      1.0  0.18777  0.85460  0.81675  1.0000
  H   H767      1.0  0.08432  0.62688  0.70466  1.0000
  C   C426      1.0  0.06701  0.68693  0.69763  1.0000
  H   H768      1.0  0.44120  0.83042  0.70600  1.0000
  H   H769      1.0  0.34499  0.97476  0.67913  1.0000
  Fe  Fe47      1.0  0.37010  0.96908  0.78332  1.0000
  H   H770      1.0  0.07064  0.58316  0.88944  1.0000
  H   H771      1.0  0.20364  0.50378  0.80646  1.0000
  H   H772      1.0  0.02710  0.93363  0.81159  1.0000
  H   H773      1.0  0.02315  0.57482  0.68299  1.0000
  C   C427      1.0  0.37570  0.49696  0.66131  1.0000
  C   C428      1.0  0.00979  0.92398  0.89636  1.0000
  H   H774      1.0  0.39834  0.61118  0.67070  1.0000
  H   H775      1.0  0.11325  0.91654  0.95924  1.0000
  H   H776      1.0  0.01212  0.62210  0.87957  1.0000
  C   C429      1.0  0.01976  0.70019  0.73097  1.0000
  C   C430      1.0  0.09798  0.73317  0.68620  1.0000
  H   H777      1.0  0.00537  0.88662  0.92361  1.0000
  H   H778      1.0  0.29560  0.94957  0.91167  1.0000
  C   C431      1.0  0.22719  0.97009  0.90882  1.0000
  C   C432      1.0  0.03161  0.67607  0.91013  1.0000
  H   H779      1.0  0.01065  0.71080  0.69481  1.0000
  S   S95       1.0  0.11262  0.49443  0.70557  1.0000
  N   N27       1.0  0.04960  0.62240  0.90155  1.0000
  H   H780      1.0  0.23967  0.98477  0.83790  1.0000
  H   H781      1.0  0.25887  0.89769  0.71519  1.0000
  C   C433      1.0  0.45046  0.97592  0.70009  1.0000
  H   H782      1.0  0.07193  0.50384  0.80003  1.0000
  H   H783      1.0  0.01321  0.95203  0.93653  1.0000
  H   H784      1.0  0.48696  0.81962  0.71399  1.0000
  H   H785      1.0  0.01864  0.68017  0.74382  1.0000
  H   H786      1.0  0.29291  0.97772  0.83988  1.0000
  C   C434      1.0  0.36391  0.96918  0.66886  1.0000
  C   C435      1.0  0.03267  0.70963  0.90079  1.0000
  S   S96       1.0  0.36188  0.99309  0.81439  1.0000
  C   C436      1.0  0.03357  0.52378  0.64459  1.0000
  C   C437      1.0  0.48881  0.88109  0.74313  1.0000
  H   H787      1.0  0.01579  0.82544  0.85997  1.0000
  H   H788      1.0  0.22263  0.91481  0.97072  1.0000
  H   H789      1.0  0.48137  0.93148  0.85957  1.0000
  H   H790      1.0  0.99392  0.87303  0.84090  1.0000
  C   C438      1.0  0.43595  0.82382  0.68885  1.0000
  H   H791      1.0  0.44445  0.84139  0.67593  1.0000
  H   H792      1.0  0.28323  0.98759  0.90314  1.0000
  H   H793      1.0  0.38091  0.63144  0.64646  1.0000
  C   C439      1.0  0.40308  0.82415  0.68655  1.0000
  H   H794      1.0  0.10641  0.73308  0.70383  1.0000
  H   H795      1.0  0.39641  0.81871  0.66935  1.0000
  Fe  Fe48      1.0  0.41028  0.99058  0.81888  1.0000
  H   H796      1.0  0.01018  0.91794  0.95582  1.0000
  C   C440      1.0  0.26745  0.96884  0.93687  1.0000
  C   C441      1.0  0.42389  0.51717  0.65368  1.0000
  H   H797      1.0  0.48166  0.52677  0.66544  1.0000
  C   C442      1.0  0.38468  0.58274  0.64446  1.0000
  H   H798      1.0  0.00352  0.61998  0.90848  1.0000
  C   C443      1.0  0.99205  0.82906  0.85952  1.0000
  C   C444      1.0  0.48832  0.79475  0.71212  1.0000
  H   H799      1.0  0.48662  0.74116  0.70071  1.0000
  C   C445      1.0  0.29057  0.97191  0.91784  1.0000
  C   C446      1.0  0.00279  0.64536  0.67145  1.0000
  H   H800      1.0  0.46866  0.98333  0.84961  1.0000
  C   C447      1.0  0.00486  0.49488  0.81991  1.0000
  C   C448      1.0  0.99939  0.63685  0.64718  1.0000
  H   H801      1.0  0.47585  0.95877  0.74282  1.0000
  H   H802      1.0  0.32789  0.96930  0.94061  1.0000
  C   C449      1.0  0.22362  0.93961  0.97242  1.0000
  H   H803      1.0  0.06240  0.62682  0.97114  1.0000
  H   H804      1.0  0.25023  0.97398  0.76619  1.0000
  C   C450      1.0  0.47677  0.98341  0.73677  1.0000
  H   H805      1.0  0.11699  0.49521  0.76300  1.0000
  H   H806      1.0  0.24363  0.97265  0.79614  1.0000
  S   S97       1.0  0.34498  0.97991  0.75100  1.0000
  C   C451      1.0  0.26073  0.97252  0.78311  1.0000
  H   H807      1.0  0.42910  0.51459  0.67210  1.0000
  C   C452      1.0  0.47651  0.53061  0.64704  1.0000
  H   H808      1.0  0.47029  0.75411  0.65034  1.0000
  H   H809      1.0  0.47601  0.69859  0.64933  1.0000
  H   H810      1.0  0.42958  0.49503  0.64718  1.0000
  H   H811      1.0  0.04718  0.99093  0.96211  1.0000
  Fe  Fe49      1.0  0.90251  0.13155  0.07737  1.0000
  S   S98       1.0  0.90172  0.08112  0.08640  1.0000
  S   S99       1.0  0.89282  0.15380  0.04196  1.0000
  Fe  Fe50      1.0  0.92555  0.14471  0.12413  1.0000
  S   S100      1.0  0.92709  0.09458  0.13617  1.0000
  S   S101      1.0  0.94471  0.17653  0.14861  1.0000
  Fe  Fe51      1.0  0.94533  0.08736  0.10202  1.0000
  H   H812      1.0  0.93038  0.02312  0.98088  1.0000
  Fe  Fe52      1.0  0.88316  0.09265  0.11958  1.0000
  S   S102      1.0  0.84859  0.06257  0.13745  1.0000
  S   S103      1.0  0.94706  0.13756  0.09118  1.0000
  S   S104      1.0  0.88055  0.14314  0.10950  1.0000
  Fe  Fe53      1.0  0.67810  0.05658  0.15967  1.0000
  S   S105      1.0  0.68409  0.03601  0.19559  1.0000
  S   S106      1.0  0.71235  0.08257  0.13790  1.0000
  Fe  Fe54      1.0  0.61211  0.04499  0.16164  1.0000
  S   S107      1.0  0.61331  0.02405  0.19759  1.0000
  S   S108      1.0  0.57028  0.05330  0.14223  1.0000
  Fe  Fe55      1.0  0.64423  0.06171  0.20322  1.0000
  S   S109      1.0  0.64237  0.08775  0.23387  1.0000
  C   C453      1.0  0.96964  0.22420  0.09111  1.0000
  H   H813      1.0  0.96347  0.48980  0.22457  1.0000
  S   S110      1.0  0.63994  0.08490  0.16813  1.0000
  S   S111      1.0  0.64972  0.01854  0.14978  1.0000
  H   H814      1.0  0.83699  0.16387  0.16778  1.0000
  H   H815      1.0  0.78975  0.11268  0.01639  1.0000
  H   H816      1.0  0.98378  0.42024  0.30335  1.0000
  S   S112      1.0  0.94513  0.34318  0.25003  1.0000
  S   S113      1.0  0.93261  0.37885  0.18724  1.0000
  H   H817      1.0  0.88772  0.05800  0.00597  1.0000
  H   H818      1.0  0.54489  0.14442  0.11565  1.0000
  C   C454      1.0  0.92702  0.36619  0.26806  1.0000
  C   C455      1.0  0.89192  0.09661  0.98108  1.0000
  H   H819      1.0  0.74282  0.15361  0.18528  1.0000
  H   H820      1.0  0.64418  0.07262  0.28606  1.0000
  H   H821      1.0  0.70288  0.14186  0.21111  1.0000
  C   C456      1.0  0.93348  0.39711  0.26847  1.0000
  C   C457      1.0  0.89009  0.21951  0.21265  1.0000
  C   C458      1.0  0.97753  0.29139  0.08261  1.0000
  H   H822      1.0  0.90504  0.20854  0.06110  1.0000
  H   H823      1.0  0.95002  0.40720  0.25742  1.0000
  C   C459      1.0  0.55418  0.13375  0.23589  1.0000
  H   H824      1.0  0.52225  0.09589  0.16755  1.0000
  C   C460      1.0  0.60116  0.12167  0.25289  1.0000
  C   C461      1.0  0.60881  0.10628  0.23423  1.0000
  C   C462      1.0  0.58919  0.10487  0.21630  1.0000
  C   C463      1.0  0.56210  0.11893  0.21701  1.0000
  C   C464      1.0  0.79427  0.08891  0.01295  1.0000
  H   H825      1.0  0.59475  0.09286  0.20189  1.0000
  H   H826      1.0  0.54710  0.11775  0.20315  1.0000
  C   C465      1.0  0.59542  0.03913  0.27969  1.0000
  C   C466      1.0  0.57372  0.13496  0.25389  1.0000
  H   H827      1.0  0.79738  0.15796  0.19630  1.0000
  S   S114      1.0  0.52592  0.14949  0.30438  1.0000
  H   H828      1.0  0.91025  0.27483  0.18474  1.0000
  H   H829      1.0  0.71768  0.11033  0.23910  1.0000
  C   C467      1.0  0.92634  0.25187  0.25454  1.0000
  N   N28       1.0  0.92712  0.25671  0.22895  1.0000
  H   H830      1.0  0.98756  0.02322  0.02715  1.0000
  H   H831      1.0  0.86504  0.18261  0.20090  1.0000
  C   C468      1.0  0.94237  0.21676  0.14748  1.0000
  C   C469      1.0  0.95131  0.20952  0.00996  1.0000
  H   H832      1.0  0.51610  0.06719  0.19880  1.0000
  C   C470      1.0  0.94157  0.28123  0.14495  1.0000
  H   H833      1.0  0.87925  0.25735  0.25938  1.0000
  C   C471      1.0  0.91994  0.23310  0.13605  1.0000
  H   H834      1.0  0.96327  0.28362  0.04896  1.0000
  H   H835      1.0  0.54468  0.15895  0.14310  1.0000
  H   H836      1.0  0.91839  0.26467  0.05888  1.0000
  H   H837      1.0  0.89538  0.17017  0.21860  1.0000
  C   C472      1.0  0.81079  0.06858  0.13731  1.0000
  C   C473      1.0  0.79827  0.09538  0.12713  1.0000
  C   C474      1.0  0.76809  0.09923  0.12745  1.0000
  C   C475      1.0  0.75014  0.07641  0.13800  1.0000
  C   C476      1.0  0.76267  0.04962  0.14819  1.0000
  C   C477      1.0  0.79285  0.04578  0.14785  1.0000
  H   H838      1.0  0.81187  0.11316  0.11910  1.0000
  H   H839      1.0  0.75855  0.12004  0.11954  1.0000
  H   H840      1.0  0.74910  0.03179  0.15623  1.0000
  H   H841      1.0  0.80236  0.02493  0.15575  1.0000
  C   C478      1.0  0.76891  0.05372  0.21483  1.0000
  N   N29       1.0  0.97462  0.02903  0.99172  1.0000
  C   C479      1.0  0.89427  0.14570  0.99646  1.0000
  C   C480      1.0  0.89302  0.13143  0.01871  1.0000
  C   C481      1.0  0.89108  0.09969  0.02201  1.0000
  C   C482      1.0  0.89005  0.08245  0.00328  1.0000
  C   C483      1.0  0.82474  0.02157  0.07219  1.0000
  H   H842      1.0  0.89552  0.17027  0.99370  1.0000
  H   H843      1.0  0.88974  0.08841  0.03895  1.0000
  H   H844      1.0  0.87467  0.48539  0.14193  1.0000
  C   C484      1.0  0.49300  0.06173  0.22996  1.0000
  H   H845      1.0  0.97807  0.07209  0.00656  1.0000
  H   H846      1.0  0.87102  0.43782  0.22516  1.0000
  H   H847      1.0  0.74657  0.08684  0.25055  1.0000
  H   H848      1.0  0.83045  0.10418  0.99143  1.0000
  S   S115      1.0  0.98388  0.06165  0.08970  1.0000
  H   H849      1.0  0.84026  0.01252  0.10704  1.0000
  H   H850      1.0  0.84051  0.45255  0.18144  1.0000
  H   H851      1.0  0.83270  0.44060  0.28068  1.0000
  C   C485      1.0  0.89137  0.37031  0.29749  1.0000
  H   H852      1.0  0.83067  0.12586  0.16034  1.0000
  C   C486      1.0  0.89869  0.24256  0.29131  1.0000
  H   H853      1.0  0.95792  0.20249  0.09535  1.0000
  H   H854      1.0  0.97902  0.22324  0.22667  1.0000
  H   H855      1.0  0.87354  0.24523  0.09497  1.0000
  C   C487      1.0  0.97417  0.26999  0.06337  1.0000
  H   H856      1.0  0.78577  0.04984  0.20214  1.0000
  H   H857      1.0  0.83992  0.48431  0.25283  1.0000
  C   C488      1.0  0.72975  0.03437  0.08145  1.0000
  H   H858      1.0  0.55952  0.05531  0.24362  1.0000
  H   H859      1.0  0.96719  0.45427  0.24183  1.0000
  C   C489      1.0  0.50304  0.99922  0.16459  1.0000
  C   C490      1.0  0.51134  0.12522  0.13814  1.0000
  S   S116      1.0  0.51979  0.15043  0.23683  1.0000
  C   C491      1.0  0.86230  0.46588  0.15029  1.0000
  H   H860      1.0  0.81642  0.06718  0.98623  1.0000
  H   H861      1.0  0.92717  0.45056  0.21502  1.0000
  C   C492      1.0  0.92354  0.46394  0.22955  1.0000
  Fe  Fe56      1.0  0.65275  0.00029  0.18661  1.0000
  H   H862      1.0  0.94175  0.18709  0.01595  1.0000
  C   C493      1.0  0.63565  0.05827  0.30111  1.0000
  H   H863      1.0  0.69497  0.10693  0.19853  1.0000
  H   H864      1.0  0.93976  0.05095  0.02749  1.0000
  H   H865      1.0  0.74044  0.07065  0.18746  1.0000
  N   N30       1.0  0.75694  0.11020  0.20212  1.0000
  C   C494      1.0  0.98254  0.24687  0.23101  1.0000
  C   C495      1.0  0.68511  0.14800  0.17774  1.0000
  C   C496      1.0  0.92663  0.24858  0.07312  1.0000
  C   C497      1.0  0.85929  0.45975  0.22599  1.0000
  N   N31       1.0  0.87497  0.48546  0.21266  1.0000
  C   C498      1.0  0.89718  0.24206  0.26554  1.0000
  H   H866      1.0  0.89242  0.45470  0.18998  1.0000
  H   H867      1.0  0.60365  0.02182  0.24690  1.0000
  H   H868      1.0  0.86681  0.24666  0.06471  1.0000
  H   H869      1.0  0.71984  0.03326  0.09856  1.0000
  H   H870      1.0  0.88336  0.27409  0.22420  1.0000
  H   H871      1.0  0.59826  0.06238  0.27096  1.0000
  H   H872      1.0  0.95675  0.25417  0.02073  1.0000
  C   C499      1.0  0.91874  0.41471  0.28340  1.0000
  Fe  Fe57      1.0  0.96376  0.41756  0.17952  1.0000
  C   C500      1.0  0.90590  0.28153  0.22097  1.0000
  H   H873      1.0  0.51445  0.13336  0.17361  1.0000
  H   H874      1.0  0.69261  0.17193  0.17456  1.0000
  C   C501      1.0  0.88047  0.47664  0.18912  1.0000
  H   H875      1.0  0.92374  0.43856  0.28368  1.0000
  H   H876      1.0  0.91146  0.20526  0.09108  1.0000
  C   C502      1.0  0.90798  0.29372  0.19561  1.0000
  N   N32       1.0  0.80036  0.07224  0.05600  1.0000
  C   C503      1.0  0.81202  0.07136  0.03235  1.0000
  C   C504      1.0  0.82177  0.05656  0.07258  1.0000
  C   C505      1.0  0.77142  0.05655  0.05743  1.0000
  C   C506      1.0  0.79642  0.10455  0.06174  1.0000
  C   C507      1.0  0.82295  0.12577  0.05769  1.0000
  C   C508      1.0  0.95706  0.26799  0.22253  1.0000
  C   C509      1.0  0.75723  0.05349  0.08124  1.0000
  C   C510      1.0  0.94093  0.02591  0.02693  1.0000
  C   C511      1.0  0.81675  0.15730  0.06518  1.0000
  H   H877      1.0  0.77286  0.03360  0.05120  1.0000
  H   H878      1.0  0.74512  0.01360  0.20656  1.0000
  H   H879      1.0  0.81344  0.04747  0.02795  1.0000
  H   H880      1.0  0.83461  0.07988  0.03141  1.0000
  H   H881      1.0  0.84369  0.06618  0.06944  1.0000
  C   C512      1.0  0.85356  0.46399  0.25128  1.0000
  H   H882      1.0  0.83947  0.49276  0.17260  1.0000
  H   H883      1.0  0.75561  0.06925  0.04587  1.0000
  H   H884      1.0  0.77764  0.11554  0.05240  1.0000
  H   H885      1.0  0.79076  0.10472  0.07993  1.0000
  H   H886      1.0  0.82872  0.12888  0.03946  1.0000
  H   H887      1.0  0.84199  0.11643  0.06745  1.0000
  H   H888      1.0  0.89209  0.21835  0.26215  1.0000
  H   H889      1.0  0.81673  0.43296  0.25406  1.0000
  H   H890      1.0  0.75102  0.07626  0.08607  1.0000
  H   H891      1.0  0.61625  0.12295  0.26673  1.0000
  H   H892      1.0  0.95627  0.29749  0.08940  1.0000
  C   C513      1.0  0.94695  0.23227  0.02755  1.0000
  H   H893      1.0  0.83587  0.17215  0.06170  1.0000
  H   H894      1.0  0.79804  0.16795  0.05564  1.0000
  H   H895      1.0  0.81228  0.15573  0.08366  1.0000
  H   H896      1.0  0.50768  0.07830  0.23713  1.0000
  H   H897      1.0  0.59424  0.37563  0.30914  1.0000
  H   H898      1.0  0.72875  0.11980  0.27840  1.0000
  C   C514      1.0  0.79791  0.14303  0.18227  1.0000
  H   H899      1.0  0.75944  0.48993  0.27944  1.0000
  H   H900      1.0  0.90284  0.22100  0.12831  1.0000
  C   C515      1.0  0.81052  0.09036  0.99048  1.0000
  H   H901      1.0  0.77113  0.00658  0.22916  1.0000
  H   H902      1.0  0.73571  0.12179  0.16987  1.0000
  H   H903      1.0  0.87777  0.23489  0.29893  1.0000
  H   H904      1.0  0.77188  0.04259  0.09451  1.0000
  H   H905      1.0  0.78401  0.09853  0.17458  1.0000
  H   H906      1.0  0.56792  0.14668  0.26838  1.0000
  H   H907      1.0  0.84339  0.13173  0.18847  1.0000
  C   C516      1.0  0.85344  0.47227  0.17421  1.0000
  C   C517      1.0  0.96958  0.01639  0.01607  1.0000
  H   H908      1.0  0.97837  0.12605  0.98525  1.0000
  C   C518      1.0  0.84707  0.00854  0.08962  1.0000
  C   C519      1.0  0.96379  0.23276  0.15834  1.0000
  C   C520      1.0  0.89408  0.12835  0.97770  1.0000
  C   C521      1.0  0.83750  0.43657  0.26286  1.0000
  H   H909      1.0  0.80246  0.09888  0.20085  1.0000
  H   H910      1.0  0.55452  0.01833  0.23390  1.0000
  H   H911      1.0  0.72667  0.07491  0.21450  1.0000
  H   H912      1.0  0.68548  0.02480  0.29518  1.0000
  H   H913      1.0  0.58469  0.99519  0.26633  1.0000
  H   H914      1.0  0.78328  0.11846  0.23141  1.0000
  C   C522      1.0  0.91965  0.26519  0.13470  1.0000
  C   C523      1.0  0.54166  0.13822  0.13409  1.0000
  C   C524      1.0  0.54264  0.02577  0.14413  1.0000
  H   H915      1.0  0.73573  0.15341  0.25947  1.0000
  H   H916      1.0  0.93344  0.27314  0.26178  1.0000
  H   H917      1.0  0.93095  0.20774  0.22942  1.0000
  H   H918      1.0  0.91596  0.22709  0.29870  1.0000
  H   H919      1.0  0.95039  0.48610  0.25350  1.0000
  H   H920      1.0  0.87594  0.44506  0.15093  1.0000
  H   H921      1.0  0.84279  0.46233  0.13990  1.0000
  H   H922      1.0  0.76546  0.12982  0.27096  1.0000
  C   C525      1.0  0.82913  0.14091  0.17428  1.0000
  H   H923      1.0  0.98422  0.21685  0.04698  1.0000
  H   H924      1.0  0.90234  0.27771  0.12568  1.0000
  H   H925      1.0  0.83778  0.45631  0.21824  1.0000
  C   C526      1.0  0.90542  0.22130  0.07625  1.0000
  H   H926      1.0  0.96096  0.29056  0.22890  1.0000
  C   C527      1.0  0.78559  0.11103  0.18997  1.0000
  H   H927      1.0  0.55829  0.12109  0.14011  1.0000
  H   H928      1.0  0.49576  0.14311  0.13173  1.0000
  H   H929      1.0  0.93366  0.22734  0.20202  1.0000
  N   N33       1.0  0.62203  0.02971  0.29367  1.0000
  C   C528      1.0  0.53264  0.01494  0.12411  1.0000
  C   C529      1.0  0.76097  0.12290  0.22476  1.0000
  H   H930      1.0  0.92709  0.30878  0.19293  1.0000
  H   H931      1.0  0.87391  0.46667  0.26085  1.0000
  H   H932      1.0  0.98111  0.22030  0.16740  1.0000
  C   C530      1.0  0.74670  0.07757  0.20440  1.0000
  H   H933      1.0  0.94186  0.23383  0.26103  1.0000
  C   C531      1.0  0.92182  0.22733  0.21837  1.0000
  H   H934      1.0  0.77970  0.06159  0.22997  1.0000
  H   H935      1.0  0.90301  0.26604  0.29580  1.0000
  C   C532      1.0  0.97106  0.06331  0.99035  1.0000
  H   H936      1.0  0.92201  0.01846  0.01737  1.0000
  H   H937      1.0  0.94782  0.06952  0.98840  1.0000
  H   H938      1.0  0.86012  0.21212  0.08275  1.0000
  C   C533      1.0  0.88144  0.31250  0.18771  1.0000
  H   H939      1.0  0.98063  0.27693  0.16476  1.0000
  H   H940      1.0  0.57635  0.04100  0.29081  1.0000
  C   C534      1.0  0.74061  0.11058  0.24436  1.0000
  C   C535      1.0  0.50674  0.11493  0.16354  1.0000
  S   S117      1.0  0.94939  0.46645  0.17245  1.0000
  H   H941      1.0  0.64928  0.03077  0.26416  1.0000
  H   H942      1.0  0.54050  0.02607  0.26120  1.0000
  Fe  Fe58      1.0  0.96205  0.35168  0.16666  1.0000
  H   H943      1.0  0.71383  0.04478  0.06889  1.0000
  H   H944      1.0  0.59626  0.08626  0.30400  1.0000
  H   H945      1.0  0.91377  0.44850  0.24311  1.0000
  H   H946      1.0  0.63472  0.99449  0.27248  1.0000
  H   H947      1.0  0.88427  0.32180  0.16974  1.0000
  H   H948      1.0  0.86175  0.29812  0.18886  1.0000
  H   H949      1.0  0.87869  0.33189  0.19816  1.0000
  S   S118      1.0  0.94098  0.32159  0.14188  1.0000
  H   H950      1.0  0.87499  0.35980  0.30860  1.0000
  C   C536      1.0  0.93826  0.01131  0.05131  1.0000
  C   C537      1.0  0.73589  0.12939  0.18728  1.0000
  H   H951      1.0  0.92444  0.26103  0.08841  1.0000
  H   H952      1.0  0.50104  0.32801  0.31038  1.0000
  H   H953      1.0  0.50936  0.10531  0.12811  1.0000
  H   H954      1.0  0.87560  0.22078  0.22727  1.0000
  H   H955      1.0  0.50037  0.03832  0.23557  1.0000
  H   H956      1.0  0.63894  0.12093  0.30456  1.0000
  H   H957      1.0  0.78519  0.15387  0.16769  1.0000
  H   H958      1.0  0.95233  0.19727  0.05582  1.0000
  C   C538      1.0  0.70425  0.13009  0.19545  1.0000
  Fe  Fe59      1.0  0.96213  0.36442  0.21647  1.0000
  H   H959      1.0  0.90100  0.18571  0.18950  1.0000
  C   C539      1.0  0.58694  0.01957  0.26030  1.0000
  C   C540      1.0  0.89727  0.40139  0.29766  1.0000
  H   H960      1.0  0.75900  0.14819  0.22261  1.0000
  H   H961      1.0  0.85095  0.41568  0.26305  1.0000
  H   H962      1.0  0.90150  0.32877  0.28292  1.0000
  C   C541      1.0  0.90631  0.35276  0.28290  1.0000
  H   H963      1.0  0.66254  0.14814  0.18398  1.0000
  H   H964      1.0  0.52902  0.02287  0.30166  1.0000
  H   H965      1.0  0.90868  0.30147  0.23093  1.0000
  H   H966      1.0  0.80405  0.00981  0.07642  1.0000
  H   H967      1.0  0.68524  0.13725  0.16152  1.0000
  C   C542      1.0  0.96352  0.26483  0.15696  1.0000
  H   H968      1.0  0.53576  0.02580  0.18005  1.0000
  Fe  Fe60      1.0  0.50189  0.14336  0.27219  1.0000
  H   H969      1.0  0.81676  0.06117  0.09026  1.0000
  H   H970      1.0  0.88169  0.23553  0.19854  1.0000
  C   C543      1.0  0.87462  0.23214  0.07990  1.0000
  C   C544      1.0  0.88786  0.18751  0.20498  1.0000
  H   H971      1.0  0.96571  0.23761  0.10571  1.0000
  H   H972      1.0  0.69516  0.00041  0.25937  1.0000
  H   H973      1.0  0.77340  0.07725  0.01058  1.0000
  H   H974      1.0  0.94050  0.21802  0.99378  1.0000
  H   H975      1.0  0.86853  0.01917  0.08620  1.0000
  C   C545      1.0  0.74290  0.12966  0.26449  1.0000
  H   H976      1.0  0.95911  0.27164  0.20380  1.0000
  C   C546      1.0  0.64384  0.01493  0.27936  1.0000
  C   C547      1.0  0.75469  0.02298  0.22167  1.0000
  N   N34       1.0  0.95787  0.24075  0.06951  1.0000
  C   C548      1.0  0.96102  0.22045  0.05060  1.0000
  H   H977      1.0  0.92338  0.23574  0.02917  1.0000
  H   H978      1.0  0.97704  0.02722  0.13428  1.0000
  C   C549      1.0  0.55858  0.03053  0.24913  1.0000
  C   C550      1.0  0.52813  0.01742  0.16453  1.0000
  H   H979      1.0  0.91819  0.01939  0.05898  1.0000
  H   H980      1.0  0.73759  0.02527  0.23445  1.0000
  C   C551      1.0  0.90363  0.49170  0.22349  1.0000
  H   H981      1.0  0.98530  0.24657  0.24966  1.0000
  C   C552      1.0  0.95290  0.47424  0.23792  1.0000
  H   H982      1.0  0.54348  0.02161  0.10827  1.0000
  H   H983      1.0  0.83182  0.01574  0.05530  1.0000
  C   C553      1.0  0.50844  0.99594  0.12431  1.0000
  H   H984      1.0  0.96166  0.32232  0.30072  1.0000
  H   H985      1.0  0.95686  0.01773  0.06175  1.0000
  C   C554      1.0  0.49324  0.06656  0.20414  1.0000
  C   C555      1.0  0.67264  0.00474  0.29121  1.0000
  H   H986      1.0  0.97975  0.33365  0.06024  1.0000
  H   H987      1.0  0.73473  0.01079  0.07759  1.0000
  H   H988      1.0  0.97464  0.20643  0.00663  1.0000
  H   H989      1.0  0.49156  0.99327  0.18024  1.0000
  C   C556      1.0  0.95357  0.41605  0.34380  1.0000
  C   C557      1.0  0.49807  0.42559  0.44462  1.0000
  H   H990      1.0  0.58077  0.02875  0.61714  1.0000
  C   C558      1.0  0.61561  0.07872  0.31418  1.0000
  H   H991      1.0  0.53606  0.02870  0.37339  1.0000
  H   H992      1.0  0.61933  0.36399  0.33174  1.0000
  H   H993      1.0  0.57354  0.25921  0.33811  1.0000
  H   H994      1.0  0.96060  0.37394  0.31334  1.0000
  H   H995      1.0  0.50711  0.48197  0.54656  1.0000
  C   C559      1.0  0.50712  0.46826  0.37198  1.0000
  H   H996      1.0  0.49321  0.33256  0.37197  1.0000
  C   C560      1.0  0.93551  0.43125  0.36105  1.0000
  H   H997      1.0  0.59870  0.10606  0.63449  1.0000
  H   H998      1.0  0.94551  0.39240  0.34377  1.0000
  C   C561      1.0  0.49496  0.33526  0.32719  1.0000
  H   H999      1.0  0.68397  0.48676  0.40644  1.0000
  H   H1000     1.0  0.55747  0.07920  0.61326  1.0000
  C   C562      1.0  0.54421  0.35465  0.33132  1.0000
  C   C563      1.0  0.56538  0.03439  0.62976  1.0000
  H   H1001     1.0  0.63507  0.11567  0.64267  1.0000
  H   H1002     1.0  0.98685  0.40190  0.36727  1.0000
  S   S119      1.0  0.54210  0.06839  0.33291  1.0000
  C   C564      1.0  0.57608  0.34591  0.33709  1.0000
  C   C565      1.0  0.53494  0.34784  0.38332  1.0000
  H   H1003     1.0  0.60828  0.06640  0.33035  1.0000
  C   C566      1.0  0.52186  0.35771  0.40510  1.0000
  C   C567      1.0  0.61395  0.00946  0.31468  1.0000
  H   H1004     1.0  0.82124  0.48617  0.42103  1.0000
  C   C568      1.0  0.53019  0.30176  0.34779  1.0000
  C   C569      1.0  0.98160  0.36215  0.31294  1.0000
  H   H1005     1.0  0.94959  0.42874  0.32700  1.0000
  H   H1006     1.0  0.54088  0.37874  0.33497  1.0000
  H   H1007     1.0  0.51886  0.41689  0.45210  1.0000
  H   H1008     1.0  0.58002  0.34157  0.35555  1.0000
  H   H1009     1.0  0.93862  0.41963  0.37839  1.0000
  C   C570      1.0  0.63137  0.10732  0.32015  1.0000
  H   H1010     1.0  0.50247  0.43812  0.42778  1.0000
  H   H1011     1.0  0.65011  0.10114  0.33146  1.0000
  H   H1012     1.0  0.75094  0.49181  0.62751  1.0000
  C   C571      1.0  0.55219  0.06304  0.62757  1.0000
  H   H1013     1.0  0.58204  0.32489  0.32932  1.0000
  H   H1014     1.0  0.55144  0.36512  0.37770  1.0000
  C   C572      1.0  0.53287  0.07127  0.64393  1.0000
  C   C573      1.0  0.59670  0.37109  0.32784  1.0000
  N   N35       1.0  0.52102  0.33459  0.34275  1.0000
  H   H1015     1.0  0.54541  0.32543  0.38766  1.0000
  H   H1016     1.0  0.91230  0.42985  0.35655  1.0000
  H   H1017     1.0  0.51384  0.28901  0.35866  1.0000
  H   H1018     1.0  0.50518  0.34120  0.41185  1.0000
  H   H1019     1.0  0.70436  0.47228  0.43120  1.0000
  H   H1020     1.0  0.96473  0.32065  0.33116  1.0000
  H   H1021     1.0  0.51439  0.47793  0.51695  1.0000
  C   C574      1.0  0.98584  0.41589  0.35063  1.0000
  C   C575      1.0  0.53282  0.02957  0.33709  1.0000
  C   C576      1.0  0.55110  0.25425  0.33291  1.0000
  H   H1022     1.0  0.63221  0.00756  0.32703  1.0000
  H   H1023     1.0  0.59242  0.39241  0.33584  1.0000
  H   H1024     1.0  0.53901  0.35876  0.41818  1.0000
  C   C577      1.0  0.51162  0.34644  0.36463  1.0000
  H   H1025     1.0  0.59605  0.01986  0.32376  1.0000
  S   S120      1.0  0.51944  0.10896  0.64071  1.0000
  H   H1026     1.0  0.55026  0.29972  0.35810  1.0000
  H   H1027     1.0  0.94151  0.45564  0.36105  1.0000
  C   C578      1.0  0.53247  0.01536  0.35922  1.0000
  C   C579      1.0  0.53698  0.47354  0.37015  1.0000
  H   H1028     1.0  0.54591  0.29754  0.31302  1.0000
  H   H1029     1.0  0.55072  0.45657  0.36370  1.0000
  H   H1030     1.0  0.54028  0.24013  0.34696  1.0000
  H   H1031     1.0  0.51195  0.38070  0.40189  1.0000
  C   C580      1.0  0.52873  0.01201  0.31880  1.0000
  H   H1032     1.0  0.61635  0.12160  0.32915  1.0000
  S   S121      1.0  0.88380  0.49212  0.35070  1.0000
  C   C581      1.0  0.53434  0.28378  0.32679  1.0000
  Fe  Fe61      1.0  0.51031  0.10239  0.31592  1.0000
  H   H1033     1.0  0.78878  0.49250  0.62068  1.0000
  C   C582      1.0  0.97580  0.32791  0.31495  1.0000
  H   H1034     1.0  0.65446  0.05255  0.31247  1.0000
  H   H1035     1.0  0.49908  0.46532  0.46269  1.0000
  H   H1036     1.0  0.60655  0.14357  0.64236  1.0000
  Fe  Fe62      1.0  0.88388  0.47281  0.31689  1.0000
  H   H1037     1.0  0.49495  0.38525  0.31855  1.0000
  H   H1038     1.0  0.49801  0.35591  0.55142  1.0000
  H   H1039     1.0  0.50351  0.37016  0.36147  1.0000
  H   H1040     1.0  0.93772  0.42367  0.63157  1.0000
  H   H1041     1.0  0.51291  0.27743  0.32010  1.0000
  S   S122      1.0  0.49258  0.43430  0.36292  1.0000
  S   S123      1.0  0.87670  0.42249  0.31559  1.0000
  H   H1042     1.0  0.53663  0.48912  0.60283  1.0000
  H   H1043     1.0  0.55186  0.24086  0.31798  1.0000
  C   C583      1.0  0.48953  0.49045  0.38022  1.0000
  C   C584      1.0  0.69281  0.49253  0.42298  1.0000
  C   C585      1.0  0.50358  0.49219  0.52885  1.0000
  H   H1044     1.0  0.54243  0.35527  0.31250  1.0000
  H   H1045     1.0  0.98936  0.43458  0.63621  1.0000
  Fe  Fe63      1.0  0.91805  0.14725  0.88947  1.0000
  S   S124      1.0  0.91322  0.12088  0.85919  1.0000
  S   S125      1.0  0.93438  0.19590  0.89055  1.0000
  Fe  Fe64      1.0  0.89832  0.09378  0.92191  1.0000
  S   S126      1.0  0.89160  0.06314  0.89393  1.0000
  C   C586      1.0  0.73836  0.05333  0.76136  1.0000
  Fe  Fe65      1.0  0.93401  0.08172  0.88062  1.0000
  H   H1046     1.0  0.85996  0.00851  0.81639  1.0000
  Fe  Fe66      1.0  0.87099  0.10401  0.87459  1.0000
  S   S127      1.0  0.83400  0.10211  0.84889  1.0000
  S   S128      1.0  0.94226  0.10937  0.90990  1.0000
  S   S129      1.0  0.87437  0.13336  0.90360  1.0000
  C   C587      1.0  0.53416  0.01675  0.83811  1.0000
  S   S130      1.0  0.93775  0.39416  0.79967  1.0000
  H   H1047     1.0  0.97311  0.43257  0.68662  1.0000
  N   N36       1.0  0.76896  0.00811  0.81671  1.0000
  S   S131      1.0  0.89156  0.07360  0.95828  1.0000
  H   H1048     1.0  0.97908  0.39947  0.65274  1.0000
  H   H1049     1.0  0.97776  0.01678  0.94546  1.0000
  C   C588      1.0  0.57775  0.06884  0.70824  1.0000
  C   C589      1.0  0.83200  0.46794  0.68083  1.0000
  H   H1050     1.0  0.78083  0.03972  0.77283  1.0000
  H   H1051     1.0  0.88335  0.14734  0.81738  1.0000
  H   H1052     1.0  0.73879  0.07623  0.76769  1.0000
  S   S132      1.0  0.61376  0.03651  0.78981  1.0000
  H   H1053     1.0  0.57356  0.03095  0.73555  1.0000
  Fe  Fe67      1.0  0.66685  0.06744  0.83439  1.0000
  S   S133      1.0  0.67725  0.06912  0.79742  1.0000
  S   S134      1.0  0.69850  0.08053  0.86170  1.0000
  Fe  Fe68      1.0  0.63108  0.08375  0.79165  1.0000
  S   S135      1.0  0.62178  0.11947  0.76282  1.0000
  H   H1054     1.0  0.74000  0.18203  0.83006  1.0000
  S   S136      1.0  0.62150  0.08595  0.82870  1.0000
  H   H1055     1.0  0.71589  0.04449  0.76202  1.0000
  C   C590      1.0  0.61176  0.02749  0.70348  1.0000
  H   H1056     1.0  0.52396  0.04449  0.72670  1.0000
  C   C591      1.0  0.67911  0.09339  0.72593  1.0000
  H   H1057     1.0  0.75402  0.46460  0.66031  1.0000
  C   C592      1.0  0.52590  0.13940  0.75037  1.0000
  C   C593      1.0  0.53517  0.12455  0.77117  1.0000
  C   C594      1.0  0.56456  0.11796  0.77500  1.0000
  C   C595      1.0  0.58483  0.12705  0.75830  1.0000
  C   C596      1.0  0.57557  0.14196  0.73754  1.0000
  C   C597      1.0  0.54609  0.14769  0.73343  1.0000
  H   H1058     1.0  0.51959  0.11792  0.78426  1.0000
  H   H1059     1.0  0.57155  0.10632  0.79102  1.0000
  H   H1060     1.0  0.59117  0.14902  0.72458  1.0000
  H   H1061     1.0  0.53906  0.15919  0.71738  1.0000
  H   H1062     1.0  0.94270  0.45805  0.64524  1.0000
  H   H1063     1.0  0.81042  0.00929  0.79962  1.0000
  C   C598      1.0  0.93468  0.00368  0.93806  1.0000
  H   H1064     1.0  0.87629  0.47661  0.80417  1.0000
  H   H1065     1.0  0.87119  0.16140  0.78940  1.0000
  H   H1066     1.0  0.95083  0.04654  0.94602  1.0000
  H   H1067     1.0  0.58157  0.11384  0.67312  1.0000
  H   H1068     1.0  0.81319  0.02876  0.84836  1.0000
  C   C599      1.0  0.92107  0.46866  0.71153  1.0000
  C   C600      1.0  0.92327  0.44891  0.73137  1.0000
  C   C601      1.0  0.90382  0.45152  0.74908  1.0000
  C   C602      1.0  0.61179  0.11901  0.64604  1.0000
  H   H1069     1.0  0.86499  0.02030  0.84448  1.0000
  H   H1070     1.0  0.93587  0.46671  0.69770  1.0000
  H   H1071     1.0  0.90521  0.43600  0.76433  1.0000
  H   H1072     1.0  0.86970  0.43887  0.68601  1.0000
  H   H1073     1.0  0.86695  0.45854  0.65799  1.0000
  C   C603      1.0  0.79635  0.09671  0.85311  1.0000
  C   C604      1.0  0.78447  0.08978  0.87463  1.0000
  C   C605      1.0  0.75444  0.08522  0.87700  1.0000
  C   C606      1.0  0.73601  0.08742  0.85793  1.0000
  C   C607      1.0  0.74784  0.09511  0.83648  1.0000
  C   C608      1.0  0.77786  0.09956  0.83408  1.0000
  H   H1074     1.0  0.79838  0.08771  0.88944  1.0000
  H   H1075     1.0  0.74544  0.07962  0.89370  1.0000
  H   H1076     1.0  0.73379  0.09775  0.82176  1.0000
  H   H1077     1.0  0.78676  0.10531  0.81738  1.0000
  C   C609      1.0  0.93487  0.27257  0.83194  1.0000
  C   C610      1.0  0.94247  0.27844  0.85397  1.0000
  C   C611      1.0  0.94180  0.25479  0.87178  1.0000
  C   C612      1.0  0.93391  0.22502  0.86771  1.0000
  C   C613      1.0  0.92654  0.21910  0.84564  1.0000
  C   C614      1.0  0.92673  0.24284  0.82791  1.0000
  H   H1078     1.0  0.94851  0.30127  0.85732  1.0000
  H   H1079     1.0  0.94755  0.25958  0.88881  1.0000
  H   H1080     1.0  0.92106  0.19616  0.84222  1.0000
  H   H1081     1.0  0.92088  0.23809  0.81089  1.0000
  H   H1082     1.0  0.89009  0.18659  0.80660  1.0000
  H   H1083     1.0  0.66596  0.08215  0.69308  1.0000
  H   H1084     1.0  0.72474  0.42862  0.68796  1.0000
  C   C615      1.0  0.76230  0.45570  0.69579  1.0000
  S   S137      1.0  0.95018  0.42090  0.73303  1.0000
  C   C616      1.0  0.94555  0.43290  0.64728  1.0000
  C   C617      1.0  0.52478  0.04226  0.82408  1.0000
  H   H1085     1.0  0.56184  0.06071  0.69611  1.0000
  C   C618      1.0  0.66115  0.07414  0.71096  1.0000
  Fe  Fe69      1.0  0.96372  0.40126  0.76779  1.0000
  H   H1086     1.0  0.72732  0.02125  0.80180  1.0000
  H   H1087     1.0  0.54031  0.05885  0.81707  1.0000
  C   C619      1.0  0.88220  0.47405  0.74683  1.0000
  H   H1088     1.0  0.84402  0.48732  0.68685  1.0000
  C   C620      1.0  0.61083  0.07416  0.67639  1.0000
  H   H1089     1.0  0.67294  0.11780  0.72288  1.0000
  H   H1090     1.0  0.53197  0.05624  0.75453  1.0000
  H   H1091     1.0  0.54367  0.00564  0.76681  1.0000
  C   C621      1.0  0.62867  0.07669  0.71622  1.0000
  H   H1092     1.0  0.74394  0.15498  0.85490  1.0000
  H   H1093     1.0  0.72225  0.18860  0.85612  1.0000
  S   S138      1.0  0.93492  0.30138  0.80888  1.0000
  H   H1094     1.0  0.61792  0.12261  0.68158  1.0000
  H   H1095     1.0  0.57433  0.09384  0.70787  1.0000
  C   C622      1.0  0.75919  0.47862  0.67441  1.0000
  S   S139      1.0  0.96547  0.05142  0.86359  1.0000
  H   H1096     1.0  0.66840  0.05022  0.71477  1.0000
  H   H1097     1.0  0.89536  0.13952  0.96063  1.0000
  H   H1098     1.0  0.59080  0.01600  0.70047  1.0000
  C   C623      1.0  0.56903  0.05565  0.73245  1.0000
  H   H1099     1.0  0.62626  0.06669  0.73409  1.0000
  N   N37       1.0  0.82384  0.20277  0.84999  1.0000
  C   C624      1.0  0.84875  0.18518  0.84139  1.0000
  C   C625      1.0  0.82753  0.20443  0.87522  1.0000
  C   C626      1.0  0.79669  0.18466  0.84662  1.0000
  C   C627      1.0  0.82065  0.23427  0.83759  1.0000
  C   C628      1.0  0.84883  0.25063  0.82888  1.0000
  C   C629      1.0  0.84555  0.17673  0.81662  1.0000
  C   C630      1.0  0.76848  0.19691  0.85644  1.0000
  C   C631      1.0  0.85474  0.22092  0.88302  1.0000
  C   C632      1.0  0.85701  0.21868  0.90890  1.0000
  C   C633      1.0  0.84334  0.28415  0.82100  1.0000
  C   C634      1.0  0.87441  0.16751  0.80699  1.0000
  C   C635      1.0  0.74214  0.17955  0.84884  1.0000
  H   H1100     1.0  0.85213  0.16354  0.85244  1.0000
  H   H1101     1.0  0.86930  0.19760  0.84268  1.0000
  H   H1102     1.0  0.80915  0.21676  0.88210  1.0000
  H   H1103     1.0  0.82736  0.18097  0.88419  1.0000
  H   H1104     1.0  0.79949  0.16068  0.85420  1.0000
  H   H1105     1.0  0.79245  0.18329  0.82823  1.0000
  H   H1106     1.0  0.80655  0.23360  0.82232  1.0000
  H   H1107     1.0  0.80917  0.24953  0.84848  1.0000
  H   H1108     1.0  0.85759  0.23989  0.81419  1.0000
  H   H1109     1.0  0.86607  0.24967  0.84188  1.0000
  H   H1110     1.0  0.83065  0.15709  0.81610  1.0000
  H   H1111     1.0  0.83652  0.19589  0.80524  1.0000
  H   H1112     1.0  0.76538  0.22144  0.85084  1.0000
  H   H1113     1.0  0.76887  0.19372  0.87526  1.0000
  H   H1114     1.0  0.87463  0.21092  0.87672  1.0000
  H   H1115     1.0  0.85365  0.24553  0.87714  1.0000
  H   H1116     1.0  0.85828  0.19455  0.91613  1.0000
  H   H1117     1.0  0.87697  0.23038  0.91388  1.0000
  H   H1118     1.0  0.83815  0.22972  0.91621  1.0000
  H   H1119     1.0  0.86374  0.29486  0.81443  1.0000
  H   H1120     1.0  0.82693  0.28644  0.80718  1.0000
  H   H1121     1.0  0.83591  0.29652  0.83537  1.0000
  C   C636      1.0  0.79985  0.01925  0.81404  1.0000
  C   C637      1.0  0.75019  0.02883  0.80097  1.0000
  H   H1122     1.0  0.65437  0.02523  0.68659  1.0000
  N   N38       1.0  0.60799  0.06178  0.70096  1.0000
  C   C638      1.0  0.53683  0.06036  0.73617  1.0000
  H   H1123     1.0  0.97527  0.17250  0.85467  1.0000
  C   C639      1.0  0.72668  0.00312  0.84534  1.0000
  C   C640      1.0  0.60477  0.10870  0.67078  1.0000
  H   H1124     1.0  0.74535  0.05559  0.74338  1.0000
  H   H1125     1.0  0.63257  0.06966  0.66979  1.0000
  S   S140      1.0  0.57093  0.01041  0.84515  1.0000
  H   H1126     1.0  0.58089  0.06740  0.74536  1.0000
  H   H1127     1.0  0.98685  0.07393  0.95496  1.0000
  H   H1128     1.0  0.82119  0.45577  0.69563  1.0000
  H   H1129     1.0  0.85229  0.04739  0.82196  1.0000
  Fe  Fe70      1.0  0.60727  0.03726  0.82726  1.0000
  H   H1130     1.0  0.70236  0.09115  0.72201  1.0000
  Fe  Fe71      1.0  0.65889  0.02200  0.79897  1.0000
  H   H1131     1.0  0.75017  0.05221  0.80645  1.0000
  H   H1132     1.0  0.80027  0.04442  0.80952  1.0000
  H   H1133     1.0  0.93734  0.00985  0.91954  1.0000
  H   H1134     1.0  0.76256  0.03401  0.84532  1.0000
  C   C641      1.0  0.52610  0.05000  0.66236  1.0000
  H   H1135     1.0  0.67578  0.08565  0.74415  1.0000
  Fe  Fe72      1.0  0.95817  0.34737  0.80470  1.0000
  H   H1136     1.0  0.62319  0.10118  0.71660  1.0000
  H   H1137     1.0  0.53523  0.00501  0.67922  1.0000
  H   H1138     1.0  0.59565  0.06186  0.66582  1.0000
  C   C642      1.0  0.85122  0.02311  0.82899  1.0000
  C   C643      1.0  0.53941  0.02092  0.66457  1.0000
  H   H1139     1.0  0.91206  0.00880  0.94258  1.0000
  S   S141      1.0  0.49271  0.17273  0.67878  1.0000
  H   H1140     1.0  0.71744  0.45802  0.70650  1.0000
  S   S142      1.0  0.65151  0.01895  0.83635  1.0000
  H   H1141     1.0  0.75645  0.00893  0.76856  1.0000
  C   C644      1.0  0.85439  0.44654  0.67208  1.0000
  C   C645      1.0  0.95580  0.02224  0.95106  1.0000
  H   H1142     1.0  0.86702  0.47597  0.76040  1.0000
  H   H1143     1.0  0.90738  0.45999  0.81911  1.0000
  C   C646      1.0  0.75843  0.03133  0.77546  1.0000
  C   C647      1.0  0.73337  0.44069  0.70217  1.0000
  H   H1144     1.0  0.97453  0.28129  0.76890  1.0000
  H   H1145     1.0  0.61820  0.01941  0.72120  1.0000
  H   H1146     1.0  0.80283  0.46009  0.65317  1.0000
  H   H1147     1.0  0.77012  0.46673  0.71070  1.0000
  H   H1148     1.0  0.51154  0.05639  0.67527  1.0000
  H   H1149     1.0  0.53028  0.08407  0.73038  1.0000
  H   H1150     1.0  0.84379  0.42618  0.66613  1.0000
  H   H1151     1.0  0.77745  0.43726  0.69233  1.0000
  C   C648      1.0  0.81043  0.47994  0.66184  1.0000
  C   C649      1.0  0.63320  0.01368  0.68721  1.0000
  H   H1152     1.0  0.93220  0.42316  0.66174  1.0000
  H   H1153     1.0  0.73630  0.42384  0.71721  1.0000
  C   C650      1.0  0.51376  0.99562  0.84730  1.0000
  C   C651      1.0  0.98814  0.08287  0.97172  1.0000
  S   S143      1.0  0.98071  0.35375  0.77111  1.0000
  C   C652      1.0  0.49504  0.04687  0.81981  1.0000
  H   H1154     1.0  0.62422  0.01580  0.66969  1.0000
  C   C653      1.0  0.97736  0.42463  0.65130  1.0000
  C   C654      1.0  0.82015  0.01420  0.83508  1.0000
  H   H1155     1.0  0.92213  0.48765  0.78321  1.0000
  C   C655      1.0  0.89649  0.48183  0.81320  1.0000
  H   H1156     1.0  0.95430  0.11635  0.96287  1.0000
  Fe  Fe73      1.0  0.97835  0.41067  0.81581  1.0000
  H   H1157     1.0  0.98379  0.25252  0.80717  1.0000
  H   H1158     1.0  0.97823  0.38372  0.70002  1.0000
  S   S144      1.0  0.97698  0.44447  0.84212  1.0000
  C   C656      1.0  0.55929  0.01324  0.64823  1.0000
  C   C657      1.0  0.75888  0.01051  0.84065  1.0000
  H   H1159     1.0  0.73957  0.49280  0.67617  1.0000
  H   H1160     1.0  0.72716  0.01996  0.87879  1.0000
  H   H1161     1.0  0.79673  0.10131  0.97659  1.0000
  C   C658      1.0  0.97707  0.11569  0.96892  1.0000
  H   H1162     1.0  0.98837  0.04734  0.90975  1.0000
  H   H1163     1.0  0.98765  0.46308  0.66892  1.0000
  C   C659      1.0  0.89991  0.49129  0.70946  1.0000
  H   H1164     1.0  0.98702  0.22875  0.84473  1.0000
  H   H1165     1.0  0.71321  0.02231  0.83775  1.0000
  C   C660      1.0  0.95244  0.01517  0.97701  1.0000
  C   C661      1.0  0.98890  0.43793  0.67274  1.0000
  H   H1166     1.0  0.69706  0.99581  0.87358  1.0000
  H   H1167     1.0  0.77190  0.99581  0.85309  1.0000
  C   C662      1.0  0.72056  0.99927  0.87079  1.0000
  H   H1168     1.0  0.49613  0.99346  0.74417  1.0000
  C   C663      1.0  0.93619  0.59801  0.26857  1.0000
  H   H1169     1.0  0.87534  0.61279  0.27940  1.0000
  C   C664      1.0  0.64088  0.90971  0.26904  1.0000
  C   C665      1.0  0.53026  0.89208  0.16191  1.0000
  Fe  Fe74      1.0  0.89362  0.53401  0.29104  1.0000
  C   C666      1.0  0.76990  0.60182  0.25728  1.0000
  C   C667      1.0  0.57503  0.95499  0.16425  1.0000
  H   H1170     1.0  0.55460  0.95479  0.15449  1.0000
  H   H1171     1.0  0.72635  0.59289  0.28802  1.0000
  H   H1172     1.0  0.58617  0.90690  0.17142  1.0000
  S   S145      1.0  0.92413  0.49659  0.30404  1.0000
  H   H1173     1.0  0.97128  0.60952  0.20896  1.0000
  C   C668      1.0  0.76894  0.53832  0.27700  1.0000
  H   H1174     1.0  0.53693  0.86878  0.16863  1.0000
  S   S146      1.0  0.50787  0.85167  0.25618  1.0000
  C   C669      1.0  0.49308  0.98862  0.14435  1.0000
  H   H1175     1.0  0.49471  0.90876  0.08746  1.0000
  H   H1176     1.0  0.57664  0.90069  0.24132  1.0000
  H   H1177     1.0  0.67991  0.96529  0.27241  1.0000
  H   H1178     1.0  0.59704  0.98011  0.13619  1.0000
  C   C670      1.0  0.73965  0.59439  0.30341  1.0000
  H   H1179     1.0  0.74913  0.58941  0.25746  1.0000
  C   C671      1.0  0.62372  0.93360  0.25894  1.0000
  C   C672      1.0  0.63059  0.94756  0.23719  1.0000
  C   C673      1.0  0.65376  0.93661  0.22517  1.0000
  C   C674      1.0  0.67040  0.91243  0.23520  1.0000
  C   C675      1.0  0.66441  0.89954  0.25721  1.0000
  H   H1180     1.0  0.60537  0.94139  0.26795  1.0000
  H   H1181     1.0  0.89487  0.49359  0.17967  1.0000
  H   H1182     1.0  0.68822  0.90379  0.22597  1.0000
  H   H1183     1.0  0.78047  0.50144  0.30274  1.0000
  H   H1184     1.0  0.59804  0.93080  0.19173  1.0000
  H   H1185     1.0  0.59966  0.84092  0.22554  1.0000
  C   C676      1.0  0.95826  0.61948  0.26423  1.0000
  S   S147      1.0  0.57283  0.83164  0.29706  1.0000
  H   H1186     1.0  0.54031  0.87648  0.21717  1.0000
  C   C677      1.0  0.52315  0.93459  0.22848  1.0000
  H   H1187     1.0  0.79758  0.57340  0.23738  1.0000
  C   C678      1.0  0.85682  0.51395  0.21202  1.0000
  H   H1188     1.0  0.54182  0.96303  0.20091  1.0000
  C   C679      1.0  0.96151  0.60637  0.22557  1.0000
  H   H1189     1.0  0.62071  0.95803  0.15582  1.0000
  H   H1190     1.0  0.80219  0.61374  0.23088  1.0000
  C   C680      1.0  0.54775  0.94135  0.21108  1.0000
  C   C681      1.0  0.77709  0.50519  0.28413  1.0000
  H   H1191     1.0  0.60414  0.89667  0.22040  1.0000
  H   H1192     1.0  0.61748  0.96604  0.22946  1.0000
  Fe  Fe75      1.0  0.53218  0.85815  0.28827  1.0000
  C   C682      1.0  0.93869  0.58567  0.22969  1.0000
  H   H1193     1.0  0.86079  0.64894  0.28600  1.0000
  H   H1194     1.0  0.56730  0.86977  0.19740  1.0000
  C   C683      1.0  0.59946  0.95823  0.14703  1.0000
  S   S148      1.0  0.66150  0.95084  0.19706  1.0000
  C   C684      1.0  0.69101  0.98673  0.27579  1.0000
  H   H1195     1.0  0.96552  0.63287  0.27753  1.0000
  H   H1196     1.0  0.76608  0.54036  0.25832  1.0000
  H   H1197     1.0  0.75342  0.61734  0.21240  1.0000
  H   H1198     1.0  0.57071  0.84385  0.24558  1.0000
  C   C685      1.0  0.79256  0.56061  0.28412  1.0000
  H   H1199     1.0  0.61969  0.96465  0.30149  1.0000
  N   N39       1.0  0.55340  0.91676  0.19565  1.0000
  C   C686      1.0  0.57907  0.92602  0.18103  1.0000
  N   N40       1.0  0.78659  0.59432  0.27908  1.0000
  C   C687      1.0  0.52672  0.91279  0.18146  1.0000
  C   C688      1.0  0.56009  0.88661  0.20898  1.0000
  C   C689      1.0  0.58373  0.88709  0.22757  1.0000
  H   H1200     1.0  0.92655  0.59492  0.28519  1.0000
  C   C690      1.0  0.92586  0.58163  0.25114  1.0000
  H   H1201     1.0  0.50214  0.93300  0.21962  1.0000
  H   H1202     1.0  0.54656  0.90140  0.14948  1.0000
  C   C691      1.0  0.76524  0.59535  0.21513  1.0000
  H   H1203     1.0  0.50902  0.90265  0.19231  1.0000
  H   H1204     1.0  0.52710  0.91308  0.23928  1.0000
  H   H1205     1.0  0.59880  0.93933  0.13595  1.0000
  C   C692      1.0  0.86753  0.54156  0.19599  1.0000
  H   H1206     1.0  0.56776  0.94662  0.22043  1.0000
  S   S149      1.0  0.55078  0.90405  0.29339  1.0000
  H   H1207     1.0  0.93103  0.57286  0.21620  1.0000
  S   S150      1.0  0.89604  0.55726  0.25561  1.0000
  H   H1208     1.0  0.74947  0.57644  0.21808  1.0000
  H   H1209     1.0  0.85577  0.52198  0.22923  1.0000
  H   H1210     1.0  0.58271  0.97780  0.30210  1.0000
  H   H1211     1.0  0.71802  0.63711  0.30861  1.0000
  H   H1212     1.0  0.93736  0.98610  0.05174  1.0000
  C   C693      1.0  0.50193  0.88933  0.14897  1.0000
  C   C694      1.0  0.81507  0.61107  0.27660  1.0000
  H   H1213     1.0  0.57525  0.97553  0.17370  1.0000
  C   C695      1.0  0.84882  0.56965  0.19819  1.0000
  H   H1214     1.0  0.67782  0.88125  0.26494  1.0000
  S   S151      1.0  0.63491  0.89343  0.29695  1.0000
  H   H1215     1.0  0.74782  0.54266  0.28462  1.0000
  H   H1216     1.0  0.60664  0.85620  0.25216  1.0000
  H   H1217     1.0  0.98251  0.74211  0.20766  1.0000
  H   H1218     1.0  0.52173  0.96667  0.30868  1.0000
  H   H1219     1.0  0.82837  0.60202  0.26315  1.0000
  H   H1220     1.0  0.51798  0.93519  0.17426  1.0000
  H   H1221     1.0  0.50288  0.95366  0.25672  1.0000
  H   H1222     1.0  0.88998  0.54769  0.20015  1.0000
  C   C696      1.0  0.97380  0.52254  0.17577  1.0000
  C   C697      1.0  0.97083  0.62381  0.24271  1.0000
  C   C698      1.0  0.59051  0.85499  0.23832  1.0000
  H   H1223     1.0  0.71202  0.98067  0.28416  1.0000
  H   H1224     1.0  0.86678  0.53662  0.17799  1.0000
  Fe  Fe76      1.0  0.58989  0.87711  0.30513  1.0000
  H   H1225     1.0  0.82602  0.56504  0.19380  1.0000
  H   H1226     1.0  0.85009  0.57643  0.21576  1.0000
  H   H1227     1.0  0.49570  0.91180  0.14029  1.0000
  C   C699      1.0  0.59568  0.63219  0.31021  1.0000
  H   H1228     1.0  0.97385  0.54226  0.27323  1.0000
  C   C700      1.0  0.97716  0.49358  0.16815  1.0000
  C   C701      1.0  0.78601  0.59554  0.23527  1.0000
  H   H1229     1.0  0.83885  0.58535  0.30448  1.0000
  H   H1230     1.0  0.83406  0.50915  0.20745  1.0000
  C   C702      1.0  0.52025  0.95978  0.24424  1.0000
  H   H1231     1.0  0.77754  0.59208  0.19952  1.0000
  H   H1232     1.0  0.76371  0.62638  0.25544  1.0000
  H   H1233     1.0  0.95464  0.52772  0.18498  1.0000
  H   H1234     1.0  0.58800  0.63670  0.29239  1.0000
  H   H1235     1.0  0.91626  0.50838  0.21226  1.0000
  H   H1236     1.0  0.81273  0.55422  0.27558  1.0000
  H   H1237     1.0  0.90043  0.50243  0.23943  1.0000
  H   H1238     1.0  0.50097  0.98796  0.10862  1.0000
  H   H1239     1.0  0.53651  0.63599  0.30880  1.0000
  H   H1240     1.0  0.54070  0.96246  0.25372  1.0000
  H   H1241     1.0  0.85679  0.58894  0.18643  1.0000
  H   H1242     1.0  0.81136  0.63566  0.27103  1.0000
  H   H1243     1.0  0.79707  0.49894  0.27543  1.0000
  C   C703      1.0  0.86383  0.62463  0.29240  1.0000
  H   H1244     1.0  0.95178  0.99000  0.98096  1.0000
  H   H1245     1.0  0.84917  0.98360  0.08880  1.0000
  H   H1246     1.0  0.96954  0.99108  0.01766  1.0000
  S   S152      1.0  0.85316  0.50834  0.30100  1.0000
  H   H1247     1.0  0.66881  0.98989  0.30712  1.0000
  H   H1248     1.0  0.50466  0.87317  0.13589  1.0000
  H   H1249     1.0  0.79692  0.55504  0.30259  1.0000
  H   H1250     1.0  0.51436  0.98162  0.23437  1.0000
  H   H1251     1.0  0.87748  0.62357  0.30794  1.0000
  C   C704      1.0  0.77050  0.60671  0.29832  1.0000
  C   C705      1.0  0.83477  0.60938  0.29795  1.0000
  H   H1252     1.0  0.76929  0.63205  0.29535  1.0000
  H   H1253     1.0  0.59557  0.72207  0.42123  1.0000
  C   C706      1.0  0.57267  0.72719  0.37286  1.0000
  C   C707      1.0  0.53627  0.63835  0.53153  1.0000
  H   H1254     1.0  0.51155  0.53425  0.50807  1.0000
  H   H1255     1.0  0.58529  0.96976  0.34505  1.0000
  H   H1256     1.0  0.54845  0.52172  0.55158  1.0000
  H   H1257     1.0  0.63696  0.85239  0.35859  1.0000
  Fe  Fe77      1.0  0.85659  0.52997  0.33372  1.0000
  S   S153      1.0  0.82173  0.55718  0.34998  1.0000
  Fe  Fe78      1.0  0.59034  0.65810  0.61700  1.0000
  H   H1258     1.0  0.59109  0.77644  0.39954  1.0000
  H   H1259     1.0  0.50086  0.61350  0.38584  1.0000
  S   S154      1.0  0.63336  0.66722  0.60072  1.0000
  Fe  Fe79      1.0  0.58682  0.59315  0.60135  1.0000
  S   S155      1.0  0.57042  0.63880  0.58660  1.0000
  C   C708      1.0  0.59478  0.77727  0.62414  1.0000
  Fe  Fe80      1.0  0.61491  0.64417  0.57146  1.0000
  S   S156      1.0  0.61810  0.66401  0.53473  1.0000
  H   H1260     1.0  0.62079  0.95339  0.34244  1.0000
  S   S157      1.0  0.63043  0.59748  0.58467  1.0000
  Fe  Fe81      1.0  0.63201  0.62565  0.37868  1.0000
  S   S158      1.0  0.67142  0.60259  0.39471  1.0000
  S   S159      1.0  0.63825  0.67120  0.35792  1.0000
  Fe  Fe82      1.0  0.59336  0.57071  0.39183  1.0000
  S   S160      1.0  0.62981  0.54324  0.40840  1.0000
  S   S161      1.0  0.54579  0.55762  0.39269  1.0000
  Fe  Fe83      1.0  0.64211  0.58629  0.42344  1.0000
  S   S162      1.0  0.65853  0.57981  0.45971  1.0000
  Fe  Fe84      1.0  0.65671  0.56149  0.37854  1.0000
  S   S163      1.0  0.68717  0.53057  0.36119  1.0000
  S   S164      1.0  0.60391  0.61301  0.40894  1.0000
  S   S165      1.0  0.61890  0.58532  0.36049  1.0000
  C   C709      1.0  0.62936  0.64043  0.51399  1.0000
  C   C710      1.0  0.62032  0.64709  0.49136  1.0000
  C   C711      1.0  0.62881  0.62852  0.47454  1.0000
  C   C712      1.0  0.64684  0.60346  0.48023  1.0000
  C   C713      1.0  0.65609  0.59698  0.50279  1.0000
  C   C714      1.0  0.64735  0.61536  0.51962  1.0000
  H   H1261     1.0  0.60657  0.66661  0.48688  1.0000
  H   H1262     1.0  0.62171  0.63381  0.45718  1.0000
  H   H1263     1.0  0.67020  0.57777  0.50726  1.0000
  H   H1264     1.0  0.65485  0.61040  0.53690  1.0000
  C   C715      1.0  0.53162  0.52294  0.38463  1.0000
  H   H1265     1.0  0.55624  0.72780  0.38571  1.0000
  H   H1266     1.0  0.54104  0.61687  0.41286  1.0000
  H   H1267     1.0  0.73607  0.61921  0.33354  1.0000
  H   H1268     1.0  0.54812  0.57341  0.49148  1.0000
  Fe  Fe85      1.0  0.55569  0.82684  0.33260  1.0000
  C   C716      1.0  0.78463  0.54861  0.35352  1.0000
  C   C717      1.0  0.77279  0.52103  0.34822  1.0000
  C   C718      1.0  0.74291  0.51571  0.35069  1.0000
  C   C719      1.0  0.72471  0.53776  0.35872  1.0000
  C   C720      1.0  0.73669  0.56510  0.36436  1.0000
  C   C721      1.0  0.76647  0.57050  0.36175  1.0000
  Fe  Fe86      1.0  0.53590  0.89377  0.32922  1.0000
  H   H1269     1.0  0.52848  0.83903  0.63615  1.0000
  H   H1270     1.0  0.72289  0.58243  0.37019  1.0000
  H   H1271     1.0  0.77545  0.59191  0.36592  1.0000
  S   S166      1.0  0.55353  0.78438  0.35771  1.0000
  H   H1272     1.0  0.69048  0.88364  0.42280  1.0000
  C   C722      1.0  0.55857  0.61350  0.52868  1.0000
  C   C723      1.0  0.64983  0.81957  0.41195  1.0000
  H   H1273     1.0  0.55850  0.50620  0.52655  1.0000
  H   H1274     1.0  0.52380  0.58264  0.52387  1.0000
  H   H1275     1.0  0.73181  0.63566  0.39833  1.0000
  C   C724      1.0  0.73190  0.61201  0.61191  1.0000
  C   C725      1.0  0.76189  0.61021  0.60840  1.0000
  H   H1276     1.0  0.71730  0.61602  0.59760  1.0000
  H   H1277     1.0  0.77023  0.61280  0.59130  1.0000
  C   C726      1.0  0.57563  0.75199  0.35625  1.0000
  C   C727      1.0  0.59149  0.70207  0.37341  1.0000
  C   C728      1.0  0.61329  0.70153  0.35727  1.0000
  C   C729      1.0  0.61589  0.72606  0.34042  1.0000
  C   C730      1.0  0.59703  0.75112  0.33980  1.0000
  H   H1278     1.0  0.58972  0.68357  0.38672  1.0000
  C   C731      1.0  0.73556  0.57051  0.47982  1.0000
  H   H1279     1.0  0.67128  0.83498  0.36678  1.0000
  H   H1280     1.0  0.52646  0.97345  0.38046  1.0000
  H   H1281     1.0  0.77715  0.57418  0.46276  1.0000
  C   C732      1.0  0.65738  0.85400  0.41106  1.0000
  S   S167      1.0  0.94596  0.52819  0.64143  1.0000
  H   H1282     1.0  0.54809  0.61792  0.36860  1.0000
  C   C733      1.0  0.53496  0.63919  0.36664  1.0000
  H   H1283     1.0  0.72856  0.57995  0.41081  1.0000
  H   H1284     1.0  0.51583  0.74124  0.33629  1.0000
  C   C734      1.0  0.81128  0.50876  0.41604  1.0000
  C   C735      1.0  0.70470  0.69829  0.58224  1.0000
  H   H1285     1.0  0.71877  0.71810  0.57706  1.0000
  C   C736      1.0  0.50824  0.55962  0.58937  1.0000
  H   H1286     1.0  0.71560  0.64329  0.42497  1.0000
  H   H1287     1.0  0.80297  0.50890  0.39837  1.0000
  H   H1288     1.0  0.51836  0.96297  0.63508  1.0000
  C   C737      1.0  0.52473  0.98023  0.32278  1.0000
  C   C738      1.0  0.54748  0.52608  0.53270  1.0000
  H   H1289     1.0  0.64607  0.81202  0.43021  1.0000
  H   H1290     1.0  0.65274  0.75773  0.41613  1.0000
  C   C739      1.0  0.49157  0.55119  0.44441  1.0000
  H   H1291     1.0  0.70570  0.53668  0.45092  1.0000
  C   C740      1.0  0.49223  0.49793  0.59314  1.0000
  C   C741      1.0  0.61799  0.72730  0.42632  1.0000
  H   H1292     1.0  0.54150  0.69104  0.33809  1.0000
  H   H1293     1.0  0.50234  0.83460  0.61418  1.0000
  H   H1294     1.0  0.54856  0.60836  0.33084  1.0000
  H   H1295     1.0  0.63242  0.52514  0.56634  1.0000
  H   H1296     1.0  0.73095  0.51268  0.40794  1.0000
  H   H1297     1.0  0.58714  0.51637  0.49419  1.0000
  H   H1298     1.0  0.66961  0.80713  0.40747  1.0000
  H   H1299     1.0  0.75752  0.61785  0.44578  1.0000
  S   S168      1.0  0.56541  0.54653  0.60132  1.0000
  H   H1300     1.0  0.61571  0.79730  0.36425  1.0000
  N   N41       1.0  0.52369  0.64536  0.34261  1.0000
  H   H1301     1.0  0.49296  0.93292  0.63023  1.0000
  H   H1302     1.0  0.60476  0.79045  0.60993  1.0000
  H   H1303     1.0  0.78240  0.60161  0.31463  1.0000
  H   H1304     1.0  0.49558  0.65373  0.38406  1.0000
  H   H1305     1.0  0.55190  0.86932  0.39964  1.0000
  H   H1306     1.0  0.98285  0.62681  0.34807  1.0000
  C   C742      1.0  0.50172  0.51782  0.38622  1.0000
  S   S169      1.0  0.89542  0.55805  0.32249  1.0000
  H   H1307     1.0  0.55030  0.65738  0.37043  1.0000
  C   C743      1.0  0.75237  0.61221  0.42837  1.0000
  H   H1308     1.0  0.56780  0.61778  0.51145  1.0000
  C   C744      1.0  0.63448  0.80463  0.37415  1.0000
  C   C745      1.0  0.61359  0.53085  0.53232  1.0000
  H   H1309     1.0  0.70118  0.53852  0.40970  1.0000
  H   H1310     1.0  0.79027  0.56309  0.42650  1.0000
  S   S170      1.0  0.60305  0.61168  0.63305  1.0000
  S   S171      1.0  0.95942  0.52560  0.36011  1.0000
  H   H1311     1.0  0.76649  0.54721  0.40753  1.0000
  H   H1312     1.0  0.63275  0.72578  0.32788  1.0000
  H   H1313     1.0  0.73255  0.58427  0.51390  1.0000
  H   H1314     1.0  0.51488  0.68333  0.31759  1.0000
  H   H1315     1.0  0.59947  0.77006  0.32692  1.0000
  H   H1316     1.0  0.75866  0.55462  0.51099  1.0000
  C   C746      1.0  0.58553  0.79202  0.64284  1.0000
  C   C747      1.0  0.74928  0.57603  0.50259  1.0000
  H   H1317     1.0  0.54043  0.57714  0.55117  1.0000
  C   C748      1.0  0.54924  0.50065  0.37661  1.0000
  C   C749      1.0  0.60123  0.83473  0.39504  1.0000
  H   H1318     1.0  0.51033  0.58548  0.35544  1.0000
  H   H1319     1.0  0.74580  0.54521  0.61031  1.0000
  H   H1320     1.0  0.50764  0.69864  0.36691  1.0000
  N   N42       1.0  0.74746  0.55417  0.43999  1.0000
  C   C750      1.0  0.57575  0.64746  0.32620  1.0000
  H   H1321     1.0  0.74972  0.66028  0.41653  1.0000
  C   C751      1.0  0.78110  0.60434  0.62680  1.0000
  H   H1322     1.0  0.58459  0.82836  0.38269  1.0000
  C   C752      1.0  0.57035  0.53205  0.48654  1.0000
  S   S172      1.0  0.51353  0.85013  0.32316  1.0000
  C   C753      1.0  0.54509  0.58129  0.53269  1.0000
  C   C754      1.0  0.57860  0.54098  0.46181  1.0000
  C   C755      1.0  0.72319  0.61492  0.31831  1.0000
  S   S173      1.0  0.81833  0.59976  0.62145  1.0000
  H   H1323     1.0  0.59997  0.55241  0.46090  1.0000
  H   H1324     1.0  0.69384  0.66904  0.61204  1.0000
  C   C756      1.0  0.63946  0.53062  0.54850  1.0000
  H   H1325     1.0  0.76642  0.53668  0.47208  1.0000
  H   H1326     1.0  0.60295  0.57755  0.53302  1.0000
  H   H1327     1.0  0.74110  0.57142  0.31284  1.0000
  H   H1328     1.0  0.77097  0.49573  0.43142  1.0000
  C   C757      1.0  0.71338  0.51954  0.41899  1.0000
  C   C758      1.0  0.69672  0.71650  0.62127  1.0000
  H   H1329     1.0  0.51420  0.58343  0.58806  1.0000
  N   N43       1.0  0.56288  0.55545  0.52509  1.0000
  C   C759      1.0  0.52614  0.63646  0.40927  1.0000
  H   H1330     1.0  0.66523  0.76547  0.63078  1.0000
  H   H1331     1.0  0.58583  0.57569  0.49562  1.0000
  C   C760      1.0  0.75821  0.55860  0.46354  1.0000
  H   H1332     1.0  0.65021  0.78553  0.37506  1.0000
  C   C761      1.0  0.65388  0.82298  0.33532  1.0000
  H   H1333     1.0  0.63124  0.70636  0.42589  1.0000
  C   C762      1.0  0.52078  0.50651  0.59773  1.0000
  H   H1334     1.0  0.58969  0.93579  0.33087  1.0000
  C   C763      1.0  0.64957  0.83098  0.35962  1.0000
  C   C764      1.0  0.59966  0.95792  0.33381  1.0000
  C   C765      1.0  0.68597  0.85886  0.42319  1.0000
  H   H1335     1.0  0.59735  0.73479  0.60873  1.0000
  C   C766      1.0  0.57717  0.72855  0.64146  1.0000
  H   H1336     1.0  0.67545  0.72420  0.61393  1.0000
  C   C767      1.0  0.73631  0.63946  0.41630  1.0000
  H   H1337     1.0  0.52588  0.63463  0.54843  1.0000
  C   C768      1.0  0.52379  0.96629  0.34507  1.0000
  Fe  Fe87      1.0  0.64549  0.61978  0.61530  1.0000
  H   H1338     1.0  0.66599  0.84152  0.32550  1.0000
  C   C769      1.0  0.54512  0.63324  0.32651  1.0000
  H   H1339     1.0  0.64050  0.86646  0.41963  1.0000
  H   H1340     1.0  0.65912  0.86490  0.39351  1.0000
  C   C770      1.0  0.56681  0.56064  0.49964  1.0000
  C   C771      1.0  0.56736  0.86962  0.41407  1.0000
  C   C772      1.0  0.72500  0.52933  0.44179  1.0000
  H   H1341     1.0  0.56231  0.55660  0.45314  1.0000
  C   C773      1.0  0.70685  0.68978  0.60784  1.0000
  S   S174      1.0  0.56902  0.68938  0.64054  1.0000
  H   H1342     1.0  0.62194  0.53565  0.51480  1.0000
  H   H1343     1.0  0.78383  0.54589  0.60329  1.0000
  S   S175      1.0  0.51646  0.92724  0.35118  1.0000
  H   H1344     1.0  0.70399  0.84802  0.41463  1.0000
  H   H1345     1.0  0.79593  0.51311  0.44971  1.0000
  H   H1346     1.0  0.68498  0.84915  0.44120  1.0000
  H   H1347     1.0  0.71276  0.58734  0.43667  1.0000
  C   C774      1.0  0.49478  0.72932  0.33848  1.0000
  C   C775      1.0  0.77043  0.50640  0.62580  1.0000
  H   H1348     1.0  0.59668  0.60721  0.31479  1.0000
  H   H1349     1.0  0.72573  0.59231  0.47268  1.0000
  C   C776      1.0  0.63065  0.75291  0.41011  1.0000
  H   H1350     1.0  0.63222  0.74415  0.39320  1.0000
  C   C777      1.0  0.51217  0.63567  0.38590  1.0000
  N   N44       1.0  0.62467  0.81084  0.39754  1.0000
  H   H1351     1.0  0.78669  0.50373  0.34240  1.0000
  C   C778      1.0  0.76459  0.53104  0.60636  1.0000
  H   H1352     1.0  0.50906  0.54573  0.45706  1.0000
  H   H1353     1.0  0.63268  0.82052  0.32680  1.0000
  C   C779      1.0  0.77272  0.54602  0.42576  1.0000
  H   H1354     1.0  0.60474  0.78494  0.42628  1.0000
  H   H1355     1.0  0.71797  0.55369  0.48335  1.0000
  C   C780      1.0  0.59072  0.74569  0.62345  1.0000
  C   C781      1.0  0.59157  0.55567  0.53730  1.0000
  H   H1356     1.0  0.68210  0.70393  0.57706  1.0000
  Fe  Fe88      1.0  0.92229  0.51831  0.33663  1.0000
  H   H1357     1.0  0.76644  0.59362  0.50020  1.0000
  H   H1358     1.0  0.58536  0.64465  0.34345  1.0000
  H   H1359     1.0  0.56920  0.82112  0.42117  1.0000
  H   H1360     1.0  0.70264  0.60377  0.32403  1.0000
  H   H1361     1.0  0.55492  0.87228  0.42972  1.0000
  C   C782      1.0  0.51513  0.52476  0.52592  1.0000
  C   C783      1.0  0.52727  0.98405  0.36321  1.0000
  S   S176      1.0  0.59039  0.83201  0.64240  1.0000
  H   H1362     1.0  0.75970  0.52034  0.59057  1.0000
  H   H1363     1.0  0.66629  0.80146  0.33511  1.0000
  H   H1364     1.0  0.72973  0.68371  0.61168  1.0000
  C   C784      1.0  0.58474  0.84001  0.41704  1.0000
  H   H1365     1.0  0.71200  0.73567  0.61692  1.0000
  H   H1366     1.0  0.58806  0.55411  0.55599  1.0000
  C   C785      1.0  0.61133  0.78185  0.40861  1.0000
  H   H1367     1.0  0.60968  0.85696  0.38760  1.0000
  H   H1368     1.0  0.65039  0.55310  0.54696  1.0000
  H   H1369     1.0  0.61797  0.73378  0.44399  1.0000
  C   C786      1.0  0.78676  0.51445  0.43230  1.0000
  H   H1370     1.0  0.50211  0.53827  0.53707  1.0000
  C   C787      1.0  0.73385  0.58288  0.42877  1.0000
  C   C788      1.0  0.52894  0.53734  0.59594  1.0000
  H   H1371     1.0  0.77287  0.60963  0.41918  1.0000
  H   H1372     1.0  0.82826  0.52648  0.41648  1.0000
  H   H1373     1.0  0.53821  0.65805  0.41029  1.0000
  S   S177      1.0  0.57656  0.87006  0.34159  1.0000
  H   H1374     1.0  0.59963  0.84082  0.43170  1.0000
  H   H1375     1.0  0.51945  0.63865  0.51808  1.0000
  H   H1376     1.0  0.71182  0.67871  0.57319  1.0000
  H   H1377     1.0  0.57595  0.61587  0.54133  1.0000
  H   H1378     1.0  0.58193  0.88955  0.41085  1.0000
  C   C789      1.0  0.52065  0.67918  0.33595  1.0000
  H   H1379     1.0  0.54716  0.66089  0.53020  1.0000
  C   C790      1.0  0.49898  0.69682  0.34956  1.0000
  H   H1380     1.0  0.82502  0.62147  0.31160  1.0000
  H   H1381     1.0  0.73314  0.50879  0.45232  1.0000
  H   H1382     1.0  0.57227  0.50438  0.37522  1.0000
  C   C791      1.0  0.50507  0.83708  0.63255  1.0000
  C   C792      1.0  0.49729  0.95773  0.62729  1.0000
  H   H1383     1.0  0.60410  0.50774  0.53438  1.0000
  S   S178      1.0  0.68347  0.60872  0.63954  1.0000
  C   C793      1.0  0.49516  0.62996  0.33900  1.0000
  H   H1384     1.0  0.50371  0.78901  0.64133  1.0000
  H   H1385     1.0  0.57544  0.67201  0.32006  1.0000
  H   H1386     1.0  0.73387  0.49437  0.34644  1.0000
  H   H1387     1.0  0.65525  0.51310  0.54432  1.0000
  H   H1388     1.0  0.67450  0.49825  0.43383  1.0000
  H   H1389     1.0  0.49153  0.54811  0.63913  1.0000
  H   H1390     1.0  0.50160  0.55992  0.42809  1.0000
  H   H1391     1.0  0.58001  0.52032  0.45255  1.0000
  H   H1392     1.0  0.50921  0.63477  0.42251  1.0000
  H   H1393     1.0  0.49396  0.85827  0.63645  1.0000
  C   C794      1.0  0.72092  0.60796  0.63392  1.0000
  H   H1394     1.0  0.54978  0.51920  0.48646  1.0000
  C   C795      1.0  0.49604  0.59456  0.34131  1.0000
  H   H1395     1.0  0.49875  0.96404  0.60872  1.0000
  H   H1396     1.0  0.50452  0.58643  0.32544  1.0000
  H   H1397     1.0  0.66928  0.66931  0.64324  1.0000
  C   C796      1.0  0.60377  0.97690  0.31109  1.0000
  H   H1398     1.0  0.64842  0.70222  0.64401  1.0000
  S   S179      1.0  0.89874  0.60510  0.64272  1.0000
  H   H1399     1.0  0.61783  0.64159  0.31143  1.0000
  H   H1400     1.0  0.65192  0.96999  0.68141  1.0000
  S   S180      1.0  0.91507  0.56863  0.69241  1.0000
  H   H1401     1.0  0.53143  0.91069  0.86131  1.0000
  S   S181      1.0  0.85117  0.60200  0.68446  1.0000
  Fe  Fe89      1.0  0.89795  0.61433  0.67937  1.0000
  S   S182      1.0  0.91696  0.65709  0.69092  1.0000
  Fe  Fe90      1.0  0.86856  0.55498  0.69410  1.0000
  C   C797      1.0  0.93453  0.57641  0.79051  1.0000
  H   H1402     1.0  0.69189  0.73648  0.67567  1.0000
  H   H1403     1.0  0.56681  0.78552  0.67602  1.0000
  H   H1404     1.0  0.75732  0.53401  0.65170  1.0000
  Fe  Fe91      1.0  0.57438  0.86499  0.66709  1.0000
  S   S183      1.0  0.55539  0.85402  0.70166  1.0000
  S   S184      1.0  0.68323  0.98402  0.78498  1.0000
  Fe  Fe92      1.0  0.56907  0.93434  0.67077  1.0000
  S   S185      1.0  0.55029  0.92868  0.70570  1.0000
  C   C798      1.0  0.54676  0.93023  0.79055  1.0000
  Fe  Fe93      1.0  0.58345  0.89175  0.71232  1.0000
  S   S186      1.0  0.60890  0.88162  0.74452  1.0000
  H   H1405     1.0  0.75163  0.52075  0.70535  1.0000
  S   S187      1.0  0.60483  0.90028  0.67851  1.0000
  C   C799      1.0  0.55115  0.98173  0.76762  1.0000
  H   H1406     1.0  0.95019  0.57449  0.73287  1.0000
  H   H1407     1.0  0.74768  0.91564  0.81644  1.0000
  H   H1408     1.0  0.51018  0.71660  0.65339  1.0000
  C   C800      1.0  0.66184  0.68035  0.67690  1.0000
  H   H1409     1.0  0.86076  0.57170  0.77708  1.0000
  S   S188      1.0  0.86669  0.54095  0.65875  1.0000
  C   C801      1.0  0.91972  0.95511  0.88472  1.0000
  C   C802      1.0  0.69254  0.73974  0.65689  1.0000
  H   H1410     1.0  0.91105  0.94021  0.89930  1.0000
  H   H1411     1.0  0.77641  0.97430  0.79322  1.0000
  H   H1412     1.0  0.78050  0.90052  0.82960  1.0000
  H   H1413     1.0  0.95743  0.52474  0.77265  1.0000
  H   H1414     1.0  0.58116  0.82489  0.80873  1.0000
  C   C803      1.0  0.74018  0.60284  0.65233  1.0000
  H   H1415     1.0  0.93890  0.97891  0.94178  1.0000
  H   H1416     1.0  0.71982  0.98199  0.83812  1.0000
  H   H1417     1.0  0.63012  0.64617  0.66941  1.0000
  H   H1418     1.0  0.61609  0.96121  0.84100  1.0000
  C   C804      1.0  0.95548  0.56176  0.80878  1.0000
  C   C805      1.0  0.62880  0.91109  0.75515  1.0000
  C   C806      1.0  0.62073  0.94176  0.75095  1.0000
  C   C807      1.0  0.63680  0.96444  0.76062  1.0000
  C   C808      1.0  0.56921  0.83383  0.79318  1.0000
  C   C809      1.0  0.66940  0.92583  0.77778  1.0000
  C   C810      1.0  0.65287  0.90324  0.76886  1.0000
  H   H1419     1.0  0.60206  0.94790  0.74045  1.0000
  H   H1420     1.0  0.89482  0.56077  0.74437  1.0000
  C   C811      1.0  0.52534  0.79566  0.74402  1.0000
  H   H1421     1.0  0.65908  0.87957  0.77223  1.0000
  Fe  Fe94      1.0  0.85286  0.58919  0.64867  1.0000
  H   H1422     1.0  0.91442  0.59394  0.74971  1.0000
  S   S189      1.0  0.96723  0.66393  0.78950  1.0000
  H   H1423     1.0  0.64563  0.74853  0.65502  1.0000
  C   C812      1.0  0.51930  0.91851  0.82522  1.0000
  H   H1424     1.0  0.98806  0.92424  0.84085  1.0000
  S   S190      1.0  0.57929  0.97899  0.65055  1.0000
  S   S191      1.0  0.85480  0.52358  0.72428  1.0000
  H   H1425     1.0  0.49754  0.97503  0.70592  1.0000
  H   H1426     1.0  0.77393  0.67519  0.67527  1.0000
  C   C813      1.0  0.92909  0.65462  0.71919  1.0000
  C   C814      1.0  0.91518  0.67181  0.73449  1.0000
  C   C815      1.0  0.92663  0.67350  0.75626  1.0000
  C   C816      1.0  0.95274  0.65908  0.76260  1.0000
  C   C817      1.0  0.96663  0.64152  0.74744  1.0000
  C   C818      1.0  0.95447  0.63883  0.72586  1.0000
  H   H1427     1.0  0.89578  0.68436  0.72932  1.0000
  H   H1428     1.0  0.91582  0.68709  0.76791  1.0000
  H   H1429     1.0  0.71401  0.69233  0.69235  1.0000
  H   H1430     1.0  0.96536  0.62572  0.71397  1.0000
  H   H1431     1.0  0.74690  0.64898  0.68743  1.0000
  C   C819      1.0  0.90202  0.57450  0.75816  1.0000
  C   C820      1.0  0.76575  0.97621  0.80979  1.0000
  H   H1432     1.0  0.89855  0.50617  0.69397  1.0000
  C   C821      1.0  0.85665  0.60550  0.74880  1.0000
  H   H1433     1.0  0.76200  0.56867  0.72207  1.0000
  H   H1434     1.0  0.94597  0.59532  0.78051  1.0000
  H   H1435     1.0  0.88098  0.60613  0.77956  1.0000
  H   H1436     1.0  0.94340  0.54717  0.82178  1.0000
  H   H1437     1.0  0.67789  0.66286  0.68335  1.0000
  H   H1438     1.0  0.83796  0.61684  0.75609  1.0000
  H   H1439     1.0  0.86966  0.62312  0.73877  1.0000
  H   H1440     1.0  0.66658  0.78622  0.67887  1.0000
  H   H1441     1.0  0.53591  0.79203  0.70909  1.0000
  H   H1442     1.0  0.55890  0.72984  0.67468  1.0000
  C   C822      1.0  0.63830  0.97982  0.69424  1.0000
  H   H1443     1.0  0.93168  0.52405  0.75051  1.0000
  H   H1444     1.0  0.91770  0.58783  0.79994  1.0000
  H   H1445     1.0  0.66241  0.69973  0.68745  1.0000
  H   H1446     1.0  0.95509  0.60048  0.82914  1.0000
  H   H1447     1.0  0.98431  0.60057  0.80910  1.0000
  H   H1448     1.0  0.74259  0.97104  0.80668  1.0000
  H   H1449     1.0  0.64439  0.94567  0.82488  1.0000
  H   H1450     1.0  0.68834  0.91954  0.78794  1.0000
  C   C823      1.0  0.66137  0.95643  0.77383  1.0000
  C   C824      1.0  0.60143  0.93012  0.81689  1.0000
  C   C825      1.0  0.77014  0.60113  0.64883  1.0000
  H   H1451     1.0  0.63063  0.98809  0.75745  1.0000
  H   H1452     1.0  0.93684  0.50456  0.80683  1.0000
  C   C826      1.0  0.66721  0.79018  0.66006  1.0000
  H   H1453     1.0  0.78969  0.54074  0.72981  1.0000
  H   H1454     1.0  0.95167  0.90280  0.89361  1.0000
  N   N45       1.0  0.54770  0.91311  0.81386  1.0000
  C   C827      1.0  0.98390  0.54185  0.73338  1.0000
  H   H1455     1.0  0.80189  0.50297  0.70247  1.0000
  C   C828      1.0  0.95244  0.95158  0.88328  1.0000
  H   H1456     1.0  0.50921  0.78695  0.75684  1.0000
  H   H1457     1.0  0.97230  0.57966  0.88191  1.0000
  C   C829      1.0  0.73167  0.69568  0.67992  1.0000
  H   H1458     1.0  0.97222  0.54821  0.80115  1.0000
  H   H1459     1.0  0.61750  0.96726  0.69534  1.0000
  H   H1460     1.0  0.62753  0.92213  0.84770  1.0000
  H   H1461     1.0  0.52054  0.80912  0.67514  1.0000
  C   C830      1.0  0.96280  0.56058  0.74596  1.0000
  N   N46       1.0  0.92085  0.55533  0.77495  1.0000
  C   C831      1.0  0.96095  0.91829  0.87956  1.0000
  C   C832      1.0  0.75540  0.67256  0.68713  1.0000
  C   C833      1.0  0.62366  0.94036  0.83373  1.0000
  H   H1462     1.0  0.81083  0.53338  0.68217  1.0000
  C   C834      1.0  0.98914  0.55397  0.66530  1.0000
  H   H1463     1.0  0.57506  0.98175  0.76684  1.0000
  H   H1464     1.0  0.51326  0.75561  0.68101  1.0000
  C   C835      1.0  0.56872  0.74312  0.66046  1.0000
  H   H1465     1.0  0.78474  0.59695  0.66311  1.0000
  H   H1466     1.0  0.82402  0.49357  0.64911  1.0000
  H   H1467     1.0  0.52940  0.92083  0.78014  1.0000
  C   C836      1.0  0.54116  0.96499  0.78992  1.0000
  H   H1468     1.0  0.52851  0.86858  0.81105  1.0000
  H   H1469     1.0  0.64956  0.97659  0.71091  1.0000
  H   H1470     1.0  0.56710  0.92684  0.78123  1.0000
  H   H1471     1.0  0.84831  0.58902  0.73732  1.0000
  H   H1472     1.0  0.62884  0.65713  0.69790  1.0000
  H   H1473     1.0  0.60995  0.90927  0.81047  1.0000
  H   H1474     1.0  0.54737  0.82346  0.79319  1.0000
  H   H1475     1.0  0.55255  0.97528  0.80379  1.0000
  C   C837      1.0  0.66606  0.75998  0.64944  1.0000
  C   C838      1.0  0.77994  0.55544  0.71546  1.0000
  C   C839      1.0  0.63210  0.66568  0.67984  1.0000
  H   H1476     1.0  0.54710  0.78773  0.74995  1.0000
  C   C840      1.0  0.57170  0.92432  0.82836  1.0000
  H   H1477     1.0  0.94915  0.91265  0.86409  1.0000
  C   C841      1.0  0.79305  0.51739  0.68767  1.0000
  Fe  Fe95      1.0  0.52405  0.89184  0.69190  1.0000
  C   C842      1.0  0.57298  0.77466  0.66122  1.0000
  H   H1478     1.0  0.79451  0.53779  0.64474  1.0000
  H   H1479     1.0  0.51887  0.87697  0.84944  1.0000
  C   C843      1.0  0.66795  0.69056  0.65168  1.0000
  Fe  Fe96      1.0  0.91238  0.55785  0.65627  1.0000
  H   H1480     1.0  0.56012  0.86748  0.82793  1.0000
  C   C844      1.0  0.97090  0.58595  0.82116  1.0000
  H   H1481     1.0  0.73180  0.59995  0.66941  1.0000
  C   C845      1.0  0.98382  0.56779  0.89675  1.0000
  H   H1482     1.0  0.56532  0.94599  0.83520  1.0000
  H   H1483     1.0  0.71241  0.75335  0.65275  1.0000
  H   H1484     1.0  0.98199  0.54285  0.89570  1.0000
  H   H1485     1.0  0.57532  0.90814  0.84372  1.0000
  H   H1486     1.0  0.75804  0.55179  0.68405  1.0000
  H   H1487     1.0  0.95996  0.96790  0.86911  1.0000
  H   H1488     1.0  0.51034  0.87505  0.73822  1.0000
  H   H1489     1.0  0.68705  0.80305  0.65481  1.0000
  H   H1490     1.0  0.49772  0.87337  0.77896  1.0000
  C   C846      1.0  0.87480  0.58903  0.76787  1.0000
  H   H1491     1.0  0.96176  0.95855  0.89928  1.0000
  H   H1492     1.0  0.55575  0.87606  0.77556  1.0000
  H   H1493     1.0  0.51766  0.96930  0.79164  1.0000
  H   H1494     1.0  0.74073  0.71881  0.68112  1.0000
  H   H1495     1.0  0.98315  0.81850  0.84469  1.0000
  H   H1496     1.0  0.58916  0.87769  0.79099  1.0000
  C   C847      1.0  0.51868  0.78403  0.72104  1.0000
  H   H1497     1.0  0.90917  0.94935  0.86879  1.0000
  C   C848      1.0  0.77801  0.94994  0.82627  1.0000
  H   H1498     1.0  0.58111  0.82718  0.77818  1.0000
  H   H1499     1.0  0.64826  0.80436  0.65430  1.0000
  H   H1500     1.0  0.79650  0.57170  0.70818  1.0000
  H   H1501     1.0  0.51600  0.94308  0.82693  1.0000
  C   C849      1.0  0.77139  0.91910  0.81765  1.0000
  C   C850      1.0  0.77692  0.52072  0.64827  1.0000
  H   H1502     1.0  0.89150  0.54179  0.80247  1.0000
  H   H1503     1.0  0.52084  0.97618  0.85850  1.0000
  H   H1504     1.0  0.91436  0.97915  0.88713  1.0000
  C   C851      1.0  0.94293  0.53962  0.76148  1.0000
  H   H1505     1.0  0.60000  0.94844  0.80270  1.0000
  C   C852      1.0  0.76843  0.53609  0.69733  1.0000
  C   C853      1.0  0.56702  0.86853  0.79176  1.0000
  N   N47       1.0  0.78493  0.49866  0.66853  1.0000
  C   C854      1.0  0.51565  0.90188  0.84938  1.0000
  H   H1506     1.0  0.76832  0.94961  0.84336  1.0000
  C   C855      1.0  0.90203  0.53177  0.78805  1.0000
  H   H1507     1.0  0.80177  0.95184  0.82755  1.0000
  H   H1508     1.0  0.61495  0.68262  0.67480  1.0000
  H   H1509     1.0  0.88406  0.52485  0.77701  1.0000
  H   H1510     1.0  0.89118  0.49380  0.82830  1.0000
  C   C856      1.0  0.55030  0.87908  0.81219  1.0000
  H   H1511     1.0  0.78109  0.91760  0.80068  1.0000
  H   H1512     1.0  0.52521  0.82093  0.74264  1.0000
  H   H1513     1.0  0.51996  0.75880  0.72350  1.0000
  H   H1514     1.0  0.98251  0.81747  0.87520  1.0000
  H   H1515     1.0  0.98525  0.57484  0.83460  1.0000
  C   C857      1.0  0.91661  0.50122  0.79741  1.0000
  H   H1516     1.0  0.73227  0.97919  0.87910  1.0000
  H   H1517     1.0  0.76326  0.67611  0.70443  1.0000
  H   H1518     1.0  0.50104  0.91189  0.81440  1.0000
  C   C858      1.0  0.48976  0.75631  0.68473  1.0000
  N   N48       1.0  0.69458  0.70969  0.64678  1.0000
  H   H1519     1.0  0.97919  0.62358  0.64573  1.0000
  H   H1520     1.0  0.82019  0.99027  0.84258  1.0000
  C   C859      1.0  0.72158  0.69264  0.65517  1.0000
  H   H1521     1.0  0.49256  0.69539  0.67712  1.0000
  H   H1522     1.0  0.97227  0.56606  0.67315  1.0000
  H   H1523     1.0  0.96120  0.86551  0.85667  1.0000
  H   H1524     1.0  0.71931  0.66796  0.65286  1.0000
  C   C860      1.0  0.49237  0.80940  0.64651  1.0000
  C   C861      1.0  0.88051  0.49421  0.72708  1.0000
  H   H1525     1.0  0.49205  0.83501  0.67603  1.0000
  C   C862      1.0  0.98219  0.53386  0.64929  1.0000
  H   H1526     1.0  0.97237  0.52442  0.72438  1.0000
  H   H1527     1.0  0.98680  0.63034  0.75228  1.0000
  C   C863      1.0  0.49694  0.81137  0.67221  1.0000
  H   H1528     1.0  0.49248  0.97731  0.66947  1.0000
  C   C864      1.0  0.98503  0.86309  0.85731  1.0000
  H   H1529     1.0  0.98327  0.65839  0.67542  1.0000
  H   H1530     1.0  0.98843  0.86647  0.89313  1.0000
  H   H1531     1.0  0.97560  0.57574  0.75603  1.0000
  H   H1532     1.0  0.97737  0.91498  0.92356  1.0000
  H   H1533     1.0  0.97340  0.57346  0.91265  1.0000
  H   H1534     1.0  0.97468  0.71290  0.73500  1.0000
  S   S192      1.0  0.54044  0.90005  0.65634  1.0000
  H   H1535     1.0  0.54230  0.97093  0.75288  1.0000
  H   H1536     1.0  0.74052  0.70082  0.64477  1.0000
